@<TRIPOS>MOLECULE
guest-6_confgen4.mol2 : confsearch ligand conformer 1
          13          12           1
SMALL
USER_CHARGES
 
@<TRIPOS>ATOM
       1    C1      20.096036   19.115791   23.948994 C.2        1 MOL1         0.6021
       2    O1      20.815775   20.085500   24.086719 O.co2      1 MOL1        -0.6904
       3    O2      19.632033   18.498147   24.886017 O.co2      1 MOL1        -0.6904
       4    C2      19.740199   18.626009   22.543940 C.3        1 MOL1        -0.2102
       5    H1      18.646753   18.631285   22.462178 H          1 MOL1         0.0687
       6    H2      20.061784   17.580314   22.470166 H          1 MOL1         0.0687
       7    C3      20.355163   19.445157   21.379133 C.3        1 MOL1        -0.1974
       8    H3      20.034027   20.493312   21.456576 H          1 MOL1         0.0689
       9    H4      21.450805   19.441114   21.464615 H          1 MOL1         0.0689
      10    C4      19.942793   18.879395   20.005198 C.3        1 MOL1        -0.2987
      11    H5      18.851928   18.901477   19.882523 H          1 MOL1         0.0700
      12    H6      20.387051   19.471335   19.194334 H          1 MOL1         0.0700
      13    H7      20.280044   17.840807   19.890659 H          1 MOL1         0.0700
@<TRIPOS>BOND
    1     1     2    1
    2     1     3    2
    3     1     4    1
    4     4     5    1
    5     4     6    1
    6     4     7    1
    7     7     8    1
    8     7     9    1
    9     7    10    1
   10    10    11    1
   11    10    12    1
   12    10    13    1
@<TRIPOS>SUBSTRUCTURE
       1 MOL1            1 RESIDUE      1      MOL     
@<SCITEGIC>MOL_PROPERTY
VConf Rank
SciTegic.value.IntegerValue
1

@<SCITEGIC>MOL_PROPERTY
Conf_Id
SciTegic.value.IntegerValue
0

@<SCITEGIC>MOL_PROPERTY
Delta U+W
SciTegic.value.DoubleValue
0.000

@<SCITEGIC>MOL_PROPERTY
U+W
SciTegic.value.DoubleValue
-58.332

@<SCITEGIC>MOL_PROPERTY
Grad RMS
SciTegic.value.DoubleValue
0.000000

@<SCITEGIC>MOL_PROPERTY
U
SciTegic.value.DoubleValue
8.390

@<SCITEGIC>MOL_PROPERTY
W
SciTegic.value.DoubleValue
-66.722

@<SCITEGIC>MOL_PROPERTY
W(PB)
SciTegic.value.DoubleValue
-68.455

@<SCITEGIC>MOL_PROPERTY
W(SA)
SciTegic.value.DoubleValue
1.733

@<SCITEGIC>MOL_PROPERTY
Valence
SciTegic.value.DoubleValue
6.333

@<SCITEGIC>MOL_PROPERTY
Coulomb
SciTegic.value.DoubleValue
1.215

@<SCITEGIC>MOL_PROPERTY
VdW
SciTegic.value.DoubleValue
0.842

@<SCITEGIC>MOL_PROPERTY
VdW6
SciTegic.value.DoubleValue
-3.344

@<SCITEGIC>MOL_PROPERTY
VdW12
SciTegic.value.DoubleValue
4.186

@<SCITEGIC>MOL_PROPERTY
Bond
SciTegic.value.DoubleValue
0.091

@<SCITEGIC>MOL_PROPERTY
Angle
SciTegic.value.DoubleValue
2.713

@<SCITEGIC>MOL_PROPERTY
Pdih
SciTegic.value.DoubleValue
3.529

@<SCITEGIC>MOL_PROPERTY
Idih
SciTegic.value.DoubleValue
0.000

@<SCITEGIC>MOL_PROPERTY
Tether
SciTegic.value.DoubleValue
0.000

@<TRIPOS>MOLECULE
guest-6_confgen4.mol2 : confsearch ligand conformer 2
          13          12           1
SMALL
USER_CHARGES
 
@<TRIPOS>ATOM
       1    C1      20.074321   19.239811   23.932698 C.2        1 MOL1         0.6021
       2    O1      20.653570   20.221506   24.352349 O.co2      1 MOL1        -0.6904
       3    O2      19.938476   18.216260   24.572424 O.co2      1 MOL1        -0.6904
       4    C2      19.503271   19.288358   22.519530 C.3        1 MOL1        -0.2102
       5    H1      19.190524   20.319144   22.312918 H          1 MOL1         0.0687
       6    H2      18.600801   18.665512   22.494414 H          1 MOL1         0.0687
       7    C3      20.509643   18.811466   21.444524 C.3        1 MOL1        -0.1974
       8    H3      21.413106   19.435876   21.485624 H          1 MOL1         0.0689
       9    H4      20.823166   17.781906   21.667082 H          1 MOL1         0.0689
      10    C4      19.902719   18.872598   20.028475 C.3        1 MOL1        -0.2987
      11    H5      20.630404   18.530997   19.280783 H          1 MOL1         0.0700
      12    H6      19.014083   18.232021   19.954028 H          1 MOL1         0.0700
      13    H7      19.608591   19.898679   19.771174 H          1 MOL1         0.0700
@<TRIPOS>BOND
    1     1     2    1
    2     1     3    2
    3     1     4    1
    4     4     5    1
    5     4     6    1
    6     4     7    1
    7     7     8    1
    8     7     9    1
    9     7    10    1
   10    10    11    1
   11    10    12    1
   12    10    13    1
@<TRIPOS>SUBSTRUCTURE
       1 MOL1            1 RESIDUE      1      MOL     
@<SCITEGIC>MOL_PROPERTY
VConf Rank
SciTegic.value.IntegerValue
2

@<SCITEGIC>MOL_PROPERTY
Conf_Id
SciTegic.value.IntegerValue
1

@<SCITEGIC>MOL_PROPERTY
Delta U+W
SciTegic.value.DoubleValue
-1.339

@<SCITEGIC>MOL_PROPERTY
U+W
SciTegic.value.DoubleValue
-59.672

@<SCITEGIC>MOL_PROPERTY
Grad RMS
SciTegic.value.DoubleValue
0.000000

@<SCITEGIC>MOL_PROPERTY
U
SciTegic.value.DoubleValue
7.389

@<SCITEGIC>MOL_PROPERTY
W
SciTegic.value.DoubleValue
-67.061

@<SCITEGIC>MOL_PROPERTY
W(PB)
SciTegic.value.DoubleValue
-68.767

@<SCITEGIC>MOL_PROPERTY
W(SA)
SciTegic.value.DoubleValue
1.707

@<SCITEGIC>MOL_PROPERTY
Valence
SciTegic.value.DoubleValue
5.822

@<SCITEGIC>MOL_PROPERTY
Coulomb
SciTegic.value.DoubleValue
1.255

@<SCITEGIC>MOL_PROPERTY
VdW
SciTegic.value.DoubleValue
0.312

@<SCITEGIC>MOL_PROPERTY
VdW6
SciTegic.value.DoubleValue
-3.061

@<SCITEGIC>MOL_PROPERTY
VdW12
SciTegic.value.DoubleValue
3.372

@<SCITEGIC>MOL_PROPERTY
Bond
SciTegic.value.DoubleValue
0.059

@<SCITEGIC>MOL_PROPERTY
Angle
SciTegic.value.DoubleValue
2.241

@<SCITEGIC>MOL_PROPERTY
Pdih
SciTegic.value.DoubleValue
3.522

@<SCITEGIC>MOL_PROPERTY
Idih
SciTegic.value.DoubleValue
0.000

@<SCITEGIC>MOL_PROPERTY
Tether
SciTegic.value.DoubleValue
0.000

@<TRIPOS>MOLECULE
guest-6_confgen4.mol2 : confsearch ligand conformer 3
          13          12           1
SMALL
USER_CHARGES
 
@<TRIPOS>ATOM
       1    C1      20.140297   19.144191   23.780061 C.2        1 MOL1         0.6021
       2    O1      20.667809   20.149811   24.211986 O.co2      1 MOL1        -0.6904
       3    O2      19.123482   18.668951   24.244970 O.co2      1 MOL1        -0.6904
       4    C2      20.812216   18.421951   22.614891 C.3        1 MOL1        -0.2102
       5    H1      20.415274   17.400904   22.558430 H          1 MOL1         0.0687
       6    H2      21.878403   18.334273   22.855609 H          1 MOL1         0.0687
       7    C3      20.649255   19.134466   21.247739 C.3        1 MOL1        -0.1974
       8    H3      21.011765   20.169005   21.326716 H          1 MOL1         0.0689
       9    H4      21.283231   18.633882   20.503182 H          1 MOL1         0.0689
      10    C4      19.188940   19.130630   20.750352 C.3        1 MOL1        -0.2987
      11    H5      18.532001   19.663099   21.450878 H          1 MOL1         0.0700
      12    H6      19.111892   19.624378   19.772921 H          1 MOL1         0.0700
      13    H7      18.813619   18.104467   20.643041 H          1 MOL1         0.0700
@<TRIPOS>BOND
    1     1     2    1
    2     1     3    2
    3     1     4    1
    4     4     5    1
    5     4     6    1
    6     4     7    1
    7     7     8    1
    8     7     9    1
    9     7    10    1
   10    10    11    1
   11    10    12    1
   12    10    13    1
@<TRIPOS>SUBSTRUCTURE
       1 MOL1            1 RESIDUE      1      MOL     
@<SCITEGIC>MOL_PROPERTY
VConf Rank
SciTegic.value.IntegerValue
3

@<SCITEGIC>MOL_PROPERTY
Conf_Id
SciTegic.value.IntegerValue
4

@<SCITEGIC>MOL_PROPERTY
Delta U+W
SciTegic.value.DoubleValue
0.281

@<SCITEGIC>MOL_PROPERTY
U+W
SciTegic.value.DoubleValue
-58.051

@<SCITEGIC>MOL_PROPERTY
Grad RMS
SciTegic.value.DoubleValue
0.000000

@<SCITEGIC>MOL_PROPERTY
U
SciTegic.value.DoubleValue
9.781

@<SCITEGIC>MOL_PROPERTY
W
SciTegic.value.DoubleValue
-67.832

@<SCITEGIC>MOL_PROPERTY
W(PB)
SciTegic.value.DoubleValue
-69.535

@<SCITEGIC>MOL_PROPERTY
W(SA)
SciTegic.value.DoubleValue
1.703

@<SCITEGIC>MOL_PROPERTY
Valence
SciTegic.value.DoubleValue
6.123

@<SCITEGIC>MOL_PROPERTY
Coulomb
SciTegic.value.DoubleValue
3.449

@<SCITEGIC>MOL_PROPERTY
VdW
SciTegic.value.DoubleValue
0.209

@<SCITEGIC>MOL_PROPERTY
VdW6
SciTegic.value.DoubleValue
-3.762

@<SCITEGIC>MOL_PROPERTY
VdW12
SciTegic.value.DoubleValue
3.972

@<SCITEGIC>MOL_PROPERTY
Bond
SciTegic.value.DoubleValue
0.078

@<SCITEGIC>MOL_PROPERTY
Angle
SciTegic.value.DoubleValue
2.428

@<SCITEGIC>MOL_PROPERTY
Pdih
SciTegic.value.DoubleValue
3.616

@<SCITEGIC>MOL_PROPERTY
Idih
SciTegic.value.DoubleValue
0.002

@<SCITEGIC>MOL_PROPERTY
Tether
SciTegic.value.DoubleValue
0.000

@<TRIPOS>MOLECULE
guest-6_confgen4.mol2 : confsearch ligand conformer 4
          13          12           1
SMALL
USER_CHARGES
 
@<TRIPOS>ATOM
       1    C1      20.197135   19.186581   23.773366 C.2        1 MOL1         0.6021
       2    O1      20.819858   20.197211   24.031722 O.co2      1 MOL1        -0.6904
       3    O2      19.222048   18.822294   24.399942 O.co2      1 MOL1        -0.6904
       4    C2      20.684473   18.307704   22.624104 C.3        1 MOL1        -0.2102
       5    H1      20.713661   17.275062   22.991779 H          1 MOL1         0.0687
       6    H2      21.717226   18.586892   22.381694 H          1 MOL1         0.0687
       7    C3      19.800124   18.377477   21.352729 C.3        1 MOL1        -0.1974
       8    H3      20.132395   17.609769   20.640625 H          1 MOL1         0.0689
       9    H4      18.760248   18.136460   21.614435 H          1 MOL1         0.0689
      10    C4      19.858360   19.758733   20.668137 C.3        1 MOL1        -0.2987
      11    H5      20.887013   20.009830   20.377938 H          1 MOL1         0.0700
      12    H6      19.238104   19.768050   19.762438 H          1 MOL1         0.0700
      13    H7      19.490362   20.547112   21.338109 H          1 MOL1         0.0700
@<TRIPOS>BOND
    1     1     2    1
    2     1     3    2
    3     1     4    1
    4     4     5    1
    5     4     6    1
    6     4     7    1
    7     7     8    1
    8     7     9    1
    9     7    10    1
   10    10    11    1
   11    10    12    1
   12    10    13    1
@<TRIPOS>SUBSTRUCTURE
       1 MOL1            1 RESIDUE      1      MOL     
@<SCITEGIC>MOL_PROPERTY
VConf Rank
SciTegic.value.IntegerValue
4

@<SCITEGIC>MOL_PROPERTY
Conf_Id
SciTegic.value.IntegerValue
36

@<SCITEGIC>MOL_PROPERTY
Delta U+W
SciTegic.value.DoubleValue
0.272

@<SCITEGIC>MOL_PROPERTY
U+W
SciTegic.value.DoubleValue
-58.060

@<SCITEGIC>MOL_PROPERTY
Grad RMS
SciTegic.value.DoubleValue
0.000000

@<SCITEGIC>MOL_PROPERTY
U
SciTegic.value.DoubleValue
9.781

@<SCITEGIC>MOL_PROPERTY
W
SciTegic.value.DoubleValue
-67.841

@<SCITEGIC>MOL_PROPERTY
W(PB)
SciTegic.value.DoubleValue
-69.537

@<SCITEGIC>MOL_PROPERTY
W(SA)
SciTegic.value.DoubleValue
1.696

@<SCITEGIC>MOL_PROPERTY
Valence
SciTegic.value.DoubleValue
6.123

@<SCITEGIC>MOL_PROPERTY
Coulomb
SciTegic.value.DoubleValue
3.449

@<SCITEGIC>MOL_PROPERTY
VdW
SciTegic.value.DoubleValue
0.209

@<SCITEGIC>MOL_PROPERTY
VdW6
SciTegic.value.DoubleValue
-3.762

@<SCITEGIC>MOL_PROPERTY
VdW12
SciTegic.value.DoubleValue
3.972

@<SCITEGIC>MOL_PROPERTY
Bond
SciTegic.value.DoubleValue
0.078

@<SCITEGIC>MOL_PROPERTY
Angle
SciTegic.value.DoubleValue
2.428

@<SCITEGIC>MOL_PROPERTY
Pdih
SciTegic.value.DoubleValue
3.616

@<SCITEGIC>MOL_PROPERTY
Idih
SciTegic.value.DoubleValue
0.002

@<SCITEGIC>MOL_PROPERTY
Tether
SciTegic.value.DoubleValue
0.000

@<TRIPOS>MOLECULE
guest-6_confgen4.mol2 : confsearch ligand conformer 5
          13          12           1
SMALL
USER_CHARGES
 
@<TRIPOS>ATOM
       1    C1      18.549107   17.760121   20.905885 C.2        1 MOL1         0.6021
       2    O1      18.586109   16.799191   21.649237 O.co2      1 MOL1        -0.6904
       3    O2      17.808535   17.825297   19.945623 O.co2      1 MOL1        -0.6904
       4    C2      19.465114   18.957855   21.164818 C.3        1 MOL1        -0.2102
       5    H1      18.825751   19.842109   21.272740 H          1 MOL1         0.0687
       6    H2      20.070413   19.108503   20.263011 H          1 MOL1         0.0687
       7    C3      20.392779   18.829830   22.401347 C.3        1 MOL1        -0.1974
       8    H3      19.784387   18.676020   23.303543 H          1 MOL1         0.0689
       9    H4      21.030534   17.941462   22.292609 H          1 MOL1         0.0689
      10    C4      21.276620   20.080422   22.582122 C.3        1 MOL1        -0.2987
      11    H5      20.661761   20.978930   22.724094 H          1 MOL1         0.0700
      12    H6      21.925407   19.971412   23.461012 H          1 MOL1         0.0700
      13    H7      21.917875   20.238493   21.705008 H          1 MOL1         0.0700
@<TRIPOS>BOND
    1     1     2    1
    2     1     3    2
    3     1     4    1
    4     4     5    1
    5     4     6    1
    6     4     7    1
    7     7     8    1
    8     7     9    1
    9     7    10    1
   10    10    11    1
   11    10    12    1
   12    10    13    1
@<TRIPOS>SUBSTRUCTURE
       1 MOL1            1 RESIDUE      1      MOL     
@<SCITEGIC>MOL_PROPERTY
VConf Rank
SciTegic.value.IntegerValue
5

@<SCITEGIC>MOL_PROPERTY
Conf_Id
SciTegic.value.IntegerValue
0

@<SCITEGIC>MOL_PROPERTY
Delta U+W
SciTegic.value.DoubleValue
0.000

@<SCITEGIC>MOL_PROPERTY
U+W
SciTegic.value.DoubleValue
-58.332

@<SCITEGIC>MOL_PROPERTY
Grad RMS
SciTegic.value.DoubleValue
0.000000

@<SCITEGIC>MOL_PROPERTY
U
SciTegic.value.DoubleValue
8.390

@<SCITEGIC>MOL_PROPERTY
W
SciTegic.value.DoubleValue
-66.722

@<SCITEGIC>MOL_PROPERTY
W(PB)
SciTegic.value.DoubleValue
-68.455

@<SCITEGIC>MOL_PROPERTY
W(SA)
SciTegic.value.DoubleValue
1.733

@<SCITEGIC>MOL_PROPERTY
Valence
SciTegic.value.DoubleValue
6.333

@<SCITEGIC>MOL_PROPERTY
Coulomb
SciTegic.value.DoubleValue
1.215

@<SCITEGIC>MOL_PROPERTY
VdW
SciTegic.value.DoubleValue
0.842

@<SCITEGIC>MOL_PROPERTY
VdW6
SciTegic.value.DoubleValue
-3.344

@<SCITEGIC>MOL_PROPERTY
VdW12
SciTegic.value.DoubleValue
4.186

@<SCITEGIC>MOL_PROPERTY
Bond
SciTegic.value.DoubleValue
0.091

@<SCITEGIC>MOL_PROPERTY
Angle
SciTegic.value.DoubleValue
2.713

@<SCITEGIC>MOL_PROPERTY
Pdih
SciTegic.value.DoubleValue
3.529

@<SCITEGIC>MOL_PROPERTY
Idih
SciTegic.value.DoubleValue
0.000

@<SCITEGIC>MOL_PROPERTY
Tether
SciTegic.value.DoubleValue
0.000

@<TRIPOS>MOLECULE
guest-6_confgen4.mol2 : confsearch ligand conformer 6
          13          12           1
SMALL
USER_CHARGES
 
@<TRIPOS>ATOM
       1    C1      19.037863   18.426504   20.049050 C.2        1 MOL1         0.6021
       2    O1      19.032057   19.234421   19.142077 O.co2      1 MOL1        -0.6904
       3    O2      18.219050   17.536210   20.159871 O.co2      1 MOL1        -0.6904
       4    C2      20.120289   18.547960   21.116337 C.3        1 MOL1        -0.2102
       5    H1      21.026867   18.940691   20.639999 H          1 MOL1         0.0687
       6    H2      20.356426   17.540238   21.479317 H          1 MOL1         0.0687
       7    C3      19.703770   19.455948   22.298673 C.3        1 MOL1        -0.1974
       8    H3      19.460190   20.459290   21.922116 H          1 MOL1         0.0689
       9    H4      18.789711   19.058506   22.761662 H          1 MOL1         0.0689
      10    C4      20.818336   19.558060   23.359147 C.3        1 MOL1        -0.2987
      11    H5      20.504761   20.205273   24.188633 H          1 MOL1         0.0700
      12    H6      21.058879   18.569737   23.772561 H          1 MOL1         0.0700
      13    H7      21.734476   19.981300   22.926580 H          1 MOL1         0.0700
@<TRIPOS>BOND
    1     1     2    1
    2     1     3    2
    3     1     4    1
    4     4     5    1
    5     4     6    1
    6     4     7    1
    7     7     8    1
    8     7     9    1
    9     7    10    1
   10    10    11    1
   11    10    12    1
   12    10    13    1
@<TRIPOS>SUBSTRUCTURE
       1 MOL1            1 RESIDUE      1      MOL     
@<SCITEGIC>MOL_PROPERTY
VConf Rank
SciTegic.value.IntegerValue
6

@<SCITEGIC>MOL_PROPERTY
Conf_Id
SciTegic.value.IntegerValue
1

@<SCITEGIC>MOL_PROPERTY
Delta U+W
SciTegic.value.DoubleValue
-1.339

@<SCITEGIC>MOL_PROPERTY
U+W
SciTegic.value.DoubleValue
-59.672

@<SCITEGIC>MOL_PROPERTY
Grad RMS
SciTegic.value.DoubleValue
0.000000

@<SCITEGIC>MOL_PROPERTY
U
SciTegic.value.DoubleValue
7.389

@<SCITEGIC>MOL_PROPERTY
W
SciTegic.value.DoubleValue
-67.061

@<SCITEGIC>MOL_PROPERTY
W(PB)
SciTegic.value.DoubleValue
-68.767

@<SCITEGIC>MOL_PROPERTY
W(SA)
SciTegic.value.DoubleValue
1.707

@<SCITEGIC>MOL_PROPERTY
Valence
SciTegic.value.DoubleValue
5.822

@<SCITEGIC>MOL_PROPERTY
Coulomb
SciTegic.value.DoubleValue
1.255

@<SCITEGIC>MOL_PROPERTY
VdW
SciTegic.value.DoubleValue
0.312

@<SCITEGIC>MOL_PROPERTY
VdW6
SciTegic.value.DoubleValue
-3.061

@<SCITEGIC>MOL_PROPERTY
VdW12
SciTegic.value.DoubleValue
3.372

@<SCITEGIC>MOL_PROPERTY
Bond
SciTegic.value.DoubleValue
0.059

@<SCITEGIC>MOL_PROPERTY
Angle
SciTegic.value.DoubleValue
2.241

@<SCITEGIC>MOL_PROPERTY
Pdih
SciTegic.value.DoubleValue
3.522

@<SCITEGIC>MOL_PROPERTY
Idih
SciTegic.value.DoubleValue
0.000

@<SCITEGIC>MOL_PROPERTY
Tether
SciTegic.value.DoubleValue
0.000

@<TRIPOS>MOLECULE
guest-6_confgen4.mol2 : confsearch ligand conformer 7
          13          12           1
SMALL
USER_CHARGES
 
@<TRIPOS>ATOM
       1    C1      19.155510   18.958412   23.503726 C.2        1 MOL1         0.6021
       2    O1      19.664041   18.411153   24.461850 O.co2      1 MOL1        -0.6904
       3    O2      18.515448   19.987987   23.582472 O.co2      1 MOL1        -0.6904
       4    C2      19.299662   18.296312   22.135672 C.3        1 MOL1        -0.2102
       5    H1      18.543099   18.715411   21.460946 H          1 MOL1         0.0687
       6    H2      19.059384   17.233644   22.259729 H          1 MOL1         0.0687
       7    C3      20.710494   18.436070   21.508489 C.3        1 MOL1        -0.1974
       8    H3      21.464352   18.051218   22.209566 H          1 MOL1         0.0689
       9    H4      20.767775   17.809285   20.608081 H          1 MOL1         0.0689
      10    C4      21.046686   19.893395   21.130193 C.3        1 MOL1        -0.2987
      11    H5      21.042211   20.542194   22.016120 H          1 MOL1         0.0700
      12    H6      22.042265   19.954211   20.671695 H          1 MOL1         0.0700
      13    H7      20.317257   20.290716   20.412237 H          1 MOL1         0.0700
@<TRIPOS>BOND
    1     1     2    1
    2     1     3    2
    3     1     4    1
    4     4     5    1
    5     4     6    1
    6     4     7    1
    7     7     8    1
    8     7     9    1
    9     7    10    1
   10    10    11    1
   11    10    12    1
   12    10    13    1
@<TRIPOS>SUBSTRUCTURE
       1 MOL1            1 RESIDUE      1      MOL     
@<SCITEGIC>MOL_PROPERTY
VConf Rank
SciTegic.value.IntegerValue
7

@<SCITEGIC>MOL_PROPERTY
Conf_Id
SciTegic.value.IntegerValue
4

@<SCITEGIC>MOL_PROPERTY
Delta U+W
SciTegic.value.DoubleValue
0.281

@<SCITEGIC>MOL_PROPERTY
U+W
SciTegic.value.DoubleValue
-58.051

@<SCITEGIC>MOL_PROPERTY
Grad RMS
SciTegic.value.DoubleValue
0.000000

@<SCITEGIC>MOL_PROPERTY
U
SciTegic.value.DoubleValue
9.781

@<SCITEGIC>MOL_PROPERTY
W
SciTegic.value.DoubleValue
-67.832

@<SCITEGIC>MOL_PROPERTY
W(PB)
SciTegic.value.DoubleValue
-69.535

@<SCITEGIC>MOL_PROPERTY
W(SA)
SciTegic.value.DoubleValue
1.703

@<SCITEGIC>MOL_PROPERTY
Valence
SciTegic.value.DoubleValue
6.123

@<SCITEGIC>MOL_PROPERTY
Coulomb
SciTegic.value.DoubleValue
3.449

@<SCITEGIC>MOL_PROPERTY
VdW
SciTegic.value.DoubleValue
0.209

@<SCITEGIC>MOL_PROPERTY
VdW6
SciTegic.value.DoubleValue
-3.762

@<SCITEGIC>MOL_PROPERTY
VdW12
SciTegic.value.DoubleValue
3.972

@<SCITEGIC>MOL_PROPERTY
Bond
SciTegic.value.DoubleValue
0.078

@<SCITEGIC>MOL_PROPERTY
Angle
SciTegic.value.DoubleValue
2.428

@<SCITEGIC>MOL_PROPERTY
Pdih
SciTegic.value.DoubleValue
3.616

@<SCITEGIC>MOL_PROPERTY
Idih
SciTegic.value.DoubleValue
0.002

@<SCITEGIC>MOL_PROPERTY
Tether
SciTegic.value.DoubleValue
0.000

@<TRIPOS>MOLECULE
guest-6_confgen4.mol2 : confsearch ligand conformer 8
          13          12           1
SMALL
USER_CHARGES
 
@<TRIPOS>ATOM
       1    C1      18.729647   18.126790   21.236095 C.2        1 MOL1         0.6021
       2    O1      17.716317   18.363524   21.863013 O.co2      1 MOL1        -0.6904
       3    O2      18.761453   18.033438   20.025157 O.co2      1 MOL1        -0.6904
       4    C2      20.025490   17.898818   22.010397 C.3        1 MOL1        -0.2102
       5    H1      20.486002   16.985372   21.615517 H          1 MOL1         0.0687
       6    H2      19.777248   17.700021   23.060226 H          1 MOL1         0.0687
       7    C3      21.037045   19.069585   21.913443 C.3        1 MOL1        -0.1974
       8    H3      21.988840   18.761369   22.367273 H          1 MOL1         0.0689
       9    H4      21.247005   19.287602   20.856889 H          1 MOL1         0.0689
      10    C4      20.532513   20.345640   22.618466 C.3        1 MOL1        -0.2987
      11    H5      20.337462   20.155339   23.682013 H          1 MOL1         0.0700
      12    H6      21.279160   21.147317   22.548264 H          1 MOL1         0.0700
      13    H7      19.602829   20.708361   22.160265 H          1 MOL1         0.0700
@<TRIPOS>BOND
    1     1     2    1
    2     1     3    2
    3     1     4    1
    4     4     5    1
    5     4     6    1
    6     4     7    1
    7     7     8    1
    8     7     9    1
    9     7    10    1
   10    10    11    1
   11    10    12    1
   12    10    13    1
@<TRIPOS>SUBSTRUCTURE
       1 MOL1            1 RESIDUE      1      MOL     
@<SCITEGIC>MOL_PROPERTY
VConf Rank
SciTegic.value.IntegerValue
8

@<SCITEGIC>MOL_PROPERTY
Conf_Id
SciTegic.value.IntegerValue
36

@<SCITEGIC>MOL_PROPERTY
Delta U+W
SciTegic.value.DoubleValue
0.272

@<SCITEGIC>MOL_PROPERTY
U+W
SciTegic.value.DoubleValue
-58.060

@<SCITEGIC>MOL_PROPERTY
Grad RMS
SciTegic.value.DoubleValue
0.000000

@<SCITEGIC>MOL_PROPERTY
U
SciTegic.value.DoubleValue
9.781

@<SCITEGIC>MOL_PROPERTY
W
SciTegic.value.DoubleValue
-67.841

@<SCITEGIC>MOL_PROPERTY
W(PB)
SciTegic.value.DoubleValue
-69.537

@<SCITEGIC>MOL_PROPERTY
W(SA)
SciTegic.value.DoubleValue
1.696

@<SCITEGIC>MOL_PROPERTY
Valence
SciTegic.value.DoubleValue
6.123

@<SCITEGIC>MOL_PROPERTY
Coulomb
SciTegic.value.DoubleValue
3.449

@<SCITEGIC>MOL_PROPERTY
VdW
SciTegic.value.DoubleValue
0.209

@<SCITEGIC>MOL_PROPERTY
VdW6
SciTegic.value.DoubleValue
-3.762

@<SCITEGIC>MOL_PROPERTY
VdW12
SciTegic.value.DoubleValue
3.972

@<SCITEGIC>MOL_PROPERTY
Bond
SciTegic.value.DoubleValue
0.078

@<SCITEGIC>MOL_PROPERTY
Angle
SciTegic.value.DoubleValue
2.428

@<SCITEGIC>MOL_PROPERTY
Pdih
SciTegic.value.DoubleValue
3.616

@<SCITEGIC>MOL_PROPERTY
Idih
SciTegic.value.DoubleValue
0.002

@<SCITEGIC>MOL_PROPERTY
Tether
SciTegic.value.DoubleValue
0.000

@<TRIPOS>MOLECULE
guest-6_confgen4.mol2 : confsearch ligand conformer 9
          13          12           1
SMALL
USER_CHARGES
 
@<TRIPOS>ATOM
       1    C1      21.763013   18.268754   22.812280 C.2        1 MOL1         0.6021
       2    O1      22.588239   18.413060   21.931651 O.co2      1 MOL1        -0.6904
       3    O2      22.034443   17.813178   23.904787 O.co2      1 MOL1        -0.6904
       4    C2      20.307545   18.669535   22.563947 C.3        1 MOL1        -0.2102
       5    H1      20.035024   19.405417   23.329812 H          1 MOL1         0.0687
       6    H2      19.688685   17.781377   22.738661 H          1 MOL1         0.0687
       7    C3      20.008167   19.246087   21.155431 C.3        1 MOL1        -0.1974
       8    H3      20.631439   20.134307   20.981213 H          1 MOL1         0.0689
       9    H4      20.284746   18.508294   20.389323 H          1 MOL1         0.0689
      10    C4      18.520654   19.620631   20.997774 C.3        1 MOL1        -0.2987
      11    H5      18.226793   20.380892   21.733418 H          1 MOL1         0.0700
      12    H6      18.328324   20.026289   19.995922 H          1 MOL1         0.0700
      13    H7      17.877321   18.741821   21.136831 H          1 MOL1         0.0700
@<TRIPOS>BOND
    1     1     2    1
    2     1     3    2
    3     1     4    1
    4     4     5    1
    5     4     6    1
    6     4     7    1
    7     7     8    1
    8     7     9    1
    9     7    10    1
   10    10    11    1
   11    10    12    1
   12    10    13    1
@<TRIPOS>SUBSTRUCTURE
       1 MOL1            1 RESIDUE      1      MOL     
@<SCITEGIC>MOL_PROPERTY
VConf Rank
SciTegic.value.IntegerValue
9

@<SCITEGIC>MOL_PROPERTY
Conf_Id
SciTegic.value.IntegerValue
0

@<SCITEGIC>MOL_PROPERTY
Delta U+W
SciTegic.value.DoubleValue
0.000

@<SCITEGIC>MOL_PROPERTY
U+W
SciTegic.value.DoubleValue
-58.332

@<SCITEGIC>MOL_PROPERTY
Grad RMS
SciTegic.value.DoubleValue
0.000000

@<SCITEGIC>MOL_PROPERTY
U
SciTegic.value.DoubleValue
8.390

@<SCITEGIC>MOL_PROPERTY
W
SciTegic.value.DoubleValue
-66.722

@<SCITEGIC>MOL_PROPERTY
W(PB)
SciTegic.value.DoubleValue
-68.455

@<SCITEGIC>MOL_PROPERTY
W(SA)
SciTegic.value.DoubleValue
1.733

@<SCITEGIC>MOL_PROPERTY
Valence
SciTegic.value.DoubleValue
6.333

@<SCITEGIC>MOL_PROPERTY
Coulomb
SciTegic.value.DoubleValue
1.215

@<SCITEGIC>MOL_PROPERTY
VdW
SciTegic.value.DoubleValue
0.842

@<SCITEGIC>MOL_PROPERTY
VdW6
SciTegic.value.DoubleValue
-3.344

@<SCITEGIC>MOL_PROPERTY
VdW12
SciTegic.value.DoubleValue
4.186

@<SCITEGIC>MOL_PROPERTY
Bond
SciTegic.value.DoubleValue
0.091

@<SCITEGIC>MOL_PROPERTY
Angle
SciTegic.value.DoubleValue
2.713

@<SCITEGIC>MOL_PROPERTY
Pdih
SciTegic.value.DoubleValue
3.529

@<SCITEGIC>MOL_PROPERTY
Idih
SciTegic.value.DoubleValue
0.000

@<SCITEGIC>MOL_PROPERTY
Tether
SciTegic.value.DoubleValue
0.000

@<TRIPOS>MOLECULE
guest-6_confgen4.mol2 : confsearch ligand conformer 10
          13          12           1
SMALL
USER_CHARGES
 
@<TRIPOS>ATOM
       1    C1      21.392304   20.614975   21.730869 C.2        1 MOL1         0.6021
       2    O1      21.130401   21.605628   22.383077 O.co2      1 MOL1        -0.6904
       3    O2      22.112384   20.626569   20.752753 O.co2      1 MOL1        -0.6904
       4    C2      20.768400   19.288615   22.151595 C.3        1 MOL1        -0.2102
       5    H1      20.661310   19.292727   23.243169 H          1 MOL1         0.0687
       6    H2      21.471125   18.485339   21.898723 H          1 MOL1         0.0687
       7    C3      19.397222   19.026853   21.482866 C.3        1 MOL1        -0.1974
       8    H3      18.704928   19.842352   21.734882 H          1 MOL1         0.0689
       9    H4      19.514921   19.034684   20.390204 H          1 MOL1         0.0689
      10    C4      18.793627   17.679823   21.928370 C.3        1 MOL1        -0.2987
      11    H5      17.822688   17.512135   21.444201 H          1 MOL1         0.0700
      12    H6      19.454802   16.845274   21.660169 H          1 MOL1         0.0700
      13    H7      18.638564   17.659162   23.015147 H          1 MOL1         0.0700
@<TRIPOS>BOND
    1     1     2    1
    2     1     3    2
    3     1     4    1
    4     4     5    1
    5     4     6    1
    6     4     7    1
    7     7     8    1
    8     7     9    1
    9     7    10    1
   10    10    11    1
   11    10    12    1
   12    10    13    1
@<TRIPOS>SUBSTRUCTURE
       1 MOL1            1 RESIDUE      1      MOL     
@<SCITEGIC>MOL_PROPERTY
VConf Rank
SciTegic.value.IntegerValue
10

@<SCITEGIC>MOL_PROPERTY
Conf_Id
SciTegic.value.IntegerValue
1

@<SCITEGIC>MOL_PROPERTY
Delta U+W
SciTegic.value.DoubleValue
-1.339

@<SCITEGIC>MOL_PROPERTY
U+W
SciTegic.value.DoubleValue
-59.672

@<SCITEGIC>MOL_PROPERTY
Grad RMS
SciTegic.value.DoubleValue
0.000000

@<SCITEGIC>MOL_PROPERTY
U
SciTegic.value.DoubleValue
7.389

@<SCITEGIC>MOL_PROPERTY
W
SciTegic.value.DoubleValue
-67.061

@<SCITEGIC>MOL_PROPERTY
W(PB)
SciTegic.value.DoubleValue
-68.767

@<SCITEGIC>MOL_PROPERTY
W(SA)
SciTegic.value.DoubleValue
1.707

@<SCITEGIC>MOL_PROPERTY
Valence
SciTegic.value.DoubleValue
5.822

@<SCITEGIC>MOL_PROPERTY
Coulomb
SciTegic.value.DoubleValue
1.255

@<SCITEGIC>MOL_PROPERTY
VdW
SciTegic.value.DoubleValue
0.312

@<SCITEGIC>MOL_PROPERTY
VdW6
SciTegic.value.DoubleValue
-3.061

@<SCITEGIC>MOL_PROPERTY
VdW12
SciTegic.value.DoubleValue
3.372

@<SCITEGIC>MOL_PROPERTY
Bond
SciTegic.value.DoubleValue
0.059

@<SCITEGIC>MOL_PROPERTY
Angle
SciTegic.value.DoubleValue
2.241

@<SCITEGIC>MOL_PROPERTY
Pdih
SciTegic.value.DoubleValue
3.522

@<SCITEGIC>MOL_PROPERTY
Idih
SciTegic.value.DoubleValue
0.000

@<SCITEGIC>MOL_PROPERTY
Tether
SciTegic.value.DoubleValue
0.000

@<TRIPOS>MOLECULE
guest-6_confgen4.mol2 : confsearch ligand conformer 11
          13          12           1
SMALL
USER_CHARGES
 
@<TRIPOS>ATOM
       1    C1      18.423856   19.528990   21.965881 C.2        1 MOL1         0.6021
       2    O1      17.575519   18.659343   21.954156 O.co2      1 MOL1        -0.6904
       3    O2      18.321781   20.555331   22.607839 O.co2      1 MOL1        -0.6904
       4    C2      19.665903   19.335351   21.099538 C.3        1 MOL1        -0.2102
       5    H1      20.157497   20.307090   20.967836 H          1 MOL1         0.0687
       6    H2      19.325906   19.015493   20.107328 H          1 MOL1         0.0687
       7    C3      20.673930   18.298441   21.658142 C.3        1 MOL1        -0.1974
       8    H3      20.161576   17.340578   21.825215 H          1 MOL1         0.0689
       9    H4      21.453016   18.112674   20.906219 H          1 MOL1         0.0689
      10    C4      21.339684   18.768614   22.967966 C.3        1 MOL1        -0.2987
      11    H5      20.592242   18.921931   23.757683 H          1 MOL1         0.0700
      12    H6      22.060596   18.021797   23.325240 H          1 MOL1         0.0700
      13    H7      21.876677   19.714374   22.817734 H          1 MOL1         0.0700
@<TRIPOS>BOND
    1     1     2    1
    2     1     3    2
    3     1     4    1
    4     4     5    1
    5     4     6    1
    6     4     7    1
    7     7     8    1
    8     7     9    1
    9     7    10    1
   10    10    11    1
   11    10    12    1
   12    10    13    1
@<TRIPOS>SUBSTRUCTURE
       1 MOL1            1 RESIDUE      1      MOL     
@<SCITEGIC>MOL_PROPERTY
VConf Rank
SciTegic.value.IntegerValue
11

@<SCITEGIC>MOL_PROPERTY
Conf_Id
SciTegic.value.IntegerValue
4

@<SCITEGIC>MOL_PROPERTY
Delta U+W
SciTegic.value.DoubleValue
0.281

@<SCITEGIC>MOL_PROPERTY
U+W
SciTegic.value.DoubleValue
-58.051

@<SCITEGIC>MOL_PROPERTY
Grad RMS
SciTegic.value.DoubleValue
0.000000

@<SCITEGIC>MOL_PROPERTY
U
SciTegic.value.DoubleValue
9.781

@<SCITEGIC>MOL_PROPERTY
W
SciTegic.value.DoubleValue
-67.832

@<SCITEGIC>MOL_PROPERTY
W(PB)
SciTegic.value.DoubleValue
-69.535

@<SCITEGIC>MOL_PROPERTY
W(SA)
SciTegic.value.DoubleValue
1.703

@<SCITEGIC>MOL_PROPERTY
Valence
SciTegic.value.DoubleValue
6.123

@<SCITEGIC>MOL_PROPERTY
Coulomb
SciTegic.value.DoubleValue
3.449

@<SCITEGIC>MOL_PROPERTY
VdW
SciTegic.value.DoubleValue
0.209

@<SCITEGIC>MOL_PROPERTY
VdW6
SciTegic.value.DoubleValue
-3.762

@<SCITEGIC>MOL_PROPERTY
VdW12
SciTegic.value.DoubleValue
3.972

@<SCITEGIC>MOL_PROPERTY
Bond
SciTegic.value.DoubleValue
0.078

@<SCITEGIC>MOL_PROPERTY
Angle
SciTegic.value.DoubleValue
2.428

@<SCITEGIC>MOL_PROPERTY
Pdih
SciTegic.value.DoubleValue
3.616

@<SCITEGIC>MOL_PROPERTY
Idih
SciTegic.value.DoubleValue
0.002

@<SCITEGIC>MOL_PROPERTY
Tether
SciTegic.value.DoubleValue
0.000

@<TRIPOS>MOLECULE
guest-6_confgen4.mol2 : confsearch ligand conformer 12
          13          12           1
SMALL
USER_CHARGES
 
@<TRIPOS>ATOM
       1    C1      20.555568   18.262997   20.408768 C.2        1 MOL1         0.6021
       2    O1      19.703002   18.542367   19.589629 O.co2      1 MOL1        -0.6904
       3    O2      21.742554   18.222827   20.152745 O.co2      1 MOL1        -0.6904
       4    C2      20.111961   17.908511   21.825905 C.3        1 MOL1        -0.2102
       5    H1      20.628653   16.983568   22.108563 H          1 MOL1         0.0687
       6    H2      19.039117   17.680287   21.811580 H          1 MOL1         0.0687
       7    C3      20.409978   19.007629   22.877791 C.3        1 MOL1        -0.1974
       8    H3      20.199725   18.612220   23.880945 H          1 MOL1         0.0689
       9    H4      21.479885   19.258031   22.854973 H          1 MOL1         0.0689
      10    C4      19.571505   20.282901   22.652912 C.3        1 MOL1        -0.2987
      11    H5      18.497516   20.058738   22.694010 H          1 MOL1         0.0700
      12    H6      19.791887   21.031853   23.424662 H          1 MOL1         0.0700
      13    H7      19.789660   20.731248   21.674536 H          1 MOL1         0.0700
@<TRIPOS>BOND
    1     1     2    1
    2     1     3    2
    3     1     4    1
    4     4     5    1
    5     4     6    1
    6     4     7    1
    7     7     8    1
    8     7     9    1
    9     7    10    1
   10    10    11    1
   11    10    12    1
   12    10    13    1
@<TRIPOS>SUBSTRUCTURE
       1 MOL1            1 RESIDUE      1      MOL     
@<SCITEGIC>MOL_PROPERTY
VConf Rank
SciTegic.value.IntegerValue
12

@<SCITEGIC>MOL_PROPERTY
Conf_Id
SciTegic.value.IntegerValue
36

@<SCITEGIC>MOL_PROPERTY
Delta U+W
SciTegic.value.DoubleValue
0.272

@<SCITEGIC>MOL_PROPERTY
U+W
SciTegic.value.DoubleValue
-58.060

@<SCITEGIC>MOL_PROPERTY
Grad RMS
SciTegic.value.DoubleValue
0.000000

@<SCITEGIC>MOL_PROPERTY
U
SciTegic.value.DoubleValue
9.781

@<SCITEGIC>MOL_PROPERTY
W
SciTegic.value.DoubleValue
-67.841

@<SCITEGIC>MOL_PROPERTY
W(PB)
SciTegic.value.DoubleValue
-69.537

@<SCITEGIC>MOL_PROPERTY
W(SA)
SciTegic.value.DoubleValue
1.696

@<SCITEGIC>MOL_PROPERTY
Valence
SciTegic.value.DoubleValue
6.123

@<SCITEGIC>MOL_PROPERTY
Coulomb
SciTegic.value.DoubleValue
3.449

@<SCITEGIC>MOL_PROPERTY
VdW
SciTegic.value.DoubleValue
0.209

@<SCITEGIC>MOL_PROPERTY
VdW6
SciTegic.value.DoubleValue
-3.762

@<SCITEGIC>MOL_PROPERTY
VdW12
SciTegic.value.DoubleValue
3.972

@<SCITEGIC>MOL_PROPERTY
Bond
SciTegic.value.DoubleValue
0.078

@<SCITEGIC>MOL_PROPERTY
Angle
SciTegic.value.DoubleValue
2.428

@<SCITEGIC>MOL_PROPERTY
Pdih
SciTegic.value.DoubleValue
3.616

@<SCITEGIC>MOL_PROPERTY
Idih
SciTegic.value.DoubleValue
0.002

@<SCITEGIC>MOL_PROPERTY
Tether
SciTegic.value.DoubleValue
0.000

@<TRIPOS>MOLECULE
guest-6_confgen4.mol2 : confsearch ligand conformer 13
          13          12           1
SMALL
USER_CHARGES
 
@<TRIPOS>ATOM
       1    C1      18.890701   17.396634   22.653410 C.2        1 MOL1         0.6021
       2    O1      19.788416   16.710273   23.101009 O.co2      1 MOL1        -0.6904
       3    O2      17.718090   17.094760   22.746422 O.co2      1 MOL1        -0.6904
       4    C2      19.220525   18.706165   21.934364 C.3        1 MOL1        -0.2102
       5    H1      18.690512   19.510334   22.458516 H          1 MOL1         0.0687
       6    H2      18.792084   18.643790   20.926949 H          1 MOL1         0.0687
       7    C3      20.730014   19.050327   21.839754 C.3        1 MOL1        -0.1974
       8    H3      21.158063   19.109494   22.850214 H          1 MOL1         0.0689
       9    H4      21.259780   18.241842   21.316825 H          1 MOL1         0.0689
      10    C4      20.964974   20.383351   21.101055 C.3        1 MOL1        -0.2987
      11    H5      20.470527   21.213758   21.622083 H          1 MOL1         0.0700
      12    H6      22.037700   20.609773   21.044056 H          1 MOL1         0.0700
      13    H7      20.573006   20.339144   20.076395 H          1 MOL1         0.0700
@<TRIPOS>BOND
    1     1     2    1
    2     1     3    2
    3     1     4    1
    4     4     5    1
    5     4     6    1
    6     4     7    1
    7     7     8    1
    8     7     9    1
    9     7    10    1
   10    10    11    1
   11    10    12    1
   12    10    13    1
@<TRIPOS>SUBSTRUCTURE
       1 MOL1            1 RESIDUE      1      MOL     
@<SCITEGIC>MOL_PROPERTY
VConf Rank
SciTegic.value.IntegerValue
13

@<SCITEGIC>MOL_PROPERTY
Conf_Id
SciTegic.value.IntegerValue
0

@<SCITEGIC>MOL_PROPERTY
Delta U+W
SciTegic.value.DoubleValue
0.000

@<SCITEGIC>MOL_PROPERTY
U+W
SciTegic.value.DoubleValue
-58.332

@<SCITEGIC>MOL_PROPERTY
Grad RMS
SciTegic.value.DoubleValue
0.000000

@<SCITEGIC>MOL_PROPERTY
U
SciTegic.value.DoubleValue
8.390

@<SCITEGIC>MOL_PROPERTY
W
SciTegic.value.DoubleValue
-66.722

@<SCITEGIC>MOL_PROPERTY
W(PB)
SciTegic.value.DoubleValue
-68.455

@<SCITEGIC>MOL_PROPERTY
W(SA)
SciTegic.value.DoubleValue
1.733

@<SCITEGIC>MOL_PROPERTY
Valence
SciTegic.value.DoubleValue
6.333

@<SCITEGIC>MOL_PROPERTY
Coulomb
SciTegic.value.DoubleValue
1.215

@<SCITEGIC>MOL_PROPERTY
VdW
SciTegic.value.DoubleValue
0.842

@<SCITEGIC>MOL_PROPERTY
VdW6
SciTegic.value.DoubleValue
-3.344

@<SCITEGIC>MOL_PROPERTY
VdW12
SciTegic.value.DoubleValue
4.186

@<SCITEGIC>MOL_PROPERTY
Bond
SciTegic.value.DoubleValue
0.091

@<SCITEGIC>MOL_PROPERTY
Angle
SciTegic.value.DoubleValue
2.713

@<SCITEGIC>MOL_PROPERTY
Pdih
SciTegic.value.DoubleValue
3.529

@<SCITEGIC>MOL_PROPERTY
Idih
SciTegic.value.DoubleValue
0.000

@<SCITEGIC>MOL_PROPERTY
Tether
SciTegic.value.DoubleValue
0.000

@<TRIPOS>MOLECULE
guest-6_confgen4.mol2 : confsearch ligand conformer 14
          13          12           1
SMALL
USER_CHARGES
 
@<TRIPOS>ATOM
       1    C1      19.126918   18.990102   19.904867 C.2        1 MOL1         0.6021
       2    O1      18.451880   18.013770   19.647066 O.co2      1 MOL1        -0.6904
       3    O2      19.669523   19.672961   19.059501 O.co2      1 MOL1        -0.6904
       4    C2      19.319009   19.367888   21.369748 C.3        1 MOL1        -0.2102
       5    H1      18.409168   19.090635   21.915954 H          1 MOL1         0.0687
       6    H2      19.413289   20.458909   21.431411 H          1 MOL1         0.0687
       7    C3      20.553270   18.689489   22.011794 C.3        1 MOL1        -0.1974
       8    H3      20.452556   17.597774   21.935399 H          1 MOL1         0.0689
       9    H4      21.456863   18.966405   21.450849 H          1 MOL1         0.0689
      10    C4      20.719451   19.091255   23.491070 C.3        1 MOL1        -0.2987
      11    H5      21.598870   18.600837   23.928532 H          1 MOL1         0.0700
      12    H6      20.851935   20.176640   23.590786 H          1 MOL1         0.0700
      13    H7      19.839944   18.797473   24.079046 H          1 MOL1         0.0700
@<TRIPOS>BOND
    1     1     2    1
    2     1     3    2
    3     1     4    1
    4     4     5    1
    5     4     6    1
    6     4     7    1
    7     7     8    1
    8     7     9    1
    9     7    10    1
   10    10    11    1
   11    10    12    1
   12    10    13    1
@<TRIPOS>SUBSTRUCTURE
       1 MOL1            1 RESIDUE      1      MOL     
@<SCITEGIC>MOL_PROPERTY
VConf Rank
SciTegic.value.IntegerValue
14

@<SCITEGIC>MOL_PROPERTY
Conf_Id
SciTegic.value.IntegerValue
1

@<SCITEGIC>MOL_PROPERTY
Delta U+W
SciTegic.value.DoubleValue
-1.339

@<SCITEGIC>MOL_PROPERTY
U+W
SciTegic.value.DoubleValue
-59.672

@<SCITEGIC>MOL_PROPERTY
Grad RMS
SciTegic.value.DoubleValue
0.000000

@<SCITEGIC>MOL_PROPERTY
U
SciTegic.value.DoubleValue
7.389

@<SCITEGIC>MOL_PROPERTY
W
SciTegic.value.DoubleValue
-67.061

@<SCITEGIC>MOL_PROPERTY
W(PB)
SciTegic.value.DoubleValue
-68.767

@<SCITEGIC>MOL_PROPERTY
W(SA)
SciTegic.value.DoubleValue
1.707

@<SCITEGIC>MOL_PROPERTY
Valence
SciTegic.value.DoubleValue
5.822

@<SCITEGIC>MOL_PROPERTY
Coulomb
SciTegic.value.DoubleValue
1.255

@<SCITEGIC>MOL_PROPERTY
VdW
SciTegic.value.DoubleValue
0.312

@<SCITEGIC>MOL_PROPERTY
VdW6
SciTegic.value.DoubleValue
-3.061

@<SCITEGIC>MOL_PROPERTY
VdW12
SciTegic.value.DoubleValue
3.372

@<SCITEGIC>MOL_PROPERTY
Bond
SciTegic.value.DoubleValue
0.059

@<SCITEGIC>MOL_PROPERTY
Angle
SciTegic.value.DoubleValue
2.241

@<SCITEGIC>MOL_PROPERTY
Pdih
SciTegic.value.DoubleValue
3.522

@<SCITEGIC>MOL_PROPERTY
Idih
SciTegic.value.DoubleValue
0.000

@<SCITEGIC>MOL_PROPERTY
Tether
SciTegic.value.DoubleValue
0.000

@<TRIPOS>MOLECULE
guest-6_confgen4.mol2 : confsearch ligand conformer 15
          13          12           1
SMALL
USER_CHARGES
 
@<TRIPOS>ATOM
       1    C1      18.761170   19.778107   22.829614 C.2        1 MOL1         0.6021
       2    O1      19.057221   20.694449   23.570404 O.co2      1 MOL1        -0.6904
       3    O2      17.790154   19.794146   22.099699 O.co2      1 MOL1        -0.6904
       4    C2      19.636837   18.527630   22.845144 C.3        1 MOL1        -0.2102
       5    H1      19.077792   17.701435   22.388900 H          1 MOL1         0.0687
       6    H2      19.801603   18.256807   23.894855 H          1 MOL1         0.0687
       7    C3      21.004785   18.701968   22.136862 C.3        1 MOL1        -0.1974
       8    H3      21.538665   19.557574   22.573706 H          1 MOL1         0.0689
       9    H4      21.623561   17.814081   22.325661 H          1 MOL1         0.0689
      10    C4      20.859972   18.900649   20.613876 C.3        1 MOL1        -0.2987
      11    H5      20.282608   19.806793   20.387202 H          1 MOL1         0.0700
      12    H6      21.845762   19.000921   20.141373 H          1 MOL1         0.0700
      13    H7      20.348053   18.045449   20.153480 H          1 MOL1         0.0700
@<TRIPOS>BOND
    1     1     2    1
    2     1     3    2
    3     1     4    1
    4     4     5    1
    5     4     6    1
    6     4     7    1
    7     7     8    1
    8     7     9    1
    9     7    10    1
   10    10    11    1
   11    10    12    1
   12    10    13    1
@<TRIPOS>SUBSTRUCTURE
       1 MOL1            1 RESIDUE      1      MOL     
@<SCITEGIC>MOL_PROPERTY
VConf Rank
SciTegic.value.IntegerValue
15

@<SCITEGIC>MOL_PROPERTY
Conf_Id
SciTegic.value.IntegerValue
4

@<SCITEGIC>MOL_PROPERTY
Delta U+W
SciTegic.value.DoubleValue
0.281

@<SCITEGIC>MOL_PROPERTY
U+W
SciTegic.value.DoubleValue
-58.051

@<SCITEGIC>MOL_PROPERTY
Grad RMS
SciTegic.value.DoubleValue
0.000000

@<SCITEGIC>MOL_PROPERTY
U
SciTegic.value.DoubleValue
9.781

@<SCITEGIC>MOL_PROPERTY
W
SciTegic.value.DoubleValue
-67.832

@<SCITEGIC>MOL_PROPERTY
W(PB)
SciTegic.value.DoubleValue
-69.535

@<SCITEGIC>MOL_PROPERTY
W(SA)
SciTegic.value.DoubleValue
1.703

@<SCITEGIC>MOL_PROPERTY
Valence
SciTegic.value.DoubleValue
6.123

@<SCITEGIC>MOL_PROPERTY
Coulomb
SciTegic.value.DoubleValue
3.449

@<SCITEGIC>MOL_PROPERTY
VdW
SciTegic.value.DoubleValue
0.209

@<SCITEGIC>MOL_PROPERTY
VdW6
SciTegic.value.DoubleValue
-3.762

@<SCITEGIC>MOL_PROPERTY
VdW12
SciTegic.value.DoubleValue
3.972

@<SCITEGIC>MOL_PROPERTY
Bond
SciTegic.value.DoubleValue
0.078

@<SCITEGIC>MOL_PROPERTY
Angle
SciTegic.value.DoubleValue
2.428

@<SCITEGIC>MOL_PROPERTY
Pdih
SciTegic.value.DoubleValue
3.616

@<SCITEGIC>MOL_PROPERTY
Idih
SciTegic.value.DoubleValue
0.002

@<SCITEGIC>MOL_PROPERTY
Tether
SciTegic.value.DoubleValue
0.000

@<TRIPOS>MOLECULE
guest-6_confgen4.mol2 : confsearch ligand conformer 16
          13          12           1
SMALL
USER_CHARGES
 
@<TRIPOS>ATOM
       1    C1      19.827262   19.606253   20.347635 C.2        1 MOL1         0.6021
       2    O1      20.889147   19.877190   19.823329 O.co2      1 MOL1        -0.6904
       3    O2      18.887483   19.124543   19.746912 O.co2      1 MOL1        -0.6904
       4    C2      19.649541   19.919602   21.831196 C.3        1 MOL1        -0.2102
       5    H1      18.693854   20.445670   21.942110 H          1 MOL1         0.0687
       6    H2      20.434774   20.621111   22.138737 H          1 MOL1         0.0687
       7    C3      19.660045   18.670503   22.749335 C.3        1 MOL1        -0.1974
       8    H3      19.377427   18.970061   23.767797 H          1 MOL1         0.0689
       9    H4      18.897876   17.956323   22.407332 H          1 MOL1         0.0689
      10    C4      21.039123   17.980365   22.791495 C.3        1 MOL1        -0.2987
      11    H5      21.812664   18.670924   23.152263 H          1 MOL1         0.0700
      12    H6      21.017367   17.113269   23.464375 H          1 MOL1         0.0700
      13    H7      21.334448   17.627360   21.794501 H          1 MOL1         0.0700
@<TRIPOS>BOND
    1     1     2    1
    2     1     3    2
    3     1     4    1
    4     4     5    1
    5     4     6    1
    6     4     7    1
    7     7     8    1
    8     7     9    1
    9     7    10    1
   10    10    11    1
   11    10    12    1
   12    10    13    1
@<TRIPOS>SUBSTRUCTURE
       1 MOL1            1 RESIDUE      1      MOL     
@<SCITEGIC>MOL_PROPERTY
VConf Rank
SciTegic.value.IntegerValue
16

@<SCITEGIC>MOL_PROPERTY
Conf_Id
SciTegic.value.IntegerValue
36

@<SCITEGIC>MOL_PROPERTY
Delta U+W
SciTegic.value.DoubleValue
0.272

@<SCITEGIC>MOL_PROPERTY
U+W
SciTegic.value.DoubleValue
-58.060

@<SCITEGIC>MOL_PROPERTY
Grad RMS
SciTegic.value.DoubleValue
0.000000

@<SCITEGIC>MOL_PROPERTY
U
SciTegic.value.DoubleValue
9.781

@<SCITEGIC>MOL_PROPERTY
W
SciTegic.value.DoubleValue
-67.841

@<SCITEGIC>MOL_PROPERTY
W(PB)
SciTegic.value.DoubleValue
-69.537

@<SCITEGIC>MOL_PROPERTY
W(SA)
SciTegic.value.DoubleValue
1.696

@<SCITEGIC>MOL_PROPERTY
Valence
SciTegic.value.DoubleValue
6.123

@<SCITEGIC>MOL_PROPERTY
Coulomb
SciTegic.value.DoubleValue
3.449

@<SCITEGIC>MOL_PROPERTY
VdW
SciTegic.value.DoubleValue
0.209

@<SCITEGIC>MOL_PROPERTY
VdW6
SciTegic.value.DoubleValue
-3.762

@<SCITEGIC>MOL_PROPERTY
VdW12
SciTegic.value.DoubleValue
3.972

@<SCITEGIC>MOL_PROPERTY
Bond
SciTegic.value.DoubleValue
0.078

@<SCITEGIC>MOL_PROPERTY
Angle
SciTegic.value.DoubleValue
2.428

@<SCITEGIC>MOL_PROPERTY
Pdih
SciTegic.value.DoubleValue
3.616

@<SCITEGIC>MOL_PROPERTY
Idih
SciTegic.value.DoubleValue
0.002

@<SCITEGIC>MOL_PROPERTY
Tether
SciTegic.value.DoubleValue
0.000

@<TRIPOS>MOLECULE
guest-6_confgen4.mol2 : confsearch ligand conformer 17
          13          12           1
SMALL
USER_CHARGES
 
@<TRIPOS>ATOM
       1    C1      18.834104   18.964568   20.050630 C.2        1 MOL1         0.6021
       2    O1      19.475963   18.182340   19.377231 O.co2      1 MOL1        -0.6904
       3    O2      17.811788   19.490332   19.659175 O.co2      1 MOL1        -0.6904
       4    C2      19.309777   19.323864   21.459645 C.3        1 MOL1        -0.2102
       5    H1      18.497849   19.074561   22.153158 H          1 MOL1         0.0687
       6    H2      19.437942   20.412296   21.494671 H          1 MOL1         0.0687
       7    C3      20.618976   18.628666   21.916431 C.3        1 MOL1        -0.1974
       8    H3      20.489380   17.538038   21.877821 H          1 MOL1         0.0689
       9    H4      21.430621   18.877358   21.218478 H          1 MOL1         0.0689
      10    C4      21.019336   19.050398   23.344608 C.3        1 MOL1        -0.2987
      11    H5      20.236478   18.784134   24.066936 H          1 MOL1         0.0700
      12    H6      21.946955   18.548865   23.649969 H          1 MOL1         0.0700
      13    H7      21.185222   20.134223   23.402298 H          1 MOL1         0.0700
@<TRIPOS>BOND
    1     1     2    1
    2     1     3    2
    3     1     4    1
    4     4     5    1
    5     4     6    1
    6     4     7    1
    7     7     8    1
    8     7     9    1
    9     7    10    1
   10    10    11    1
   11    10    12    1
   12    10    13    1
@<TRIPOS>SUBSTRUCTURE
       1 MOL1            1 RESIDUE      1      MOL     
@<SCITEGIC>MOL_PROPERTY
VConf Rank
SciTegic.value.IntegerValue
17

@<SCITEGIC>MOL_PROPERTY
Conf_Id
SciTegic.value.IntegerValue
0

@<SCITEGIC>MOL_PROPERTY
Delta U+W
SciTegic.value.DoubleValue
0.000

@<SCITEGIC>MOL_PROPERTY
U+W
SciTegic.value.DoubleValue
-58.332

@<SCITEGIC>MOL_PROPERTY
Grad RMS
SciTegic.value.DoubleValue
0.000000

@<SCITEGIC>MOL_PROPERTY
U
SciTegic.value.DoubleValue
8.390

@<SCITEGIC>MOL_PROPERTY
W
SciTegic.value.DoubleValue
-66.722

@<SCITEGIC>MOL_PROPERTY
W(PB)
SciTegic.value.DoubleValue
-68.455

@<SCITEGIC>MOL_PROPERTY
W(SA)
SciTegic.value.DoubleValue
1.733

@<SCITEGIC>MOL_PROPERTY
Valence
SciTegic.value.DoubleValue
6.333

@<SCITEGIC>MOL_PROPERTY
Coulomb
SciTegic.value.DoubleValue
1.215

@<SCITEGIC>MOL_PROPERTY
VdW
SciTegic.value.DoubleValue
0.842

@<SCITEGIC>MOL_PROPERTY
VdW6
SciTegic.value.DoubleValue
-3.344

@<SCITEGIC>MOL_PROPERTY
VdW12
SciTegic.value.DoubleValue
4.186

@<SCITEGIC>MOL_PROPERTY
Bond
SciTegic.value.DoubleValue
0.091

@<SCITEGIC>MOL_PROPERTY
Angle
SciTegic.value.DoubleValue
2.713

@<SCITEGIC>MOL_PROPERTY
Pdih
SciTegic.value.DoubleValue
3.529

@<SCITEGIC>MOL_PROPERTY
Idih
SciTegic.value.DoubleValue
0.000

@<SCITEGIC>MOL_PROPERTY
Tether
SciTegic.value.DoubleValue
0.000

@<TRIPOS>MOLECULE
guest-6_confgen4.mol2 : confsearch ligand conformer 18
          13          12           1
SMALL
USER_CHARGES
 
@<TRIPOS>ATOM
       1    C1      18.807994   17.456244   22.578709 C.2        1 MOL1         0.6021
       2    O1      19.151924   16.991355   23.646862 O.co2      1 MOL1        -0.6904
       3    O2      18.158972   16.840898   21.756833 O.co2      1 MOL1        -0.6904
       4    C2      19.229802   18.882861   22.243538 C.3        1 MOL1        -0.2102
       5    H1      19.266863   19.456321   23.177770 H          1 MOL1         0.0687
       6    H2      18.448001   19.332250   21.619154 H          1 MOL1         0.0687
       7    C3      20.596216   18.954658   21.519932 C.3        1 MOL1        -0.1974
       8    H3      21.369304   18.493013   22.150044 H          1 MOL1         0.0689
       9    H4      20.550246   18.369033   20.591087 H          1 MOL1         0.0689
      10    C4      20.993712   20.408622   21.195472 C.3        1 MOL1        -0.2987
      11    H5      21.964206   20.439048   20.683145 H          1 MOL1         0.0700
      12    H6      20.250030   20.882463   20.541281 H          1 MOL1         0.0700
      13    H7      21.075406   21.007370   22.112196 H          1 MOL1         0.0700
@<TRIPOS>BOND
    1     1     2    1
    2     1     3    2
    3     1     4    1
    4     4     5    1
    5     4     6    1
    6     4     7    1
    7     7     8    1
    8     7     9    1
    9     7    10    1
   10    10    11    1
   11    10    12    1
   12    10    13    1
@<TRIPOS>SUBSTRUCTURE
       1 MOL1            1 RESIDUE      1      MOL     
@<SCITEGIC>MOL_PROPERTY
VConf Rank
SciTegic.value.IntegerValue
18

@<SCITEGIC>MOL_PROPERTY
Conf_Id
SciTegic.value.IntegerValue
1

@<SCITEGIC>MOL_PROPERTY
Delta U+W
SciTegic.value.DoubleValue
-1.339

@<SCITEGIC>MOL_PROPERTY
U+W
SciTegic.value.DoubleValue
-59.672

@<SCITEGIC>MOL_PROPERTY
Grad RMS
SciTegic.value.DoubleValue
0.000000

@<SCITEGIC>MOL_PROPERTY
U
SciTegic.value.DoubleValue
7.389

@<SCITEGIC>MOL_PROPERTY
W
SciTegic.value.DoubleValue
-67.061

@<SCITEGIC>MOL_PROPERTY
W(PB)
SciTegic.value.DoubleValue
-68.767

@<SCITEGIC>MOL_PROPERTY
W(SA)
SciTegic.value.DoubleValue
1.707

@<SCITEGIC>MOL_PROPERTY
Valence
SciTegic.value.DoubleValue
5.822

@<SCITEGIC>MOL_PROPERTY
Coulomb
SciTegic.value.DoubleValue
1.255

@<SCITEGIC>MOL_PROPERTY
VdW
SciTegic.value.DoubleValue
0.312

@<SCITEGIC>MOL_PROPERTY
VdW6
SciTegic.value.DoubleValue
-3.061

@<SCITEGIC>MOL_PROPERTY
VdW12
SciTegic.value.DoubleValue
3.372

@<SCITEGIC>MOL_PROPERTY
Bond
SciTegic.value.DoubleValue
0.059

@<SCITEGIC>MOL_PROPERTY
Angle
SciTegic.value.DoubleValue
2.241

@<SCITEGIC>MOL_PROPERTY
Pdih
SciTegic.value.DoubleValue
3.522

@<SCITEGIC>MOL_PROPERTY
Idih
SciTegic.value.DoubleValue
0.000

@<SCITEGIC>MOL_PROPERTY
Tether
SciTegic.value.DoubleValue
0.000

@<TRIPOS>MOLECULE
guest-6_confgen4.mol2 : confsearch ligand conformer 19
          13          12           1
SMALL
USER_CHARGES
 
@<TRIPOS>ATOM
       1    C1      21.580843   18.428328   21.101959 C.2        1 MOL1         0.6021
       2    O1      22.450106   19.262552   20.945272 O.co2      1 MOL1        -0.6904
       3    O2      21.809474   17.263486   21.360372 O.co2      1 MOL1        -0.6904
       4    C2      20.127173   18.861573   20.929130 C.3        1 MOL1        -0.2102
       5    H1      19.508932   17.967291   20.783096 H          1 MOL1         0.0687
       6    H2      20.067289   19.442827   20.001260 H          1 MOL1         0.0687
       7    C3      19.573125   19.707592   22.104129 C.3        1 MOL1        -0.1974
       8    H3      20.222912   20.578605   22.268551 H          1 MOL1         0.0689
       9    H4      18.583783   20.099069   21.830594 H          1 MOL1         0.0689
      10    C4      19.450215   18.895361   23.409925 C.3        1 MOL1        -0.2987
      11    H5      20.430454   18.524715   23.737920 H          1 MOL1         0.0700
      12    H6      19.037319   19.517188   24.214875 H          1 MOL1         0.0700
      13    H7      18.786558   18.031421   23.273693 H          1 MOL1         0.0700
@<TRIPOS>BOND
    1     1     2    1
    2     1     3    2
    3     1     4    1
    4     4     5    1
    5     4     6    1
    6     4     7    1
    7     7     8    1
    8     7     9    1
    9     7    10    1
   10    10    11    1
   11    10    12    1
   12    10    13    1
@<TRIPOS>SUBSTRUCTURE
       1 MOL1            1 RESIDUE      1      MOL     
@<SCITEGIC>MOL_PROPERTY
VConf Rank
SciTegic.value.IntegerValue
19

@<SCITEGIC>MOL_PROPERTY
Conf_Id
SciTegic.value.IntegerValue
4

@<SCITEGIC>MOL_PROPERTY
Delta U+W
SciTegic.value.DoubleValue
0.281

@<SCITEGIC>MOL_PROPERTY
U+W
SciTegic.value.DoubleValue
-58.051

@<SCITEGIC>MOL_PROPERTY
Grad RMS
SciTegic.value.DoubleValue
0.000000

@<SCITEGIC>MOL_PROPERTY
U
SciTegic.value.DoubleValue
9.781

@<SCITEGIC>MOL_PROPERTY
W
SciTegic.value.DoubleValue
-67.832

@<SCITEGIC>MOL_PROPERTY
W(PB)
SciTegic.value.DoubleValue
-69.535

@<SCITEGIC>MOL_PROPERTY
W(SA)
SciTegic.value.DoubleValue
1.703

@<SCITEGIC>MOL_PROPERTY
Valence
SciTegic.value.DoubleValue
6.123

@<SCITEGIC>MOL_PROPERTY
Coulomb
SciTegic.value.DoubleValue
3.449

@<SCITEGIC>MOL_PROPERTY
VdW
SciTegic.value.DoubleValue
0.209

@<SCITEGIC>MOL_PROPERTY
VdW6
SciTegic.value.DoubleValue
-3.762

@<SCITEGIC>MOL_PROPERTY
VdW12
SciTegic.value.DoubleValue
3.972

@<SCITEGIC>MOL_PROPERTY
Bond
SciTegic.value.DoubleValue
0.078

@<SCITEGIC>MOL_PROPERTY
Angle
SciTegic.value.DoubleValue
2.428

@<SCITEGIC>MOL_PROPERTY
Pdih
SciTegic.value.DoubleValue
3.616

@<SCITEGIC>MOL_PROPERTY
Idih
SciTegic.value.DoubleValue
0.002

@<SCITEGIC>MOL_PROPERTY
Tether
SciTegic.value.DoubleValue
0.000

@<TRIPOS>MOLECULE
guest-6_confgen4.mol2 : confsearch ligand conformer 20
          13          12           1
SMALL
USER_CHARGES
 
@<TRIPOS>ATOM
       1    C1      20.656495   17.734584   20.814079 C.2        1 MOL1         0.6021
       2    O1      19.699650   17.325124   20.187425 O.co2      1 MOL1        -0.6904
       3    O2      21.753218   17.911385   20.322104 O.co2      1 MOL1        -0.6904
       4    C2      20.483748   18.008068   22.306088 C.3        1 MOL1        -0.2102
       5    H1      21.321393   17.527737   22.825722 H          1 MOL1         0.0687
       6    H2      19.569410   17.509861   22.651142 H          1 MOL1         0.0687
       7    C3      20.443245   19.513297   22.674847 C.3        1 MOL1        -0.1974
       8    H3      20.469770   19.616822   23.768213 H          1 MOL1         0.0689
       9    H4      21.343908   20.010871   22.288650 H          1 MOL1         0.0689
      10    C4      19.184115   20.220411   22.132159 C.3        1 MOL1        -0.2987
      11    H5      18.271557   19.752279   22.523925 H          1 MOL1         0.0700
      12    H6      19.176870   21.277803   22.427057 H          1 MOL1         0.0700
      13    H7      19.147631   20.174933   21.035607 H          1 MOL1         0.0700
@<TRIPOS>BOND
    1     1     2    1
    2     1     3    2
    3     1     4    1
    4     4     5    1
    5     4     6    1
    6     4     7    1
    7     7     8    1
    8     7     9    1
    9     7    10    1
   10    10    11    1
   11    10    12    1
   12    10    13    1
@<TRIPOS>SUBSTRUCTURE
       1 MOL1            1 RESIDUE      1      MOL     
@<SCITEGIC>MOL_PROPERTY
VConf Rank
SciTegic.value.IntegerValue
20

@<SCITEGIC>MOL_PROPERTY
Conf_Id
SciTegic.value.IntegerValue
36

@<SCITEGIC>MOL_PROPERTY
Delta U+W
SciTegic.value.DoubleValue
0.272

@<SCITEGIC>MOL_PROPERTY
U+W
SciTegic.value.DoubleValue
-58.060

@<SCITEGIC>MOL_PROPERTY
Grad RMS
SciTegic.value.DoubleValue
0.000000

@<SCITEGIC>MOL_PROPERTY
U
SciTegic.value.DoubleValue
9.781

@<SCITEGIC>MOL_PROPERTY
W
SciTegic.value.DoubleValue
-67.841

@<SCITEGIC>MOL_PROPERTY
W(PB)
SciTegic.value.DoubleValue
-69.537

@<SCITEGIC>MOL_PROPERTY
W(SA)
SciTegic.value.DoubleValue
1.696

@<SCITEGIC>MOL_PROPERTY
Valence
SciTegic.value.DoubleValue
6.123

@<SCITEGIC>MOL_PROPERTY
Coulomb
SciTegic.value.DoubleValue
3.449

@<SCITEGIC>MOL_PROPERTY
VdW
SciTegic.value.DoubleValue
0.209

@<SCITEGIC>MOL_PROPERTY
VdW6
SciTegic.value.DoubleValue
-3.762

@<SCITEGIC>MOL_PROPERTY
VdW12
SciTegic.value.DoubleValue
3.972

@<SCITEGIC>MOL_PROPERTY
Bond
SciTegic.value.DoubleValue
0.078

@<SCITEGIC>MOL_PROPERTY
Angle
SciTegic.value.DoubleValue
2.428

@<SCITEGIC>MOL_PROPERTY
Pdih
SciTegic.value.DoubleValue
3.616

@<SCITEGIC>MOL_PROPERTY
Idih
SciTegic.value.DoubleValue
0.002

@<SCITEGIC>MOL_PROPERTY
Tether
SciTegic.value.DoubleValue
0.000

@<TRIPOS>MOLECULE
guest-6_confgen4.mol2 : confsearch ligand conformer 21
          13          12           1
SMALL
USER_CHARGES
 
@<TRIPOS>ATOM
       1    C1      18.419298   20.237521   22.489634 C.2        1 MOL1         0.6021
       2    O1      18.031520   20.679860   21.426011 O.co2      1 MOL1        -0.6904
       3    O2      17.910685   20.530654   23.552734 O.co2      1 MOL1        -0.6904
       4    C2      19.600047   19.265240   22.524064 C.3        1 MOL1        -0.2102
       5    H1      19.254407   18.347162   23.013965 H          1 MOL1         0.0687
       6    H2      20.367585   19.704620   23.172268 H          1 MOL1         0.0687
       7    C3      20.217141   18.920189   21.143451 C.3        1 MOL1        -0.1974
       8    H3      19.445671   18.482711   20.494451 H          1 MOL1         0.0689
       9    H4      20.560153   19.841854   20.652908 H          1 MOL1         0.0689
      10    C4      21.397404   17.936831   21.276949 C.3        1 MOL1        -0.2987
      11    H5      21.073241   16.994063   21.736981 H          1 MOL1         0.0700
      12    H6      21.820593   17.704827   20.290875 H          1 MOL1         0.0700
      13    H7      22.196646   18.364111   21.896760 H          1 MOL1         0.0700
@<TRIPOS>BOND
    1     1     2    1
    2     1     3    2
    3     1     4    1
    4     4     5    1
    5     4     6    1
    6     4     7    1
    7     7     8    1
    8     7     9    1
    9     7    10    1
   10    10    11    1
   11    10    12    1
   12    10    13    1
@<TRIPOS>SUBSTRUCTURE
       1 MOL1            1 RESIDUE      1      MOL     
@<SCITEGIC>MOL_PROPERTY
VConf Rank
SciTegic.value.IntegerValue
21

@<SCITEGIC>MOL_PROPERTY
Conf_Id
SciTegic.value.IntegerValue
0

@<SCITEGIC>MOL_PROPERTY
Delta U+W
SciTegic.value.DoubleValue
0.000

@<SCITEGIC>MOL_PROPERTY
U+W
SciTegic.value.DoubleValue
-58.332

@<SCITEGIC>MOL_PROPERTY
Grad RMS
SciTegic.value.DoubleValue
0.000000

@<SCITEGIC>MOL_PROPERTY
U
SciTegic.value.DoubleValue
8.390

@<SCITEGIC>MOL_PROPERTY
W
SciTegic.value.DoubleValue
-66.722

@<SCITEGIC>MOL_PROPERTY
W(PB)
SciTegic.value.DoubleValue
-68.455

@<SCITEGIC>MOL_PROPERTY
W(SA)
SciTegic.value.DoubleValue
1.733

@<SCITEGIC>MOL_PROPERTY
Valence
SciTegic.value.DoubleValue
6.333

@<SCITEGIC>MOL_PROPERTY
Coulomb
SciTegic.value.DoubleValue
1.215

@<SCITEGIC>MOL_PROPERTY
VdW
SciTegic.value.DoubleValue
0.842

@<SCITEGIC>MOL_PROPERTY
VdW6
SciTegic.value.DoubleValue
-3.344

@<SCITEGIC>MOL_PROPERTY
VdW12
SciTegic.value.DoubleValue
4.186

@<SCITEGIC>MOL_PROPERTY
Bond
SciTegic.value.DoubleValue
0.091

@<SCITEGIC>MOL_PROPERTY
Angle
SciTegic.value.DoubleValue
2.713

@<SCITEGIC>MOL_PROPERTY
Pdih
SciTegic.value.DoubleValue
3.529

@<SCITEGIC>MOL_PROPERTY
Idih
SciTegic.value.DoubleValue
0.000

@<SCITEGIC>MOL_PROPERTY
Tether
SciTegic.value.DoubleValue
0.000

@<TRIPOS>MOLECULE
guest-6_confgen4.mol2 : confsearch ligand conformer 22
          13          12           1
SMALL
USER_CHARGES
 
@<TRIPOS>ATOM
       1    C1      18.637011   19.013939   20.210114 C.2        1 MOL1         0.6021
       2    O1      18.987418   18.383502   19.232808 O.co2      1 MOL1        -0.6904
       3    O2      17.836106   19.926176   20.168458 O.co2      1 MOL1        -0.6904
       4    C2      19.249764   18.653060   21.559113 C.3        1 MOL1        -0.2102
       5    H1      19.450620   17.574803   21.565353 H          1 MOL1         0.0687
       6    H2      18.501166   18.846967   22.336944 H          1 MOL1         0.0687
       7    C3      20.548588   19.438561   21.862251 C.3        1 MOL1        -0.1974
       8    H3      21.287138   19.244565   21.071852 H          1 MOL1         0.0689
       9    H4      20.337478   20.516945   21.843714 H          1 MOL1         0.0689
      10    C4      21.142558   19.051312   23.231385 C.3        1 MOL1        -0.2987
      11    H5      22.061941   19.618068   23.428317 H          1 MOL1         0.0700
      12    H6      20.432956   19.264182   24.041760 H          1 MOL1         0.0700
      13    H7      21.389931   17.982058   23.263954 H          1 MOL1         0.0700
@<TRIPOS>BOND
    1     1     2    1
    2     1     3    2
    3     1     4    1
    4     4     5    1
    5     4     6    1
    6     4     7    1
    7     7     8    1
    8     7     9    1
    9     7    10    1
   10    10    11    1
   11    10    12    1
   12    10    13    1
@<TRIPOS>SUBSTRUCTURE
       1 MOL1            1 RESIDUE      1      MOL     
@<SCITEGIC>MOL_PROPERTY
VConf Rank
SciTegic.value.IntegerValue
22

@<SCITEGIC>MOL_PROPERTY
Conf_Id
SciTegic.value.IntegerValue
1

@<SCITEGIC>MOL_PROPERTY
Delta U+W
SciTegic.value.DoubleValue
-1.339

@<SCITEGIC>MOL_PROPERTY
U+W
SciTegic.value.DoubleValue
-59.672

@<SCITEGIC>MOL_PROPERTY
Grad RMS
SciTegic.value.DoubleValue
0.000000

@<SCITEGIC>MOL_PROPERTY
U
SciTegic.value.DoubleValue
7.389

@<SCITEGIC>MOL_PROPERTY
W
SciTegic.value.DoubleValue
-67.061

@<SCITEGIC>MOL_PROPERTY
W(PB)
SciTegic.value.DoubleValue
-68.767

@<SCITEGIC>MOL_PROPERTY
W(SA)
SciTegic.value.DoubleValue
1.707

@<SCITEGIC>MOL_PROPERTY
Valence
SciTegic.value.DoubleValue
5.822

@<SCITEGIC>MOL_PROPERTY
Coulomb
SciTegic.value.DoubleValue
1.255

@<SCITEGIC>MOL_PROPERTY
VdW
SciTegic.value.DoubleValue
0.312

@<SCITEGIC>MOL_PROPERTY
VdW6
SciTegic.value.DoubleValue
-3.061

@<SCITEGIC>MOL_PROPERTY
VdW12
SciTegic.value.DoubleValue
3.372

@<SCITEGIC>MOL_PROPERTY
Bond
SciTegic.value.DoubleValue
0.059

@<SCITEGIC>MOL_PROPERTY
Angle
SciTegic.value.DoubleValue
2.241

@<SCITEGIC>MOL_PROPERTY
Pdih
SciTegic.value.DoubleValue
3.522

@<SCITEGIC>MOL_PROPERTY
Idih
SciTegic.value.DoubleValue
0.000

@<SCITEGIC>MOL_PROPERTY
Tether
SciTegic.value.DoubleValue
0.000

@<TRIPOS>MOLECULE
guest-6_confgen4.mol2 : confsearch ligand conformer 23
          13          12           1
SMALL
USER_CHARGES
 
@<TRIPOS>ATOM
       1    C1      20.781776   18.284102   23.517646 C.2        1 MOL1         0.6021
       2    O1      19.995610   17.666090   24.207648 O.co2      1 MOL1        -0.6904
       3    O2      21.934778   17.942018   23.345983 O.co2      1 MOL1        -0.6904
       4    C2      20.303134   19.577140   22.862145 C.3        1 MOL1        -0.2102
       5    H1      21.179671   20.162437   22.558176 H          1 MOL1         0.0687
       6    H2      19.783845   20.161008   23.631445 H          1 MOL1         0.0687
       7    C3      19.358226   19.363127   21.651902 C.3        1 MOL1        -0.1974
       8    H3      18.504911   18.741307   21.957051 H          1 MOL1         0.0689
       9    H4      18.946665   20.332999   21.340712 H          1 MOL1         0.0689
      10    C4      20.074947   18.711307   20.451331 C.3        1 MOL1        -0.2987
      11    H5      20.461702   17.717822   20.714460 H          1 MOL1         0.0700
      12    H6      19.384167   18.592262   19.606496 H          1 MOL1         0.0700
      13    H7      20.918751   19.328390   20.115780 H          1 MOL1         0.0700
@<TRIPOS>BOND
    1     1     2    1
    2     1     3    2
    3     1     4    1
    4     4     5    1
    5     4     6    1
    6     4     7    1
    7     7     8    1
    8     7     9    1
    9     7    10    1
   10    10    11    1
   11    10    12    1
   12    10    13    1
@<TRIPOS>SUBSTRUCTURE
       1 MOL1            1 RESIDUE      1      MOL     
@<SCITEGIC>MOL_PROPERTY
VConf Rank
SciTegic.value.IntegerValue
23

@<SCITEGIC>MOL_PROPERTY
Conf_Id
SciTegic.value.IntegerValue
4

@<SCITEGIC>MOL_PROPERTY
Delta U+W
SciTegic.value.DoubleValue
0.281

@<SCITEGIC>MOL_PROPERTY
U+W
SciTegic.value.DoubleValue
-58.051

@<SCITEGIC>MOL_PROPERTY
Grad RMS
SciTegic.value.DoubleValue
0.000000

@<SCITEGIC>MOL_PROPERTY
U
SciTegic.value.DoubleValue
9.781

@<SCITEGIC>MOL_PROPERTY
W
SciTegic.value.DoubleValue
-67.832

@<SCITEGIC>MOL_PROPERTY
W(PB)
SciTegic.value.DoubleValue
-69.535

@<SCITEGIC>MOL_PROPERTY
W(SA)
SciTegic.value.DoubleValue
1.703

@<SCITEGIC>MOL_PROPERTY
Valence
SciTegic.value.DoubleValue
6.123

@<SCITEGIC>MOL_PROPERTY
Coulomb
SciTegic.value.DoubleValue
3.449

@<SCITEGIC>MOL_PROPERTY
VdW
SciTegic.value.DoubleValue
0.209

@<SCITEGIC>MOL_PROPERTY
VdW6
SciTegic.value.DoubleValue
-3.762

@<SCITEGIC>MOL_PROPERTY
VdW12
SciTegic.value.DoubleValue
3.972

@<SCITEGIC>MOL_PROPERTY
Bond
SciTegic.value.DoubleValue
0.078

@<SCITEGIC>MOL_PROPERTY
Angle
SciTegic.value.DoubleValue
2.428

@<SCITEGIC>MOL_PROPERTY
Pdih
SciTegic.value.DoubleValue
3.616

@<SCITEGIC>MOL_PROPERTY
Idih
SciTegic.value.DoubleValue
0.002

@<SCITEGIC>MOL_PROPERTY
Tether
SciTegic.value.DoubleValue
0.000

@<TRIPOS>MOLECULE
guest-6_confgen4.mol2 : confsearch ligand conformer 24
          13          12           1
SMALL
USER_CHARGES
 
@<TRIPOS>ATOM
       1    C1      20.876573   17.345033   21.991727 C.2        1 MOL1         0.6021
       2    O1      22.051446   17.444276   22.284521 O.co2      1 MOL1        -0.6904
       3    O2      20.171236   16.425080   22.355435 O.co2      1 MOL1        -0.6904
       4    C2      20.260707   18.412043   21.090103 C.3        1 MOL1        -0.2102
       5    H1      19.710336   17.892047   20.296956 H          1 MOL1         0.0687
       6    H2      21.069678   18.968933   20.601506 H          1 MOL1         0.0687
       7    C3      19.306999   19.389534   21.823785 C.3        1 MOL1        -0.1974
       8    H3      18.797692   20.020029   21.082195 H          1 MOL1         0.0689
       9    H4      18.524643   18.819088   22.343815 H          1 MOL1         0.0689
      10    C4      20.048330   20.293914   22.829992 C.3        1 MOL1        -0.2987
      11    H5      20.820796   20.890068   22.326715 H          1 MOL1         0.0700
      12    H6      19.348695   20.985857   23.316636 H          1 MOL1         0.0700
      13    H7      20.533878   19.697273   23.613631 H          1 MOL1         0.0700
@<TRIPOS>BOND
    1     1     2    1
    2     1     3    2
    3     1     4    1
    4     4     5    1
    5     4     6    1
    6     4     7    1
    7     7     8    1
    8     7     9    1
    9     7    10    1
   10    10    11    1
   11    10    12    1
   12    10    13    1
@<TRIPOS>SUBSTRUCTURE
       1 MOL1            1 RESIDUE      1      MOL     
@<SCITEGIC>MOL_PROPERTY
VConf Rank
SciTegic.value.IntegerValue
24

@<SCITEGIC>MOL_PROPERTY
Conf_Id
SciTegic.value.IntegerValue
36

@<SCITEGIC>MOL_PROPERTY
Delta U+W
SciTegic.value.DoubleValue
0.272

@<SCITEGIC>MOL_PROPERTY
U+W
SciTegic.value.DoubleValue
-58.060

@<SCITEGIC>MOL_PROPERTY
Grad RMS
SciTegic.value.DoubleValue
0.000000

@<SCITEGIC>MOL_PROPERTY
U
SciTegic.value.DoubleValue
9.781

@<SCITEGIC>MOL_PROPERTY
W
SciTegic.value.DoubleValue
-67.841

@<SCITEGIC>MOL_PROPERTY
W(PB)
SciTegic.value.DoubleValue
-69.537

@<SCITEGIC>MOL_PROPERTY
W(SA)
SciTegic.value.DoubleValue
1.696

@<SCITEGIC>MOL_PROPERTY
Valence
SciTegic.value.DoubleValue
6.123

@<SCITEGIC>MOL_PROPERTY
Coulomb
SciTegic.value.DoubleValue
3.449

@<SCITEGIC>MOL_PROPERTY
VdW
SciTegic.value.DoubleValue
0.209

@<SCITEGIC>MOL_PROPERTY
VdW6
SciTegic.value.DoubleValue
-3.762

@<SCITEGIC>MOL_PROPERTY
VdW12
SciTegic.value.DoubleValue
3.972

@<SCITEGIC>MOL_PROPERTY
Bond
SciTegic.value.DoubleValue
0.078

@<SCITEGIC>MOL_PROPERTY
Angle
SciTegic.value.DoubleValue
2.428

@<SCITEGIC>MOL_PROPERTY
Pdih
SciTegic.value.DoubleValue
3.616

@<SCITEGIC>MOL_PROPERTY
Idih
SciTegic.value.DoubleValue
0.002

@<SCITEGIC>MOL_PROPERTY
Tether
SciTegic.value.DoubleValue
0.000

@<TRIPOS>MOLECULE
guest-6_confgen4.mol2 : confsearch ligand conformer 25
          13          12           1
SMALL
USER_CHARGES
 
@<TRIPOS>ATOM
       1    C1      19.213338   18.503706   19.911506 C.2        1 MOL1         0.6021
       2    O1      19.305034   19.579354   19.353026 O.co2      1 MOL1        -0.6904
       3    O2      18.756778   17.515660   19.372884 O.co2      1 MOL1        -0.6904
       4    C2      19.685640   18.355519   21.359144 C.3        1 MOL1        -0.2102
       5    H1      20.443177   17.562960   21.377209 H          1 MOL1         0.0687
       6    H2      18.832529   17.996527   21.947077 H          1 MOL1         0.0687
       7    C3      20.260874   19.642881   22.005488 C.3        1 MOL1        -0.1974
       8    H3      21.113825   20.002600   21.413178 H          1 MOL1         0.0689
       9    H4      19.501218   20.436733   21.983680 H          1 MOL1         0.0689
      10    C4      20.709648   19.398091   23.460312 C.3        1 MOL1        -0.2987
      11    H5      21.492287   18.629384   23.506018 H          1 MOL1         0.0700
      12    H6      21.113316   20.319280   23.900449 H          1 MOL1         0.0700
      13    H7      19.866728   19.066950   24.081082 H          1 MOL1         0.0700
@<TRIPOS>BOND
    1     1     2    1
    2     1     3    2
    3     1     4    1
    4     4     5    1
    5     4     6    1
    6     4     7    1
    7     7     8    1
    8     7     9    1
    9     7    10    1
   10    10    11    1
   11    10    12    1
   12    10    13    1
@<TRIPOS>SUBSTRUCTURE
       1 MOL1            1 RESIDUE      1      MOL     
@<SCITEGIC>MOL_PROPERTY
VConf Rank
SciTegic.value.IntegerValue
25

@<SCITEGIC>MOL_PROPERTY
Conf_Id
SciTegic.value.IntegerValue
0

@<SCITEGIC>MOL_PROPERTY
Delta U+W
SciTegic.value.DoubleValue
0.000

@<SCITEGIC>MOL_PROPERTY
U+W
SciTegic.value.DoubleValue
-58.332

@<SCITEGIC>MOL_PROPERTY
Grad RMS
SciTegic.value.DoubleValue
0.000000

@<SCITEGIC>MOL_PROPERTY
U
SciTegic.value.DoubleValue
8.390

@<SCITEGIC>MOL_PROPERTY
W
SciTegic.value.DoubleValue
-66.722

@<SCITEGIC>MOL_PROPERTY
W(PB)
SciTegic.value.DoubleValue
-68.455

@<SCITEGIC>MOL_PROPERTY
W(SA)
SciTegic.value.DoubleValue
1.733

@<SCITEGIC>MOL_PROPERTY
Valence
SciTegic.value.DoubleValue
6.333

@<SCITEGIC>MOL_PROPERTY
Coulomb
SciTegic.value.DoubleValue
1.215

@<SCITEGIC>MOL_PROPERTY
VdW
SciTegic.value.DoubleValue
0.842

@<SCITEGIC>MOL_PROPERTY
VdW6
SciTegic.value.DoubleValue
-3.344

@<SCITEGIC>MOL_PROPERTY
VdW12
SciTegic.value.DoubleValue
4.186

@<SCITEGIC>MOL_PROPERTY
Bond
SciTegic.value.DoubleValue
0.091

@<SCITEGIC>MOL_PROPERTY
Angle
SciTegic.value.DoubleValue
2.713

@<SCITEGIC>MOL_PROPERTY
Pdih
SciTegic.value.DoubleValue
3.529

@<SCITEGIC>MOL_PROPERTY
Idih
SciTegic.value.DoubleValue
0.000

@<SCITEGIC>MOL_PROPERTY
Tether
SciTegic.value.DoubleValue
0.000

@<TRIPOS>MOLECULE
guest-6_confgen4.mol2 : confsearch ligand conformer 26
          13          12           1
SMALL
USER_CHARGES
 
@<TRIPOS>ATOM
       1    C1      18.041564   19.341689   22.590115 C.2        1 MOL1         0.6021
       2    O1      17.963182   19.976329   23.622806 O.co2      1 MOL1        -0.6904
       3    O2      17.197344   18.548808   22.224063 O.co2      1 MOL1        -0.6904
       4    C2      19.275322   19.536933   21.715348 C.3        1 MOL1        -0.2102
       5    H1      19.608678   20.576375   21.822362 H          1 MOL1         0.0687
       6    H2      18.977114   19.399176   20.668871 H          1 MOL1         0.0687
       7    C3      20.428583   18.568272   22.072469 C.3        1 MOL1        -0.1974
       8    H3      20.712054   18.708205   23.125030 H          1 MOL1         0.0689
       9    H4      20.080412   17.530802   21.971199 H          1 MOL1         0.0689
      10    C4      21.659705   18.790923   21.171329 C.3        1 MOL1        -0.2987
      11    H5      22.465954   18.095675   21.439386 H          1 MOL1         0.0700
      12    H6      21.408131   18.627267   20.115164 H          1 MOL1         0.0700
      13    H7      22.044632   19.813682   21.277882 H          1 MOL1         0.0700
@<TRIPOS>BOND
    1     1     2    1
    2     1     3    2
    3     1     4    1
    4     4     5    1
    5     4     6    1
    6     4     7    1
    7     7     8    1
    8     7     9    1
    9     7    10    1
   10    10    11    1
   11    10    12    1
   12    10    13    1
@<TRIPOS>SUBSTRUCTURE
       1 MOL1            1 RESIDUE      1      MOL     
@<SCITEGIC>MOL_PROPERTY
VConf Rank
SciTegic.value.IntegerValue
26

@<SCITEGIC>MOL_PROPERTY
Conf_Id
SciTegic.value.IntegerValue
1

@<SCITEGIC>MOL_PROPERTY
Delta U+W
SciTegic.value.DoubleValue
-1.339

@<SCITEGIC>MOL_PROPERTY
U+W
SciTegic.value.DoubleValue
-59.672

@<SCITEGIC>MOL_PROPERTY
Grad RMS
SciTegic.value.DoubleValue
0.000000

@<SCITEGIC>MOL_PROPERTY
U
SciTegic.value.DoubleValue
7.389

@<SCITEGIC>MOL_PROPERTY
W
SciTegic.value.DoubleValue
-67.061

@<SCITEGIC>MOL_PROPERTY
W(PB)
SciTegic.value.DoubleValue
-68.767

@<SCITEGIC>MOL_PROPERTY
W(SA)
SciTegic.value.DoubleValue
1.707

@<SCITEGIC>MOL_PROPERTY
Valence
SciTegic.value.DoubleValue
5.822

@<SCITEGIC>MOL_PROPERTY
Coulomb
SciTegic.value.DoubleValue
1.255

@<SCITEGIC>MOL_PROPERTY
VdW
SciTegic.value.DoubleValue
0.312

@<SCITEGIC>MOL_PROPERTY
VdW6
SciTegic.value.DoubleValue
-3.061

@<SCITEGIC>MOL_PROPERTY
VdW12
SciTegic.value.DoubleValue
3.372

@<SCITEGIC>MOL_PROPERTY
Bond
SciTegic.value.DoubleValue
0.059

@<SCITEGIC>MOL_PROPERTY
Angle
SciTegic.value.DoubleValue
2.241

@<SCITEGIC>MOL_PROPERTY
Pdih
SciTegic.value.DoubleValue
3.522

@<SCITEGIC>MOL_PROPERTY
Idih
SciTegic.value.DoubleValue
0.000

@<SCITEGIC>MOL_PROPERTY
Tether
SciTegic.value.DoubleValue
0.000

@<TRIPOS>MOLECULE
guest-6_confgen4.mol2 : confsearch ligand conformer 27
          13          12           1
SMALL
USER_CHARGES
 
@<TRIPOS>ATOM
       1    C1      20.867619   18.317142   23.492447 C.2        1 MOL1         0.6021
       2    O1      20.767710   17.117864   23.659326 O.co2      1 MOL1        -0.6904
       3    O2      21.871161   18.948666   23.756993 O.co2      1 MOL1        -0.6904
       4    C2      19.654773   19.073194   22.955680 C.3        1 MOL1        -0.2102
       5    H1      19.786903   20.142178   23.163292 H          1 MOL1         0.0687
       6    H2      18.782500   18.744034   23.532898 H          1 MOL1         0.0687
       7    C3      19.386624   18.851912   21.444896 C.3        1 MOL1        -0.1974
       8    H3      19.297002   17.775641   21.241103 H          1 MOL1         0.0689
       9    H4      18.421169   19.304616   21.180645 H          1 MOL1         0.0689
      10    C4      20.489278   19.460796   20.554197 C.3        1 MOL1        -0.2987
      11    H5      21.463671   18.998562   20.760897 H          1 MOL1         0.0700
      12    H6      20.259254   19.304093   19.492297 H          1 MOL1         0.0700
      13    H7      20.580521   20.541311   20.726106 H          1 MOL1         0.0700
@<TRIPOS>BOND
    1     1     2    1
    2     1     3    2
    3     1     4    1
    4     4     5    1
    5     4     6    1
    6     4     7    1
    7     7     8    1
    8     7     9    1
    9     7    10    1
   10    10    11    1
   11    10    12    1
   12    10    13    1
@<TRIPOS>SUBSTRUCTURE
       1 MOL1            1 RESIDUE      1      MOL     
@<SCITEGIC>MOL_PROPERTY
VConf Rank
SciTegic.value.IntegerValue
27

@<SCITEGIC>MOL_PROPERTY
Conf_Id
SciTegic.value.IntegerValue
4

@<SCITEGIC>MOL_PROPERTY
Delta U+W
SciTegic.value.DoubleValue
0.281

@<SCITEGIC>MOL_PROPERTY
U+W
SciTegic.value.DoubleValue
-58.051

@<SCITEGIC>MOL_PROPERTY
Grad RMS
SciTegic.value.DoubleValue
0.000000

@<SCITEGIC>MOL_PROPERTY
U
SciTegic.value.DoubleValue
9.781

@<SCITEGIC>MOL_PROPERTY
W
SciTegic.value.DoubleValue
-67.832

@<SCITEGIC>MOL_PROPERTY
W(PB)
SciTegic.value.DoubleValue
-69.535

@<SCITEGIC>MOL_PROPERTY
W(SA)
SciTegic.value.DoubleValue
1.703

@<SCITEGIC>MOL_PROPERTY
Valence
SciTegic.value.DoubleValue
6.123

@<SCITEGIC>MOL_PROPERTY
Coulomb
SciTegic.value.DoubleValue
3.449

@<SCITEGIC>MOL_PROPERTY
VdW
SciTegic.value.DoubleValue
0.209

@<SCITEGIC>MOL_PROPERTY
VdW6
SciTegic.value.DoubleValue
-3.762

@<SCITEGIC>MOL_PROPERTY
VdW12
SciTegic.value.DoubleValue
3.972

@<SCITEGIC>MOL_PROPERTY
Bond
SciTegic.value.DoubleValue
0.078

@<SCITEGIC>MOL_PROPERTY
Angle
SciTegic.value.DoubleValue
2.428

@<SCITEGIC>MOL_PROPERTY
Pdih
SciTegic.value.DoubleValue
3.616

@<SCITEGIC>MOL_PROPERTY
Idih
SciTegic.value.DoubleValue
0.002

@<SCITEGIC>MOL_PROPERTY
Tether
SciTegic.value.DoubleValue
0.000

@<TRIPOS>MOLECULE
guest-6_confgen4.mol2 : confsearch ligand conformer 28
          13          12           1
SMALL
USER_CHARGES
 
@<TRIPOS>ATOM
       1    C1      20.656835   17.315083   22.429642 C.2        1 MOL1         0.6021
       2    O1      21.867560   17.249142   22.354122 O.co2      1 MOL1        -0.6904
       3    O2      20.007595   16.749508   23.286794 O.co2      1 MOL1        -0.6904
       4    C2      19.906559   18.121029   21.372164 C.3        1 MOL1        -0.2102
       5    H1      19.081417   17.496511   21.009529 H          1 MOL1         0.0687
       6    H2      20.575008   18.289405   20.518869 H          1 MOL1         0.0687
       7    C3      19.344170   19.471805   21.884472 C.3        1 MOL1        -0.1974
       8    H3      18.697864   19.909057   21.111186 H          1 MOL1         0.0689
       9    H4      18.709272   19.295857   22.764170 H          1 MOL1         0.0689
      10    C4      20.457957   20.478719   22.238775 C.3        1 MOL1        -0.2987
      11    H5      21.091586   20.686023   21.366462 H          1 MOL1         0.0700
      12    H6      20.026409   21.429176   22.578618 H          1 MOL1         0.0700
      13    H7      21.098777   20.091860   23.042216 H          1 MOL1         0.0700
@<TRIPOS>BOND
    1     1     2    1
    2     1     3    2
    3     1     4    1
    4     4     5    1
    5     4     6    1
    6     4     7    1
    7     7     8    1
    8     7     9    1
    9     7    10    1
   10    10    11    1
   11    10    12    1
   12    10    13    1
@<TRIPOS>SUBSTRUCTURE
       1 MOL1            1 RESIDUE      1      MOL     
@<SCITEGIC>MOL_PROPERTY
VConf Rank
SciTegic.value.IntegerValue
28

@<SCITEGIC>MOL_PROPERTY
Conf_Id
SciTegic.value.IntegerValue
36

@<SCITEGIC>MOL_PROPERTY
Delta U+W
SciTegic.value.DoubleValue
0.272

@<SCITEGIC>MOL_PROPERTY
U+W
SciTegic.value.DoubleValue
-58.060

@<SCITEGIC>MOL_PROPERTY
Grad RMS
SciTegic.value.DoubleValue
0.000000

@<SCITEGIC>MOL_PROPERTY
U
SciTegic.value.DoubleValue
9.781

@<SCITEGIC>MOL_PROPERTY
W
SciTegic.value.DoubleValue
-67.841

@<SCITEGIC>MOL_PROPERTY
W(PB)
SciTegic.value.DoubleValue
-69.537

@<SCITEGIC>MOL_PROPERTY
W(SA)
SciTegic.value.DoubleValue
1.696

@<SCITEGIC>MOL_PROPERTY
Valence
SciTegic.value.DoubleValue
6.123

@<SCITEGIC>MOL_PROPERTY
Coulomb
SciTegic.value.DoubleValue
3.449

@<SCITEGIC>MOL_PROPERTY
VdW
SciTegic.value.DoubleValue
0.209

@<SCITEGIC>MOL_PROPERTY
VdW6
SciTegic.value.DoubleValue
-3.762

@<SCITEGIC>MOL_PROPERTY
VdW12
SciTegic.value.DoubleValue
3.972

@<SCITEGIC>MOL_PROPERTY
Bond
SciTegic.value.DoubleValue
0.078

@<SCITEGIC>MOL_PROPERTY
Angle
SciTegic.value.DoubleValue
2.428

@<SCITEGIC>MOL_PROPERTY
Pdih
SciTegic.value.DoubleValue
3.616

@<SCITEGIC>MOL_PROPERTY
Idih
SciTegic.value.DoubleValue
0.002

@<SCITEGIC>MOL_PROPERTY
Tether
SciTegic.value.DoubleValue
0.000

@<TRIPOS>MOLECULE
guest-6_confgen4.mol2 : confsearch ligand conformer 29
          13          12           1
SMALL
USER_CHARGES
 
@<TRIPOS>ATOM
       1    C1      21.128300   18.088777   23.399921 C.2        1 MOL1         0.6021
       2    O1      22.112215   18.802271   23.412774 O.co2      1 MOL1        -0.6904
       3    O2      20.981680   17.150697   24.157090 O.co2      1 MOL1        -0.6904
       4    C2      20.006037   18.358649   22.395741 C.3        1 MOL1        -0.2102
       5    H1      19.083149   18.509375   22.968363 H          1 MOL1         0.0687
       6    H2      19.869883   17.446035   21.803343 H          1 MOL1         0.0687
       7    C3      20.236999   19.566000   21.449740 C.3        1 MOL1        -0.1974
       8    H3      20.376103   20.478991   22.045436 H          1 MOL1         0.0689
       9    H4      21.163852   19.414379   20.879031 H          1 MOL1         0.0689
      10    C4      19.057349   19.760179   20.475803 C.3        1 MOL1        -0.2987
      11    H5      18.123021   19.944703   21.022159 H          1 MOL1         0.0700
      12    H6      19.238733   20.618078   19.815223 H          1 MOL1         0.0700
      13    H7      18.917071   18.871511   19.846427 H          1 MOL1         0.0700
@<TRIPOS>BOND
    1     1     2    1
    2     1     3    2
    3     1     4    1
    4     4     5    1
    5     4     6    1
    6     4     7    1
    7     7     8    1
    8     7     9    1
    9     7    10    1
   10    10    11    1
   11    10    12    1
   12    10    13    1
@<TRIPOS>SUBSTRUCTURE
       1 MOL1            1 RESIDUE      1      MOL     
@<SCITEGIC>MOL_PROPERTY
VConf Rank
SciTegic.value.IntegerValue
29

@<SCITEGIC>MOL_PROPERTY
Conf_Id
SciTegic.value.IntegerValue
0

@<SCITEGIC>MOL_PROPERTY
Delta U+W
SciTegic.value.DoubleValue
0.000

@<SCITEGIC>MOL_PROPERTY
U+W
SciTegic.value.DoubleValue
-58.332

@<SCITEGIC>MOL_PROPERTY
Grad RMS
SciTegic.value.DoubleValue
0.000000

@<SCITEGIC>MOL_PROPERTY
U
SciTegic.value.DoubleValue
8.390

@<SCITEGIC>MOL_PROPERTY
W
SciTegic.value.DoubleValue
-66.722

@<SCITEGIC>MOL_PROPERTY
W(PB)
SciTegic.value.DoubleValue
-68.455

@<SCITEGIC>MOL_PROPERTY
W(SA)
SciTegic.value.DoubleValue
1.733

@<SCITEGIC>MOL_PROPERTY
Valence
SciTegic.value.DoubleValue
6.333

@<SCITEGIC>MOL_PROPERTY
Coulomb
SciTegic.value.DoubleValue
1.215

@<SCITEGIC>MOL_PROPERTY
VdW
SciTegic.value.DoubleValue
0.842

@<SCITEGIC>MOL_PROPERTY
VdW6
SciTegic.value.DoubleValue
-3.344

@<SCITEGIC>MOL_PROPERTY
VdW12
SciTegic.value.DoubleValue
4.186

@<SCITEGIC>MOL_PROPERTY
Bond
SciTegic.value.DoubleValue
0.091

@<SCITEGIC>MOL_PROPERTY
Angle
SciTegic.value.DoubleValue
2.713

@<SCITEGIC>MOL_PROPERTY
Pdih
SciTegic.value.DoubleValue
3.529

@<SCITEGIC>MOL_PROPERTY
Idih
SciTegic.value.DoubleValue
0.000

@<SCITEGIC>MOL_PROPERTY
Tether
SciTegic.value.DoubleValue
0.000

@<TRIPOS>MOLECULE
guest-6_confgen4.mol2 : confsearch ligand conformer 30
          13          12           1
SMALL
USER_CHARGES
 
@<TRIPOS>ATOM
       1    C1      22.079173   18.738209   21.881306 C.2        1 MOL1         0.6021
       2    O1      22.508647   17.857955   21.162929 O.co2      1 MOL1        -0.6904
       3    O2      22.651533   19.129440   22.878654 O.co2      1 MOL1        -0.6904
       4    C2      20.740112   19.373354   21.522132 C.3        1 MOL1        -0.2102
       5    H1      20.644220   19.372987   20.429510 H          1 MOL1         0.0687
       6    H2      20.762064   20.421539   21.844383 H          1 MOL1         0.0687
       7    C3      19.534396   18.644281   22.162875 C.3        1 MOL1        -0.1974
       8    H3      19.528312   17.593462   21.841063 H          1 MOL1         0.0689
       9    H4      19.646115   18.642325   23.256190 H          1 MOL1         0.0689
      10    C4      18.197120   19.309892   21.780848 C.3        1 MOL1        -0.2987
      11    H5      17.354913   18.779481   22.244112 H          1 MOL1         0.0700
      12    H6      18.167393   20.354080   22.118995 H          1 MOL1         0.0700
      13    H7      18.048678   19.297131   20.693025 H          1 MOL1         0.0700
@<TRIPOS>BOND
    1     1     2    1
    2     1     3    2
    3     1     4    1
    4     4     5    1
    5     4     6    1
    6     4     7    1
    7     7     8    1
    8     7     9    1
    9     7    10    1
   10    10    11    1
   11    10    12    1
   12    10    13    1
@<TRIPOS>SUBSTRUCTURE
       1 MOL1            1 RESIDUE      1      MOL     
@<SCITEGIC>MOL_PROPERTY
VConf Rank
SciTegic.value.IntegerValue
30

@<SCITEGIC>MOL_PROPERTY
Conf_Id
SciTegic.value.IntegerValue
1

@<SCITEGIC>MOL_PROPERTY
Delta U+W
SciTegic.value.DoubleValue
-1.339

@<SCITEGIC>MOL_PROPERTY
U+W
SciTegic.value.DoubleValue
-59.672

@<SCITEGIC>MOL_PROPERTY
Grad RMS
SciTegic.value.DoubleValue
0.000000

@<SCITEGIC>MOL_PROPERTY
U
SciTegic.value.DoubleValue
7.389

@<SCITEGIC>MOL_PROPERTY
W
SciTegic.value.DoubleValue
-67.061

@<SCITEGIC>MOL_PROPERTY
W(PB)
SciTegic.value.DoubleValue
-68.767

@<SCITEGIC>MOL_PROPERTY
W(SA)
SciTegic.value.DoubleValue
1.707

@<SCITEGIC>MOL_PROPERTY
Valence
SciTegic.value.DoubleValue
5.822

@<SCITEGIC>MOL_PROPERTY
Coulomb
SciTegic.value.DoubleValue
1.255

@<SCITEGIC>MOL_PROPERTY
VdW
SciTegic.value.DoubleValue
0.312

@<SCITEGIC>MOL_PROPERTY
VdW6
SciTegic.value.DoubleValue
-3.061

@<SCITEGIC>MOL_PROPERTY
VdW12
SciTegic.value.DoubleValue
3.372

@<SCITEGIC>MOL_PROPERTY
Bond
SciTegic.value.DoubleValue
0.059

@<SCITEGIC>MOL_PROPERTY
Angle
SciTegic.value.DoubleValue
2.241

@<SCITEGIC>MOL_PROPERTY
Pdih
SciTegic.value.DoubleValue
3.522

@<SCITEGIC>MOL_PROPERTY
Idih
SciTegic.value.DoubleValue
0.000

@<SCITEGIC>MOL_PROPERTY
Tether
SciTegic.value.DoubleValue
0.000

@<TRIPOS>MOLECULE
guest-6_confgen4.mol2 : confsearch ligand conformer 31
          13          12           1
SMALL
USER_CHARGES
 
@<TRIPOS>ATOM
       1    C1      19.212174   19.656996   23.376080 C.2        1 MOL1         0.6021
       2    O1      18.178714   19.089110   23.668596 O.co2      1 MOL1        -0.6904
       3    O2      19.989166   20.099193   24.198667 O.co2      1 MOL1        -0.6904
       4    C2      19.531007   19.855571   21.896336 C.3        1 MOL1        -0.2102
       5    H1      20.294802   20.637389   21.803251 H          1 MOL1         0.0687
       6    H2      18.623905   20.240268   21.415129 H          1 MOL1         0.0687
       7    C3      19.994052   18.567477   21.168501 C.3        1 MOL1        -0.1974
       8    H3      19.241031   17.778283   21.302868 H          1 MOL1         0.0689
       9    H4      20.054461   18.765655   20.089636 H          1 MOL1         0.0689
      10    C4      21.366204   18.068641   21.666788 C.3        1 MOL1        -0.2987
      11    H5      21.330790   17.818011   22.735319 H          1 MOL1         0.0700
      12    H6      21.673016   17.168491   21.118434 H          1 MOL1         0.0700
      13    H7      22.138862   18.834923   21.521172 H          1 MOL1         0.0700
@<TRIPOS>BOND
    1     1     2    1
    2     1     3    2
    3     1     4    1
    4     4     5    1
    5     4     6    1
    6     4     7    1
    7     7     8    1
    8     7     9    1
    9     7    10    1
   10    10    11    1
   11    10    12    1
   12    10    13    1
@<TRIPOS>SUBSTRUCTURE
       1 MOL1            1 RESIDUE      1      MOL     
@<SCITEGIC>MOL_PROPERTY
VConf Rank
SciTegic.value.IntegerValue
31

@<SCITEGIC>MOL_PROPERTY
Conf_Id
SciTegic.value.IntegerValue
4

@<SCITEGIC>MOL_PROPERTY
Delta U+W
SciTegic.value.DoubleValue
0.281

@<SCITEGIC>MOL_PROPERTY
U+W
SciTegic.value.DoubleValue
-58.051

@<SCITEGIC>MOL_PROPERTY
Grad RMS
SciTegic.value.DoubleValue
0.000000

@<SCITEGIC>MOL_PROPERTY
U
SciTegic.value.DoubleValue
9.781

@<SCITEGIC>MOL_PROPERTY
W
SciTegic.value.DoubleValue
-67.832

@<SCITEGIC>MOL_PROPERTY
W(PB)
SciTegic.value.DoubleValue
-69.535

@<SCITEGIC>MOL_PROPERTY
W(SA)
SciTegic.value.DoubleValue
1.703

@<SCITEGIC>MOL_PROPERTY
Valence
SciTegic.value.DoubleValue
6.123

@<SCITEGIC>MOL_PROPERTY
Coulomb
SciTegic.value.DoubleValue
3.449

@<SCITEGIC>MOL_PROPERTY
VdW
SciTegic.value.DoubleValue
0.209

@<SCITEGIC>MOL_PROPERTY
VdW6
SciTegic.value.DoubleValue
-3.762

@<SCITEGIC>MOL_PROPERTY
VdW12
SciTegic.value.DoubleValue
3.972

@<SCITEGIC>MOL_PROPERTY
Bond
SciTegic.value.DoubleValue
0.078

@<SCITEGIC>MOL_PROPERTY
Angle
SciTegic.value.DoubleValue
2.428

@<SCITEGIC>MOL_PROPERTY
Pdih
SciTegic.value.DoubleValue
3.616

@<SCITEGIC>MOL_PROPERTY
Idih
SciTegic.value.DoubleValue
0.002

@<SCITEGIC>MOL_PROPERTY
Tether
SciTegic.value.DoubleValue
0.000

@<TRIPOS>MOLECULE
guest-6_confgen4.mol2 : confsearch ligand conformer 32
          13          12           1
SMALL
USER_CHARGES
 
@<TRIPOS>ATOM
       1    C1      20.393400   18.306011   23.638719 C.2        1 MOL1         0.6021
       2    O1      21.479222   17.762809   23.681475 O.co2      1 MOL1        -0.6904
       3    O2      19.930658   18.950998   24.558479 O.co2      1 MOL1        -0.6904
       4    C2      19.548667   18.141281   22.377761 C.3        1 MOL1        -0.2102
       5    H1      18.537974   17.858913   22.695809 H          1 MOL1         0.0687
       6    H2      19.944752   17.299234   21.796935 H          1 MOL1         0.0687
       7    C3      19.474540   19.412161   21.493054 C.3        1 MOL1        -0.1974
       8    H3      18.733433   19.254234   20.697635 H          1 MOL1         0.0689
       9    H4      19.115997   20.258892   22.095063 H          1 MOL1         0.0689
      10    C4      20.832899   19.766064   20.853103 C.3        1 MOL1        -0.2987
      11    H5      21.199278   18.940875   20.228425 H          1 MOL1         0.0700
      12    H6      20.741209   20.657349   20.218832 H          1 MOL1         0.0700
      13    H7      21.588982   19.974354   21.621726 H          1 MOL1         0.0700
@<TRIPOS>BOND
    1     1     2    1
    2     1     3    2
    3     1     4    1
    4     4     5    1
    5     4     6    1
    6     4     7    1
    7     7     8    1
    8     7     9    1
    9     7    10    1
   10    10    11    1
   11    10    12    1
   12    10    13    1
@<TRIPOS>SUBSTRUCTURE
       1 MOL1            1 RESIDUE      1      MOL     
@<SCITEGIC>MOL_PROPERTY
VConf Rank
SciTegic.value.IntegerValue
32

@<SCITEGIC>MOL_PROPERTY
Conf_Id
SciTegic.value.IntegerValue
36

@<SCITEGIC>MOL_PROPERTY
Delta U+W
SciTegic.value.DoubleValue
0.272

@<SCITEGIC>MOL_PROPERTY
U+W
SciTegic.value.DoubleValue
-58.060

@<SCITEGIC>MOL_PROPERTY
Grad RMS
SciTegic.value.DoubleValue
0.000000

@<SCITEGIC>MOL_PROPERTY
U
SciTegic.value.DoubleValue
9.781

@<SCITEGIC>MOL_PROPERTY
W
SciTegic.value.DoubleValue
-67.841

@<SCITEGIC>MOL_PROPERTY
W(PB)
SciTegic.value.DoubleValue
-69.537

@<SCITEGIC>MOL_PROPERTY
W(SA)
SciTegic.value.DoubleValue
1.696

@<SCITEGIC>MOL_PROPERTY
Valence
SciTegic.value.DoubleValue
6.123

@<SCITEGIC>MOL_PROPERTY
Coulomb
SciTegic.value.DoubleValue
3.449

@<SCITEGIC>MOL_PROPERTY
VdW
SciTegic.value.DoubleValue
0.209

@<SCITEGIC>MOL_PROPERTY
VdW6
SciTegic.value.DoubleValue
-3.762

@<SCITEGIC>MOL_PROPERTY
VdW12
SciTegic.value.DoubleValue
3.972

@<SCITEGIC>MOL_PROPERTY
Bond
SciTegic.value.DoubleValue
0.078

@<SCITEGIC>MOL_PROPERTY
Angle
SciTegic.value.DoubleValue
2.428

@<SCITEGIC>MOL_PROPERTY
Pdih
SciTegic.value.DoubleValue
3.616

@<SCITEGIC>MOL_PROPERTY
Idih
SciTegic.value.DoubleValue
0.002

@<SCITEGIC>MOL_PROPERTY
Tether
SciTegic.value.DoubleValue
0.000

@<TRIPOS>MOLECULE
guest-6_confgen4.mol2 : confsearch ligand conformer 33
          13          12           1
SMALL
USER_CHARGES
 
@<TRIPOS>ATOM
       1    C1      19.006727   20.676309   20.979422 C.2        1 MOL1         0.6021
       2    O1      19.077108   20.398817   19.798163 O.co2      1 MOL1        -0.6904
       3    O2      18.465064   21.682143   21.391364 O.co2      1 MOL1        -0.6904
       4    C2      19.618996   19.736047   22.019477 C.3        1 MOL1        -0.2102
       5    H1      18.818825   19.446867   22.711171 H          1 MOL1         0.0687
       6    H2      20.347662   20.316733   22.597566 H          1 MOL1         0.0687
       7    C3      20.299600   18.465105   21.447252 C.3        1 MOL1        -0.1974
       8    H3      19.568462   17.886127   20.865894 H          1 MOL1         0.0689
       9    H4      21.099137   18.757062   20.752086 H          1 MOL1         0.0689
      10    C4      20.886104   17.580510   22.565885 C.3        1 MOL1        -0.2987
      11    H5      20.100392   17.249450   23.257679 H          1 MOL1         0.0700
      12    H6      21.362993   16.687065   22.142105 H          1 MOL1         0.0700
      13    H7      21.643321   18.127410   23.142986 H          1 MOL1         0.0700
@<TRIPOS>BOND
    1     1     2    1
    2     1     3    2
    3     1     4    1
    4     4     5    1
    5     4     6    1
    6     4     7    1
    7     7     8    1
    8     7     9    1
    9     7    10    1
   10    10    11    1
   11    10    12    1
   12    10    13    1
@<TRIPOS>SUBSTRUCTURE
       1 MOL1            1 RESIDUE      1      MOL     
@<SCITEGIC>MOL_PROPERTY
VConf Rank
SciTegic.value.IntegerValue
33

@<SCITEGIC>MOL_PROPERTY
Conf_Id
SciTegic.value.IntegerValue
0

@<SCITEGIC>MOL_PROPERTY
Delta U+W
SciTegic.value.DoubleValue
0.000

@<SCITEGIC>MOL_PROPERTY
U+W
SciTegic.value.DoubleValue
-58.332

@<SCITEGIC>MOL_PROPERTY
Grad RMS
SciTegic.value.DoubleValue
0.000000

@<SCITEGIC>MOL_PROPERTY
U
SciTegic.value.DoubleValue
8.390

@<SCITEGIC>MOL_PROPERTY
W
SciTegic.value.DoubleValue
-66.722

@<SCITEGIC>MOL_PROPERTY
W(PB)
SciTegic.value.DoubleValue
-68.455

@<SCITEGIC>MOL_PROPERTY
W(SA)
SciTegic.value.DoubleValue
1.733

@<SCITEGIC>MOL_PROPERTY
Valence
SciTegic.value.DoubleValue
6.333

@<SCITEGIC>MOL_PROPERTY
Coulomb
SciTegic.value.DoubleValue
1.215

@<SCITEGIC>MOL_PROPERTY
VdW
SciTegic.value.DoubleValue
0.842

@<SCITEGIC>MOL_PROPERTY
VdW6
SciTegic.value.DoubleValue
-3.344

@<SCITEGIC>MOL_PROPERTY
VdW12
SciTegic.value.DoubleValue
4.186

@<SCITEGIC>MOL_PROPERTY
Bond
SciTegic.value.DoubleValue
0.091

@<SCITEGIC>MOL_PROPERTY
Angle
SciTegic.value.DoubleValue
2.713

@<SCITEGIC>MOL_PROPERTY
Pdih
SciTegic.value.DoubleValue
3.529

@<SCITEGIC>MOL_PROPERTY
Idih
SciTegic.value.DoubleValue
0.000

@<SCITEGIC>MOL_PROPERTY
Tether
SciTegic.value.DoubleValue
0.000

@<TRIPOS>MOLECULE
guest-6_confgen4.mol2 : confsearch ligand conformer 34
          13          12           1
SMALL
USER_CHARGES
 
@<TRIPOS>ATOM
       1    C1      18.479707   20.131178   20.837368 C.2        1 MOL1         0.6021
       2    O1      18.648237   20.313621   19.648388 O.co2      1 MOL1        -0.6904
       3    O2      17.791906   20.848763   21.535481 O.co2      1 MOL1        -0.6904
       4    C2      19.184742   18.948406   21.492712 C.3        1 MOL1        -0.2102
       5    H1      19.256759   18.141488   20.753310 H          1 MOL1         0.0687
       6    H2      18.550563   18.582786   22.309509 H          1 MOL1         0.0687
       7    C3      20.591728   19.305764   22.029866 C.3        1 MOL1        -0.1974
       8    H3      21.214647   19.679917   21.205365 H          1 MOL1         0.0689
       9    H4      20.508302   20.121198   22.761939 H          1 MOL1         0.0689
      10    C4      21.277237   18.090246   22.685521 C.3        1 MOL1        -0.2987
      11    H5      22.272584   18.363002   23.059888 H          1 MOL1         0.0700
      12    H6      20.687234   17.716202   23.532600 H          1 MOL1         0.0700
      13    H7      21.399028   17.271565   21.964075 H          1 MOL1         0.0700
@<TRIPOS>BOND
    1     1     2    1
    2     1     3    2
    3     1     4    1
    4     4     5    1
    5     4     6    1
    6     4     7    1
    7     7     8    1
    8     7     9    1
    9     7    10    1
   10    10    11    1
   11    10    12    1
   12    10    13    1
@<TRIPOS>SUBSTRUCTURE
       1 MOL1            1 RESIDUE      1      MOL     
@<SCITEGIC>MOL_PROPERTY
VConf Rank
SciTegic.value.IntegerValue
34

@<SCITEGIC>MOL_PROPERTY
Conf_Id
SciTegic.value.IntegerValue
1

@<SCITEGIC>MOL_PROPERTY
Delta U+W
SciTegic.value.DoubleValue
-1.339

@<SCITEGIC>MOL_PROPERTY
U+W
SciTegic.value.DoubleValue
-59.672

@<SCITEGIC>MOL_PROPERTY
Grad RMS
SciTegic.value.DoubleValue
0.000000

@<SCITEGIC>MOL_PROPERTY
U
SciTegic.value.DoubleValue
7.389

@<SCITEGIC>MOL_PROPERTY
W
SciTegic.value.DoubleValue
-67.061

@<SCITEGIC>MOL_PROPERTY
W(PB)
SciTegic.value.DoubleValue
-68.767

@<SCITEGIC>MOL_PROPERTY
W(SA)
SciTegic.value.DoubleValue
1.707

@<SCITEGIC>MOL_PROPERTY
Valence
SciTegic.value.DoubleValue
5.822

@<SCITEGIC>MOL_PROPERTY
Coulomb
SciTegic.value.DoubleValue
1.255

@<SCITEGIC>MOL_PROPERTY
VdW
SciTegic.value.DoubleValue
0.312

@<SCITEGIC>MOL_PROPERTY
VdW6
SciTegic.value.DoubleValue
-3.061

@<SCITEGIC>MOL_PROPERTY
VdW12
SciTegic.value.DoubleValue
3.372

@<SCITEGIC>MOL_PROPERTY
Bond
SciTegic.value.DoubleValue
0.059

@<SCITEGIC>MOL_PROPERTY
Angle
SciTegic.value.DoubleValue
2.241

@<SCITEGIC>MOL_PROPERTY
Pdih
SciTegic.value.DoubleValue
3.522

@<SCITEGIC>MOL_PROPERTY
Idih
SciTegic.value.DoubleValue
0.000

@<SCITEGIC>MOL_PROPERTY
Tether
SciTegic.value.DoubleValue
0.000

@<TRIPOS>MOLECULE
guest-6_confgen4.mol2 : confsearch ligand conformer 35
          13          12           1
SMALL
USER_CHARGES
 
@<TRIPOS>ATOM
       1    C1      20.569631   17.465528   21.127059 C.2        1 MOL1         0.6021
       2    O1      19.726729   17.014113   20.377500 O.co2      1 MOL1        -0.6904
       3    O2      21.756580   17.480554   20.868539 O.co2      1 MOL1        -0.6904
       4    C2      20.114425   18.009052   22.479130 C.3        1 MOL1        -0.2102
       5    H1      20.985040   18.072892   23.143390 H          1 MOL1         0.0687
       6    H2      19.435329   17.268126   22.917585 H          1 MOL1         0.0687
       7    C3      19.399254   19.382388   22.402854 C.3        1 MOL1        -0.1974
       8    H3      18.553895   19.318420   21.703426 H          1 MOL1         0.0689
       9    H4      18.976423   19.623165   23.387797 H          1 MOL1         0.0689
      10    C4      20.348396   20.519080   21.970429 C.3        1 MOL1        -0.2987
      11    H5      20.756416   20.332726   20.968122 H          1 MOL1         0.0700
      12    H6      19.816329   21.478970   21.945707 H          1 MOL1         0.0700
      13    H7      21.189739   20.614995   22.669238 H          1 MOL1         0.0700
@<TRIPOS>BOND
    1     1     2    1
    2     1     3    2
    3     1     4    1
    4     4     5    1
    5     4     6    1
    6     4     7    1
    7     7     8    1
    8     7     9    1
    9     7    10    1
   10    10    11    1
   11    10    12    1
   12    10    13    1
@<TRIPOS>SUBSTRUCTURE
       1 MOL1            1 RESIDUE      1      MOL     
@<SCITEGIC>MOL_PROPERTY
VConf Rank
SciTegic.value.IntegerValue
35

@<SCITEGIC>MOL_PROPERTY
Conf_Id
SciTegic.value.IntegerValue
4

@<SCITEGIC>MOL_PROPERTY
Delta U+W
SciTegic.value.DoubleValue
0.281

@<SCITEGIC>MOL_PROPERTY
U+W
SciTegic.value.DoubleValue
-58.051

@<SCITEGIC>MOL_PROPERTY
Grad RMS
SciTegic.value.DoubleValue
0.000000

@<SCITEGIC>MOL_PROPERTY
U
SciTegic.value.DoubleValue
9.781

@<SCITEGIC>MOL_PROPERTY
W
SciTegic.value.DoubleValue
-67.832

@<SCITEGIC>MOL_PROPERTY
W(PB)
SciTegic.value.DoubleValue
-69.535

@<SCITEGIC>MOL_PROPERTY
W(SA)
SciTegic.value.DoubleValue
1.703

@<SCITEGIC>MOL_PROPERTY
Valence
SciTegic.value.DoubleValue
6.123

@<SCITEGIC>MOL_PROPERTY
Coulomb
SciTegic.value.DoubleValue
3.449

@<SCITEGIC>MOL_PROPERTY
VdW
SciTegic.value.DoubleValue
0.209

@<SCITEGIC>MOL_PROPERTY
VdW6
SciTegic.value.DoubleValue
-3.762

@<SCITEGIC>MOL_PROPERTY
VdW12
SciTegic.value.DoubleValue
3.972

@<SCITEGIC>MOL_PROPERTY
Bond
SciTegic.value.DoubleValue
0.078

@<SCITEGIC>MOL_PROPERTY
Angle
SciTegic.value.DoubleValue
2.428

@<SCITEGIC>MOL_PROPERTY
Pdih
SciTegic.value.DoubleValue
3.616

@<SCITEGIC>MOL_PROPERTY
Idih
SciTegic.value.DoubleValue
0.002

@<SCITEGIC>MOL_PROPERTY
Tether
SciTegic.value.DoubleValue
0.000

@<TRIPOS>MOLECULE
guest-6_confgen4.mol2 : confsearch ligand conformer 36
          13          12           1
SMALL
USER_CHARGES
 
@<TRIPOS>ATOM
       1    C1      20.303944   20.718002   21.660370 C.2        1 MOL1         0.6021
       2    O1      21.360955   21.109279   22.113730 O.co2      1 MOL1        -0.6904
       3    O2      19.839713   21.111446   20.608805 O.co2      1 MOL1        -0.6904
       4    C2      19.497485   19.705477   22.469779 C.3        1 MOL1        -0.2102
       5    H1      18.464079   20.069666   22.512508 H          1 MOL1         0.0687
       6    H2      19.873978   19.699333   23.500071 H          1 MOL1         0.0687
       7    C3      19.514230   18.269147   21.886672 C.3        1 MOL1        -0.1974
       8    H3      18.795096   17.648354   22.438336 H          1 MOL1         0.0689
       9    H4      19.174686   18.292545   20.841644 H          1 MOL1         0.0689
      10    C4      20.909421   17.615721   21.966677 C.3        1 MOL1        -0.2987
      11    H5      21.258597   17.562055   23.006190 H          1 MOL1         0.0700
      12    H6      20.882017   16.594651   21.564484 H          1 MOL1         0.0700
      13    H7      21.646809   18.187500   21.387752 H          1 MOL1         0.0700
@<TRIPOS>BOND
    1     1     2    1
    2     1     3    2
    3     1     4    1
    4     4     5    1
    5     4     6    1
    6     4     7    1
    7     7     8    1
    8     7     9    1
    9     7    10    1
   10    10    11    1
   11    10    12    1
   12    10    13    1
@<TRIPOS>SUBSTRUCTURE
       1 MOL1            1 RESIDUE      1      MOL     
@<SCITEGIC>MOL_PROPERTY
VConf Rank
SciTegic.value.IntegerValue
36

@<SCITEGIC>MOL_PROPERTY
Conf_Id
SciTegic.value.IntegerValue
36

@<SCITEGIC>MOL_PROPERTY
Delta U+W
SciTegic.value.DoubleValue
0.272

@<SCITEGIC>MOL_PROPERTY
U+W
SciTegic.value.DoubleValue
-58.060

@<SCITEGIC>MOL_PROPERTY
Grad RMS
SciTegic.value.DoubleValue
0.000000

@<SCITEGIC>MOL_PROPERTY
U
SciTegic.value.DoubleValue
9.781

@<SCITEGIC>MOL_PROPERTY
W
SciTegic.value.DoubleValue
-67.841

@<SCITEGIC>MOL_PROPERTY
W(PB)
SciTegic.value.DoubleValue
-69.537

@<SCITEGIC>MOL_PROPERTY
W(SA)
SciTegic.value.DoubleValue
1.696

@<SCITEGIC>MOL_PROPERTY
Valence
SciTegic.value.DoubleValue
6.123

@<SCITEGIC>MOL_PROPERTY
Coulomb
SciTegic.value.DoubleValue
3.449

@<SCITEGIC>MOL_PROPERTY
VdW
SciTegic.value.DoubleValue
0.209

@<SCITEGIC>MOL_PROPERTY
VdW6
SciTegic.value.DoubleValue
-3.762

@<SCITEGIC>MOL_PROPERTY
VdW12
SciTegic.value.DoubleValue
3.972

@<SCITEGIC>MOL_PROPERTY
Bond
SciTegic.value.DoubleValue
0.078

@<SCITEGIC>MOL_PROPERTY
Angle
SciTegic.value.DoubleValue
2.428

@<SCITEGIC>MOL_PROPERTY
Pdih
SciTegic.value.DoubleValue
3.616

@<SCITEGIC>MOL_PROPERTY
Idih
SciTegic.value.DoubleValue
0.002

@<SCITEGIC>MOL_PROPERTY
Tether
SciTegic.value.DoubleValue
0.000

@<TRIPOS>MOLECULE
guest-6_confgen4.mol2 : confsearch ligand conformer 37
          13          12           1
SMALL
USER_CHARGES
 
@<TRIPOS>ATOM
       1    C1      18.083322   19.394629   21.026184 C.2        1 MOL1         0.6021
       2    O1      18.376562   20.114129   20.091487 O.co2      1 MOL1        -0.6904
       3    O2      16.938650   19.086307   21.289739 O.co2      1 MOL1        -0.6904
       4    C2      19.183645   18.836213   21.930698 C.3        1 MOL1        -0.2102
       5    H1      19.100232   17.743046   21.911597 H          1 MOL1         0.0687
       6    H2      18.959741   19.156592   22.955179 H          1 MOL1         0.0687
       7    C3      20.628927   19.256530   21.555932 C.3        1 MOL1        -0.1974
       8    H3      20.850270   18.937118   20.527954 H          1 MOL1         0.0689
       9    H4      20.709590   20.352416   21.572745 H          1 MOL1         0.0689
      10    C4      21.667111   18.647960   22.520116 C.3        1 MOL1        -0.2987
      11    H5      21.627761   17.550916   22.498460 H          1 MOL1         0.0700
      12    H6      22.682673   18.956243   22.239310 H          1 MOL1         0.0700
      13    H7      21.485907   18.977545   23.551650 H          1 MOL1         0.0700
@<TRIPOS>BOND
    1     1     2    1
    2     1     3    2
    3     1     4    1
    4     4     5    1
    5     4     6    1
    6     4     7    1
    7     7     8    1
    8     7     9    1
    9     7    10    1
   10    10    11    1
   11    10    12    1
   12    10    13    1
@<TRIPOS>SUBSTRUCTURE
       1 MOL1            1 RESIDUE      1      MOL     
@<SCITEGIC>MOL_PROPERTY
VConf Rank
SciTegic.value.IntegerValue
37

@<SCITEGIC>MOL_PROPERTY
Conf_Id
SciTegic.value.IntegerValue
0

@<SCITEGIC>MOL_PROPERTY
Delta U+W
SciTegic.value.DoubleValue
0.000

@<SCITEGIC>MOL_PROPERTY
U+W
SciTegic.value.DoubleValue
-58.332

@<SCITEGIC>MOL_PROPERTY
Grad RMS
SciTegic.value.DoubleValue
0.000000

@<SCITEGIC>MOL_PROPERTY
U
SciTegic.value.DoubleValue
8.390

@<SCITEGIC>MOL_PROPERTY
W
SciTegic.value.DoubleValue
-66.722

@<SCITEGIC>MOL_PROPERTY
W(PB)
SciTegic.value.DoubleValue
-68.455

@<SCITEGIC>MOL_PROPERTY
W(SA)
SciTegic.value.DoubleValue
1.733

@<SCITEGIC>MOL_PROPERTY
Valence
SciTegic.value.DoubleValue
6.333

@<SCITEGIC>MOL_PROPERTY
Coulomb
SciTegic.value.DoubleValue
1.215

@<SCITEGIC>MOL_PROPERTY
VdW
SciTegic.value.DoubleValue
0.842

@<SCITEGIC>MOL_PROPERTY
VdW6
SciTegic.value.DoubleValue
-3.344

@<SCITEGIC>MOL_PROPERTY
VdW12
SciTegic.value.DoubleValue
4.186

@<SCITEGIC>MOL_PROPERTY
Bond
SciTegic.value.DoubleValue
0.091

@<SCITEGIC>MOL_PROPERTY
Angle
SciTegic.value.DoubleValue
2.713

@<SCITEGIC>MOL_PROPERTY
Pdih
SciTegic.value.DoubleValue
3.529

@<SCITEGIC>MOL_PROPERTY
Idih
SciTegic.value.DoubleValue
0.000

@<SCITEGIC>MOL_PROPERTY
Tether
SciTegic.value.DoubleValue
0.000

@<TRIPOS>MOLECULE
guest-6_confgen4.mol2 : confsearch ligand conformer 38
          13          12           1
SMALL
USER_CHARGES
 
@<TRIPOS>ATOM
       1    C1      21.718887   17.994538   21.217846 C.2        1 MOL1         0.6021
       2    O1      22.460462   17.621836   22.104706 O.co2      1 MOL1        -0.6904
       3    O2      22.083908   18.190837   20.076099 O.co2      1 MOL1        -0.6904
       4    C2      20.254689   18.247736   21.560651 C.3        1 MOL1        -0.2102
       5    H1      19.961724   17.543088   22.348472 H          1 MOL1         0.0687
       6    H2      19.651194   18.012299   20.675563 H          1 MOL1         0.0687
       7    C3      19.984030   19.701316   22.018579 C.3        1 MOL1        -0.1974
       8    H3      20.600897   19.929011   22.899176 H          1 MOL1         0.0689
       9    H4      20.290186   20.398289   21.225912 H          1 MOL1         0.0689
      10    C4      18.496541   19.924590   22.357421 C.3        1 MOL1        -0.2987
      11    H5      18.324517   20.959872   22.679697 H          1 MOL1         0.0700
      12    H6      17.861261   19.731787   21.482891 H          1 MOL1         0.0700
      13    H7      18.174379   19.258939   23.169010 H          1 MOL1         0.0700
@<TRIPOS>BOND
    1     1     2    1
    2     1     3    2
    3     1     4    1
    4     4     5    1
    5     4     6    1
    6     4     7    1
    7     7     8    1
    8     7     9    1
    9     7    10    1
   10    10    11    1
   11    10    12    1
   12    10    13    1
@<TRIPOS>SUBSTRUCTURE
       1 MOL1            1 RESIDUE      1      MOL     
@<SCITEGIC>MOL_PROPERTY
VConf Rank
SciTegic.value.IntegerValue
38

@<SCITEGIC>MOL_PROPERTY
Conf_Id
SciTegic.value.IntegerValue
1

@<SCITEGIC>MOL_PROPERTY
Delta U+W
SciTegic.value.DoubleValue
-1.339

@<SCITEGIC>MOL_PROPERTY
U+W
SciTegic.value.DoubleValue
-59.672

@<SCITEGIC>MOL_PROPERTY
Grad RMS
SciTegic.value.DoubleValue
0.000000

@<SCITEGIC>MOL_PROPERTY
U
SciTegic.value.DoubleValue
7.389

@<SCITEGIC>MOL_PROPERTY
W
SciTegic.value.DoubleValue
-67.061

@<SCITEGIC>MOL_PROPERTY
W(PB)
SciTegic.value.DoubleValue
-68.767

@<SCITEGIC>MOL_PROPERTY
W(SA)
SciTegic.value.DoubleValue
1.707

@<SCITEGIC>MOL_PROPERTY
Valence
SciTegic.value.DoubleValue
5.822

@<SCITEGIC>MOL_PROPERTY
Coulomb
SciTegic.value.DoubleValue
1.255

@<SCITEGIC>MOL_PROPERTY
VdW
SciTegic.value.DoubleValue
0.312

@<SCITEGIC>MOL_PROPERTY
VdW6
SciTegic.value.DoubleValue
-3.061

@<SCITEGIC>MOL_PROPERTY
VdW12
SciTegic.value.DoubleValue
3.372

@<SCITEGIC>MOL_PROPERTY
Bond
SciTegic.value.DoubleValue
0.059

@<SCITEGIC>MOL_PROPERTY
Angle
SciTegic.value.DoubleValue
2.241

@<SCITEGIC>MOL_PROPERTY
Pdih
SciTegic.value.DoubleValue
3.522

@<SCITEGIC>MOL_PROPERTY
Idih
SciTegic.value.DoubleValue
0.000

@<SCITEGIC>MOL_PROPERTY
Tether
SciTegic.value.DoubleValue
0.000

@<TRIPOS>MOLECULE
guest-6_confgen4.mol2 : confsearch ligand conformer 39
          13          12           1
SMALL
USER_CHARGES
 
@<TRIPOS>ATOM
       1    C1      19.872778   17.573155   20.900500 C.2        1 MOL1         0.6021
       2    O1      18.844729   17.583063   20.253109 O.co2      1 MOL1        -0.6904
       3    O2      20.941763   17.207433   20.453933 O.co2      1 MOL1        -0.6904
       4    C2      19.807897   18.009754   22.361972 C.3        1 MOL1        -0.2102
       5    H1      20.706200   17.647814   22.877084 H          1 MOL1         0.0687
       6    H2      18.952873   17.497217   22.818729 H          1 MOL1         0.0687
       7    C3      19.658254   19.539875   22.561158 C.3        1 MOL1        -0.1974
       8    H3      18.779251   19.898563   22.007426 H          1 MOL1         0.0689
       9    H4      19.468693   19.747731   23.623107 H          1 MOL1         0.0689
      10    C4      20.911261   20.319163   22.111034 C.3        1 MOL1        -0.2987
      11    H5      21.105755   20.169516   21.040705 H          1 MOL1         0.0700
      12    H6      20.780207   21.395340   22.283558 H          1 MOL1         0.0700
      13    H7      21.798521   19.991384   22.668459 H          1 MOL1         0.0700
@<TRIPOS>BOND
    1     1     2    1
    2     1     3    2
    3     1     4    1
    4     4     5    1
    5     4     6    1
    6     4     7    1
    7     7     8    1
    8     7     9    1
    9     7    10    1
   10    10    11    1
   11    10    12    1
   12    10    13    1
@<TRIPOS>SUBSTRUCTURE
       1 MOL1            1 RESIDUE      1      MOL     
@<SCITEGIC>MOL_PROPERTY
VConf Rank
SciTegic.value.IntegerValue
39

@<SCITEGIC>MOL_PROPERTY
Conf_Id
SciTegic.value.IntegerValue
4

@<SCITEGIC>MOL_PROPERTY
Delta U+W
SciTegic.value.DoubleValue
0.281

@<SCITEGIC>MOL_PROPERTY
U+W
SciTegic.value.DoubleValue
-58.051

@<SCITEGIC>MOL_PROPERTY
Grad RMS
SciTegic.value.DoubleValue
0.000000

@<SCITEGIC>MOL_PROPERTY
U
SciTegic.value.DoubleValue
9.781

@<SCITEGIC>MOL_PROPERTY
W
SciTegic.value.DoubleValue
-67.832

@<SCITEGIC>MOL_PROPERTY
W(PB)
SciTegic.value.DoubleValue
-69.535

@<SCITEGIC>MOL_PROPERTY
W(SA)
SciTegic.value.DoubleValue
1.703

@<SCITEGIC>MOL_PROPERTY
Valence
SciTegic.value.DoubleValue
6.123

@<SCITEGIC>MOL_PROPERTY
Coulomb
SciTegic.value.DoubleValue
3.449

@<SCITEGIC>MOL_PROPERTY
VdW
SciTegic.value.DoubleValue
0.209

@<SCITEGIC>MOL_PROPERTY
VdW6
SciTegic.value.DoubleValue
-3.762

@<SCITEGIC>MOL_PROPERTY
VdW12
SciTegic.value.DoubleValue
3.972

@<SCITEGIC>MOL_PROPERTY
Bond
SciTegic.value.DoubleValue
0.078

@<SCITEGIC>MOL_PROPERTY
Angle
SciTegic.value.DoubleValue
2.428

@<SCITEGIC>MOL_PROPERTY
Pdih
SciTegic.value.DoubleValue
3.616

@<SCITEGIC>MOL_PROPERTY
Idih
SciTegic.value.DoubleValue
0.002

@<SCITEGIC>MOL_PROPERTY
Tether
SciTegic.value.DoubleValue
0.000

@<TRIPOS>MOLECULE
guest-6_confgen4.mol2 : confsearch ligand conformer 40
          13          12           1
SMALL
USER_CHARGES
 
@<TRIPOS>ATOM
       1    C1      18.886295   19.997863   22.793817 C.2        1 MOL1         0.6021
       2    O1      18.620169   20.942618   22.077912 O.co2      1 MOL1        -0.6904
       3    O2      18.060852   19.416262   23.469451 O.co2      1 MOL1        -0.6904
       4    C2      20.339605   19.537978   22.878213 C.3        1 MOL1        -0.2102
       5    H1      20.586594   19.427953   23.940887 H          1 MOL1         0.0687
       6    H2      20.983503   20.333842   22.484154 H          1 MOL1         0.0687
       7    C3      20.627128   18.204664   22.141367 C.3        1 MOL1        -0.1974
       8    H3      21.647872   17.875125   22.378761 H          1 MOL1         0.0689
       9    H4      19.948719   17.424616   22.514472 H          1 MOL1         0.0689
      10    C4      20.482142   18.332785   20.610847 C.3        1 MOL1        -0.2987
      11    H5      21.168177   19.092511   20.213904 H          1 MOL1         0.0700
      12    H6      20.711245   17.378315   20.119324 H          1 MOL1         0.0700
      13    H7      19.458708   18.618643   20.333910 H          1 MOL1         0.0700
@<TRIPOS>BOND
    1     1     2    1
    2     1     3    2
    3     1     4    1
    4     4     5    1
    5     4     6    1
    6     4     7    1
    7     7     8    1
    8     7     9    1
    9     7    10    1
   10    10    11    1
   11    10    12    1
   12    10    13    1
@<TRIPOS>SUBSTRUCTURE
       1 MOL1            1 RESIDUE      1      MOL     
@<SCITEGIC>MOL_PROPERTY
VConf Rank
SciTegic.value.IntegerValue
40

@<SCITEGIC>MOL_PROPERTY
Conf_Id
SciTegic.value.IntegerValue
36

@<SCITEGIC>MOL_PROPERTY
Delta U+W
SciTegic.value.DoubleValue
0.272

@<SCITEGIC>MOL_PROPERTY
U+W
SciTegic.value.DoubleValue
-58.060

@<SCITEGIC>MOL_PROPERTY
Grad RMS
SciTegic.value.DoubleValue
0.000000

@<SCITEGIC>MOL_PROPERTY
U
SciTegic.value.DoubleValue
9.781

@<SCITEGIC>MOL_PROPERTY
W
SciTegic.value.DoubleValue
-67.841

@<SCITEGIC>MOL_PROPERTY
W(PB)
SciTegic.value.DoubleValue
-69.537

@<SCITEGIC>MOL_PROPERTY
W(SA)
SciTegic.value.DoubleValue
1.696

@<SCITEGIC>MOL_PROPERTY
Valence
SciTegic.value.DoubleValue
6.123

@<SCITEGIC>MOL_PROPERTY
Coulomb
SciTegic.value.DoubleValue
3.449

@<SCITEGIC>MOL_PROPERTY
VdW
SciTegic.value.DoubleValue
0.209

@<SCITEGIC>MOL_PROPERTY
VdW6
SciTegic.value.DoubleValue
-3.762

@<SCITEGIC>MOL_PROPERTY
VdW12
SciTegic.value.DoubleValue
3.972

@<SCITEGIC>MOL_PROPERTY
Bond
SciTegic.value.DoubleValue
0.078

@<SCITEGIC>MOL_PROPERTY
Angle
SciTegic.value.DoubleValue
2.428

@<SCITEGIC>MOL_PROPERTY
Pdih
SciTegic.value.DoubleValue
3.616

@<SCITEGIC>MOL_PROPERTY
Idih
SciTegic.value.DoubleValue
0.002

@<SCITEGIC>MOL_PROPERTY
Tether
SciTegic.value.DoubleValue
0.000

@<TRIPOS>MOLECULE
guest-6_confgen4.mol2 : confsearch ligand conformer 41
          13          12           1
SMALL
USER_CHARGES
 
@<TRIPOS>ATOM
       1    C1      19.361629   17.322625   22.958654 C.2        1 MOL1         0.6021
       2    O1      19.561079   17.734827   24.084549 O.co2      1 MOL1        -0.6904
       3    O2      18.902567   16.222037   22.728952 O.co2      1 MOL1        -0.6904
       4    C2      19.693964   18.206584   21.754971 C.3        1 MOL1        -0.2102
       5    H1      18.773630   18.324010   21.170562 H          1 MOL1         0.0687
       6    H2      20.403095   17.653237   21.127852 H          1 MOL1         0.0687
       7    C3      20.277551   19.602514   22.096677 C.3        1 MOL1        -0.1974
       8    H3      19.566676   20.154250   22.727548 H          1 MOL1         0.0689
       9    H4      21.198113   19.482656   22.684856 H          1 MOL1         0.0689
      10    C4      20.580757   20.419897   20.824755 C.3        1 MOL1        -0.2987
      11    H5      19.669162   20.580318   20.234177 H          1 MOL1         0.0700
      12    H6      20.992506   21.403398   21.086377 H          1 MOL1         0.0700
      13    H7      21.313663   19.903293   20.191121 H          1 MOL1         0.0700
@<TRIPOS>BOND
    1     1     2    1
    2     1     3    2
    3     1     4    1
    4     4     5    1
    5     4     6    1
    6     4     7    1
    7     7     8    1
    8     7     9    1
    9     7    10    1
   10    10    11    1
   11    10    12    1
   12    10    13    1
@<TRIPOS>SUBSTRUCTURE
       1 MOL1            1 RESIDUE      1      MOL     
@<SCITEGIC>MOL_PROPERTY
VConf Rank
SciTegic.value.IntegerValue
41

@<SCITEGIC>MOL_PROPERTY
Conf_Id
SciTegic.value.IntegerValue
0

@<SCITEGIC>MOL_PROPERTY
Delta U+W
SciTegic.value.DoubleValue
0.000

@<SCITEGIC>MOL_PROPERTY
U+W
SciTegic.value.DoubleValue
-58.332

@<SCITEGIC>MOL_PROPERTY
Grad RMS
SciTegic.value.DoubleValue
0.000000

@<SCITEGIC>MOL_PROPERTY
U
SciTegic.value.DoubleValue
8.390

@<SCITEGIC>MOL_PROPERTY
W
SciTegic.value.DoubleValue
-66.722

@<SCITEGIC>MOL_PROPERTY
W(PB)
SciTegic.value.DoubleValue
-68.455

@<SCITEGIC>MOL_PROPERTY
W(SA)
SciTegic.value.DoubleValue
1.733

@<SCITEGIC>MOL_PROPERTY
Valence
SciTegic.value.DoubleValue
6.333

@<SCITEGIC>MOL_PROPERTY
Coulomb
SciTegic.value.DoubleValue
1.215

@<SCITEGIC>MOL_PROPERTY
VdW
SciTegic.value.DoubleValue
0.842

@<SCITEGIC>MOL_PROPERTY
VdW6
SciTegic.value.DoubleValue
-3.344

@<SCITEGIC>MOL_PROPERTY
VdW12
SciTegic.value.DoubleValue
4.186

@<SCITEGIC>MOL_PROPERTY
Bond
SciTegic.value.DoubleValue
0.091

@<SCITEGIC>MOL_PROPERTY
Angle
SciTegic.value.DoubleValue
2.713

@<SCITEGIC>MOL_PROPERTY
Pdih
SciTegic.value.DoubleValue
3.529

@<SCITEGIC>MOL_PROPERTY
Idih
SciTegic.value.DoubleValue
0.000

@<SCITEGIC>MOL_PROPERTY
Tether
SciTegic.value.DoubleValue
0.000

@<TRIPOS>MOLECULE
guest-6_confgen4.mol2 : confsearch ligand conformer 42
          13          12           1
SMALL
USER_CHARGES
 
@<TRIPOS>ATOM
       1    C1      21.606938   20.351855   21.483042 C.2        1 MOL1         0.6021
       2    O1      22.643701   20.085692   22.057186 O.co2      1 MOL1        -0.6904
       3    O2      21.315964   21.469589   21.107056 O.co2      1 MOL1        -0.6904
       4    C2      20.608520   19.225574   21.237789 C.3        1 MOL1        -0.2102
       5    H1      21.172006   18.296934   21.085707 H          1 MOL1         0.0687
       6    H2      20.077090   19.438171   20.302159 H          1 MOL1         0.0687
       7    C3      19.597518   19.051392   22.396834 C.3        1 MOL1        -0.1974
       8    H3      20.141312   18.848830   23.330150 H          1 MOL1         0.0689
       9    H4      19.046110   19.990228   22.546364 H          1 MOL1         0.0689
      10    C4      18.603199   17.906295   22.118675 C.3        1 MOL1        -0.2987
      11    H5      17.895167   17.798300   22.950714 H          1 MOL1         0.0700
      12    H6      18.025773   18.100711   21.205254 H          1 MOL1         0.0700
      13    H7      19.129377   16.950565   21.995094 H          1 MOL1         0.0700
@<TRIPOS>BOND
    1     1     2    1
    2     1     3    2
    3     1     4    1
    4     4     5    1
    5     4     6    1
    6     4     7    1
    7     7     8    1
    8     7     9    1
    9     7    10    1
   10    10    11    1
   11    10    12    1
   12    10    13    1
@<TRIPOS>SUBSTRUCTURE
       1 MOL1            1 RESIDUE      1      MOL     
@<SCITEGIC>MOL_PROPERTY
VConf Rank
SciTegic.value.IntegerValue
42

@<SCITEGIC>MOL_PROPERTY
Conf_Id
SciTegic.value.IntegerValue
1

@<SCITEGIC>MOL_PROPERTY
Delta U+W
SciTegic.value.DoubleValue
-1.339

@<SCITEGIC>MOL_PROPERTY
U+W
SciTegic.value.DoubleValue
-59.672

@<SCITEGIC>MOL_PROPERTY
Grad RMS
SciTegic.value.DoubleValue
0.000000

@<SCITEGIC>MOL_PROPERTY
U
SciTegic.value.DoubleValue
7.389

@<SCITEGIC>MOL_PROPERTY
W
SciTegic.value.DoubleValue
-67.061

@<SCITEGIC>MOL_PROPERTY
W(PB)
SciTegic.value.DoubleValue
-68.767

@<SCITEGIC>MOL_PROPERTY
W(SA)
SciTegic.value.DoubleValue
1.707

@<SCITEGIC>MOL_PROPERTY
Valence
SciTegic.value.DoubleValue
5.822

@<SCITEGIC>MOL_PROPERTY
Coulomb
SciTegic.value.DoubleValue
1.255

@<SCITEGIC>MOL_PROPERTY
VdW
SciTegic.value.DoubleValue
0.312

@<SCITEGIC>MOL_PROPERTY
VdW6
SciTegic.value.DoubleValue
-3.061

@<SCITEGIC>MOL_PROPERTY
VdW12
SciTegic.value.DoubleValue
3.372

@<SCITEGIC>MOL_PROPERTY
Bond
SciTegic.value.DoubleValue
0.059

@<SCITEGIC>MOL_PROPERTY
Angle
SciTegic.value.DoubleValue
2.241

@<SCITEGIC>MOL_PROPERTY
Pdih
SciTegic.value.DoubleValue
3.522

@<SCITEGIC>MOL_PROPERTY
Idih
SciTegic.value.DoubleValue
0.000

@<SCITEGIC>MOL_PROPERTY
Tether
SciTegic.value.DoubleValue
0.000

@<TRIPOS>MOLECULE
guest-6_confgen4.mol2 : confsearch ligand conformer 43
          13          12           1
SMALL
USER_CHARGES
 
@<TRIPOS>ATOM
       1    C1      20.791261   17.739414   20.875154 C.2        1 MOL1         0.6021
       2    O1      20.127206   17.505753   19.884935 O.co2      1 MOL1        -0.6904
       3    O2      22.004006   17.810692   20.866573 O.co2      1 MOL1        -0.6904
       4    C2      20.063236   17.916816   22.205280 C.3        1 MOL1        -0.2102
       5    H1      20.787266   17.798164   23.020749 H          1 MOL1         0.0687
       6    H2      19.344987   17.093387   22.297312 H          1 MOL1         0.0687
       7    C3      19.318072   19.269005   22.345479 C.3        1 MOL1        -0.1974
       8    H3      18.625538   19.396451   21.501632 H          1 MOL1         0.0689
       9    H4      18.704869   19.249212   23.256777 H          1 MOL1         0.0689
      10    C4      20.283144   20.470642   22.413532 C.3        1 MOL1        -0.2987
      11    H5      20.882827   20.547628   21.496864 H          1 MOL1         0.0700
      12    H6      19.725271   21.408603   22.532286 H          1 MOL1         0.0700
      13    H7      20.970499   20.374240   23.264204 H          1 MOL1         0.0700
@<TRIPOS>BOND
    1     1     2    1
    2     1     3    2
    3     1     4    1
    4     4     5    1
    5     4     6    1
    6     4     7    1
    7     7     8    1
    8     7     9    1
    9     7    10    1
   10    10    11    1
   11    10    12    1
   12    10    13    1
@<TRIPOS>SUBSTRUCTURE
       1 MOL1            1 RESIDUE      1      MOL     
@<SCITEGIC>MOL_PROPERTY
VConf Rank
SciTegic.value.IntegerValue
43

@<SCITEGIC>MOL_PROPERTY
Conf_Id
SciTegic.value.IntegerValue
4

@<SCITEGIC>MOL_PROPERTY
Delta U+W
SciTegic.value.DoubleValue
0.281

@<SCITEGIC>MOL_PROPERTY
U+W
SciTegic.value.DoubleValue
-58.051

@<SCITEGIC>MOL_PROPERTY
Grad RMS
SciTegic.value.DoubleValue
0.000000

@<SCITEGIC>MOL_PROPERTY
U
SciTegic.value.DoubleValue
9.781

@<SCITEGIC>MOL_PROPERTY
W
SciTegic.value.DoubleValue
-67.832

@<SCITEGIC>MOL_PROPERTY
W(PB)
SciTegic.value.DoubleValue
-69.535

@<SCITEGIC>MOL_PROPERTY
W(SA)
SciTegic.value.DoubleValue
1.703

@<SCITEGIC>MOL_PROPERTY
Valence
SciTegic.value.DoubleValue
6.123

@<SCITEGIC>MOL_PROPERTY
Coulomb
SciTegic.value.DoubleValue
3.449

@<SCITEGIC>MOL_PROPERTY
VdW
SciTegic.value.DoubleValue
0.209

@<SCITEGIC>MOL_PROPERTY
VdW6
SciTegic.value.DoubleValue
-3.762

@<SCITEGIC>MOL_PROPERTY
VdW12
SciTegic.value.DoubleValue
3.972

@<SCITEGIC>MOL_PROPERTY
Bond
SciTegic.value.DoubleValue
0.078

@<SCITEGIC>MOL_PROPERTY
Angle
SciTegic.value.DoubleValue
2.428

@<SCITEGIC>MOL_PROPERTY
Pdih
SciTegic.value.DoubleValue
3.616

@<SCITEGIC>MOL_PROPERTY
Idih
SciTegic.value.DoubleValue
0.002

@<SCITEGIC>MOL_PROPERTY
Tether
SciTegic.value.DoubleValue
0.000

@<TRIPOS>MOLECULE
guest-6_confgen4.mol2 : confsearch ligand conformer 44
          13          12           1
SMALL
USER_CHARGES
 
@<TRIPOS>ATOM
       1    C1      18.521108   18.240221   22.363224 C.2        1 MOL1         0.6021
       2    O1      18.545001   17.743013   23.471430 O.co2      1 MOL1        -0.6904
       3    O2      17.554149   18.819544   21.909932 O.co2      1 MOL1        -0.6904
       4    C2      19.757109   18.100096   21.478132 C.3        1 MOL1        -0.2102
       5    H1      19.416923   17.759326   20.492974 H          1 MOL1         0.0687
       6    H2      20.393160   17.304915   21.886069 H          1 MOL1         0.0687
       7    C3      20.574182   19.407738   21.317500 C.3        1 MOL1        -0.1974
       8    H3      21.348965   19.256448   20.553501 H          1 MOL1         0.0689
       9    H4      19.918123   20.208195   20.947666 H          1 MOL1         0.0689
      10    C4      21.244757   19.850426   22.634422 C.3        1 MOL1        -0.2987
      11    H5      21.922655   19.072898   23.010315 H          1 MOL1         0.0700
      12    H6      21.830122   20.766443   22.481596 H          1 MOL1         0.0700
      13    H7      20.494757   20.053913   23.410257 H          1 MOL1         0.0700
@<TRIPOS>BOND
    1     1     2    1
    2     1     3    2
    3     1     4    1
    4     4     5    1
    5     4     6    1
    6     4     7    1
    7     7     8    1
    8     7     9    1
    9     7    10    1
   10    10    11    1
   11    10    12    1
   12    10    13    1
@<TRIPOS>SUBSTRUCTURE
       1 MOL1            1 RESIDUE      1      MOL     
@<SCITEGIC>MOL_PROPERTY
VConf Rank
SciTegic.value.IntegerValue
44

@<SCITEGIC>MOL_PROPERTY
Conf_Id
SciTegic.value.IntegerValue
36

@<SCITEGIC>MOL_PROPERTY
Delta U+W
SciTegic.value.DoubleValue
0.272

@<SCITEGIC>MOL_PROPERTY
U+W
SciTegic.value.DoubleValue
-58.060

@<SCITEGIC>MOL_PROPERTY
Grad RMS
SciTegic.value.DoubleValue
0.000000

@<SCITEGIC>MOL_PROPERTY
U
SciTegic.value.DoubleValue
9.781

@<SCITEGIC>MOL_PROPERTY
W
SciTegic.value.DoubleValue
-67.841

@<SCITEGIC>MOL_PROPERTY
W(PB)
SciTegic.value.DoubleValue
-69.537

@<SCITEGIC>MOL_PROPERTY
W(SA)
SciTegic.value.DoubleValue
1.696

@<SCITEGIC>MOL_PROPERTY
Valence
SciTegic.value.DoubleValue
6.123

@<SCITEGIC>MOL_PROPERTY
Coulomb
SciTegic.value.DoubleValue
3.449

@<SCITEGIC>MOL_PROPERTY
VdW
SciTegic.value.DoubleValue
0.209

@<SCITEGIC>MOL_PROPERTY
VdW6
SciTegic.value.DoubleValue
-3.762

@<SCITEGIC>MOL_PROPERTY
VdW12
SciTegic.value.DoubleValue
3.972

@<SCITEGIC>MOL_PROPERTY
Bond
SciTegic.value.DoubleValue
0.078

@<SCITEGIC>MOL_PROPERTY
Angle
SciTegic.value.DoubleValue
2.428

@<SCITEGIC>MOL_PROPERTY
Pdih
SciTegic.value.DoubleValue
3.616

@<SCITEGIC>MOL_PROPERTY
Idih
SciTegic.value.DoubleValue
0.002

@<SCITEGIC>MOL_PROPERTY
Tether
SciTegic.value.DoubleValue
0.000

@<TRIPOS>MOLECULE
guest-6_confgen4.mol2 : confsearch ligand conformer 45
          13          12           1
SMALL
USER_CHARGES
 
@<TRIPOS>ATOM
       1    C1      20.597617   17.781603   20.168359 C.2        1 MOL1         0.6021
       2    O1      21.248363   16.932070   20.744686 O.co2      1 MOL1        -0.6904
       3    O2      20.424910   17.780041   18.966292 O.co2      1 MOL1        -0.6904
       4    C2      19.954250   18.917928   20.965559 C.3        1 MOL1        -0.2102
       5    H1      18.876640   18.889890   20.764789 H          1 MOL1         0.0687
       6    H2      20.332136   19.861578   20.554385 H          1 MOL1         0.0687
       7    C3      20.201690   18.878737   22.496309 C.3        1 MOL1        -0.1974
       8    H3      19.824923   17.931091   22.905904 H          1 MOL1         0.0689
       9    H4      21.282220   18.903898   22.695244 H          1 MOL1         0.0689
      10    C4      19.517309   20.059438   23.214225 C.3        1 MOL1        -0.2987
      11    H5      18.430966   20.038987   23.056224 H          1 MOL1         0.0700
      12    H6      19.703431   20.014778   24.295252 H          1 MOL1         0.0700
      13    H7      19.899937   21.019605   22.843823 H          1 MOL1         0.0700
@<TRIPOS>BOND
    1     1     2    1
    2     1     3    2
    3     1     4    1
    4     4     5    1
    5     4     6    1
    6     4     7    1
    7     7     8    1
    8     7     9    1
    9     7    10    1
   10    10    11    1
   11    10    12    1
   12    10    13    1
@<TRIPOS>SUBSTRUCTURE
       1 MOL1            1 RESIDUE      1      MOL     
@<SCITEGIC>MOL_PROPERTY
VConf Rank
SciTegic.value.IntegerValue
45

@<SCITEGIC>MOL_PROPERTY
Conf_Id
SciTegic.value.IntegerValue
0

@<SCITEGIC>MOL_PROPERTY
Delta U+W
SciTegic.value.DoubleValue
0.000

@<SCITEGIC>MOL_PROPERTY
U+W
SciTegic.value.DoubleValue
-58.332

@<SCITEGIC>MOL_PROPERTY
Grad RMS
SciTegic.value.DoubleValue
0.000000

@<SCITEGIC>MOL_PROPERTY
U
SciTegic.value.DoubleValue
8.390

@<SCITEGIC>MOL_PROPERTY
W
SciTegic.value.DoubleValue
-66.722

@<SCITEGIC>MOL_PROPERTY
W(PB)
SciTegic.value.DoubleValue
-68.455

@<SCITEGIC>MOL_PROPERTY
W(SA)
SciTegic.value.DoubleValue
1.733

@<SCITEGIC>MOL_PROPERTY
Valence
SciTegic.value.DoubleValue
6.333

@<SCITEGIC>MOL_PROPERTY
Coulomb
SciTegic.value.DoubleValue
1.215

@<SCITEGIC>MOL_PROPERTY
VdW
SciTegic.value.DoubleValue
0.842

@<SCITEGIC>MOL_PROPERTY
VdW6
SciTegic.value.DoubleValue
-3.344

@<SCITEGIC>MOL_PROPERTY
VdW12
SciTegic.value.DoubleValue
4.186

@<SCITEGIC>MOL_PROPERTY
Bond
SciTegic.value.DoubleValue
0.091

@<SCITEGIC>MOL_PROPERTY
Angle
SciTegic.value.DoubleValue
2.713

@<SCITEGIC>MOL_PROPERTY
Pdih
SciTegic.value.DoubleValue
3.529

@<SCITEGIC>MOL_PROPERTY
Idih
SciTegic.value.DoubleValue
0.000

@<SCITEGIC>MOL_PROPERTY
Tether
SciTegic.value.DoubleValue
0.000

@<TRIPOS>MOLECULE
guest-6_confgen4.mol2 : confsearch ligand conformer 46
          13          12           1
SMALL
USER_CHARGES
 
@<TRIPOS>ATOM
       1    C1      19.111394   19.204054   19.918311 C.2        1 MOL1         0.6021
       2    O1      17.897552   19.176553   19.883800 O.co2      1 MOL1        -0.6904
       3    O2      19.816569   18.894433   18.979043 O.co2      1 MOL1        -0.6904
       4    C2      19.786578   19.632334   21.216849 C.3        1 MOL1        -0.2102
       5    H1      19.142869   20.371838   21.708571 H          1 MOL1         0.0687
       6    H2      20.725398   20.139204   20.962449 H          1 MOL1         0.0687
       7    C3      20.063328   18.447250   22.173318 C.3        1 MOL1        -0.1974
       8    H3      19.117635   17.941343   22.413201 H          1 MOL1         0.0689
       9    H4      20.700556   17.708741   21.666989 H          1 MOL1         0.0689
      10    C4      20.745507   18.912851   23.475293 C.3        1 MOL1        -0.2987
      11    H5      20.933453   18.059508   24.139931 H          1 MOL1         0.0700
      12    H6      21.708459   19.395840   23.263162 H          1 MOL1         0.0700
      13    H7      20.113378   19.630188   24.015105 H          1 MOL1         0.0700
@<TRIPOS>BOND
    1     1     2    1
    2     1     3    2
    3     1     4    1
    4     4     5    1
    5     4     6    1
    6     4     7    1
    7     7     8    1
    8     7     9    1
    9     7    10    1
   10    10    11    1
   11    10    12    1
   12    10    13    1
@<TRIPOS>SUBSTRUCTURE
       1 MOL1            1 RESIDUE      1      MOL     
@<SCITEGIC>MOL_PROPERTY
VConf Rank
SciTegic.value.IntegerValue
46

@<SCITEGIC>MOL_PROPERTY
Conf_Id
SciTegic.value.IntegerValue
1

@<SCITEGIC>MOL_PROPERTY
Delta U+W
SciTegic.value.DoubleValue
-1.339

@<SCITEGIC>MOL_PROPERTY
U+W
SciTegic.value.DoubleValue
-59.672

@<SCITEGIC>MOL_PROPERTY
Grad RMS
SciTegic.value.DoubleValue
0.000000

@<SCITEGIC>MOL_PROPERTY
U
SciTegic.value.DoubleValue
7.389

@<SCITEGIC>MOL_PROPERTY
W
SciTegic.value.DoubleValue
-67.061

@<SCITEGIC>MOL_PROPERTY
W(PB)
SciTegic.value.DoubleValue
-68.767

@<SCITEGIC>MOL_PROPERTY
W(SA)
SciTegic.value.DoubleValue
1.707

@<SCITEGIC>MOL_PROPERTY
Valence
SciTegic.value.DoubleValue
5.822

@<SCITEGIC>MOL_PROPERTY
Coulomb
SciTegic.value.DoubleValue
1.255

@<SCITEGIC>MOL_PROPERTY
VdW
SciTegic.value.DoubleValue
0.312

@<SCITEGIC>MOL_PROPERTY
VdW6
SciTegic.value.DoubleValue
-3.061

@<SCITEGIC>MOL_PROPERTY
VdW12
SciTegic.value.DoubleValue
3.372

@<SCITEGIC>MOL_PROPERTY
Bond
SciTegic.value.DoubleValue
0.059

@<SCITEGIC>MOL_PROPERTY
Angle
SciTegic.value.DoubleValue
2.241

@<SCITEGIC>MOL_PROPERTY
Pdih
SciTegic.value.DoubleValue
3.522

@<SCITEGIC>MOL_PROPERTY
Idih
SciTegic.value.DoubleValue
0.000

@<SCITEGIC>MOL_PROPERTY
Tether
SciTegic.value.DoubleValue
0.000

@<TRIPOS>MOLECULE
guest-6_confgen4.mol2 : confsearch ligand conformer 47
          13          12           1
SMALL
USER_CHARGES
 
@<TRIPOS>ATOM
       1    C1      18.940023   18.113073   23.034104 C.2        1 MOL1         0.6021
       2    O1      19.363664   17.690683   24.091561 O.co2      1 MOL1        -0.6904
       3    O2      17.845119   18.624028   22.907556 O.co2      1 MOL1        -0.6904
       4    C2      19.817174   17.959993   21.793983 C.3        1 MOL1        -0.2102
       5    H1      19.190034   18.083561   20.902516 H          1 MOL1         0.0687
       6    H2      20.186922   16.927769   21.780353 H          1 MOL1         0.0687
       7    C3      21.018367   18.938627   21.741535 C.3        1 MOL1        -0.1974
       8    H3      21.616682   18.835869   22.657713 H          1 MOL1         0.0689
       9    H4      21.672944   18.660433   20.904271 H          1 MOL1         0.0689
      10    C4      20.576720   20.406725   21.569598 C.3        1 MOL1        -0.2987
      11    H5      19.955141   20.733343   22.413866 H          1 MOL1         0.0700
      12    H6      21.450050   21.069721   21.516419 H          1 MOL1         0.0700
      13    H7      19.995342   20.536183   20.647300 H          1 MOL1         0.0700
@<TRIPOS>BOND
    1     1     2    1
    2     1     3    2
    3     1     4    1
    4     4     5    1
    5     4     6    1
    6     4     7    1
    7     7     8    1
    8     7     9    1
    9     7    10    1
   10    10    11    1
   11    10    12    1
   12    10    13    1
@<TRIPOS>SUBSTRUCTURE
       1 MOL1            1 RESIDUE      1      MOL     
@<SCITEGIC>MOL_PROPERTY
VConf Rank
SciTegic.value.IntegerValue
47

@<SCITEGIC>MOL_PROPERTY
Conf_Id
SciTegic.value.IntegerValue
4

@<SCITEGIC>MOL_PROPERTY
Delta U+W
SciTegic.value.DoubleValue
0.281

@<SCITEGIC>MOL_PROPERTY
U+W
SciTegic.value.DoubleValue
-58.051

@<SCITEGIC>MOL_PROPERTY
Grad RMS
SciTegic.value.DoubleValue
0.000000

@<SCITEGIC>MOL_PROPERTY
U
SciTegic.value.DoubleValue
9.781

@<SCITEGIC>MOL_PROPERTY
W
SciTegic.value.DoubleValue
-67.832

@<SCITEGIC>MOL_PROPERTY
W(PB)
SciTegic.value.DoubleValue
-69.535

@<SCITEGIC>MOL_PROPERTY
W(SA)
SciTegic.value.DoubleValue
1.703

@<SCITEGIC>MOL_PROPERTY
Valence
SciTegic.value.DoubleValue
6.123

@<SCITEGIC>MOL_PROPERTY
Coulomb
SciTegic.value.DoubleValue
3.449

@<SCITEGIC>MOL_PROPERTY
VdW
SciTegic.value.DoubleValue
0.209

@<SCITEGIC>MOL_PROPERTY
VdW6
SciTegic.value.DoubleValue
-3.762

@<SCITEGIC>MOL_PROPERTY
VdW12
SciTegic.value.DoubleValue
3.972

@<SCITEGIC>MOL_PROPERTY
Bond
SciTegic.value.DoubleValue
0.078

@<SCITEGIC>MOL_PROPERTY
Angle
SciTegic.value.DoubleValue
2.428

@<SCITEGIC>MOL_PROPERTY
Pdih
SciTegic.value.DoubleValue
3.616

@<SCITEGIC>MOL_PROPERTY
Idih
SciTegic.value.DoubleValue
0.002

@<SCITEGIC>MOL_PROPERTY
Tether
SciTegic.value.DoubleValue
0.000

@<TRIPOS>MOLECULE
guest-6_confgen4.mol2 : confsearch ligand conformer 48
          13          12           1
SMALL
USER_CHARGES
 
@<TRIPOS>ATOM
       1    C1      20.598848   17.257730   22.228659 C.2        1 MOL1         0.6021
       2    O1      20.915289   17.077303   23.387631 O.co2      1 MOL1        -0.6904
       3    O2      19.995594   16.438947   21.563996 O.co2      1 MOL1        -0.6904
       4    C2      21.010855   18.566460   21.559181 C.3        1 MOL1        -0.2102
       5    H1      21.462892   18.311493   20.593240 H          1 MOL1         0.0687
       6    H2      21.796855   19.037454   22.162218 H          1 MOL1         0.0687
       7    C3      19.842163   19.560111   21.335227 C.3        1 MOL1        -0.1974
       8    H3      20.195584   20.398545   20.719602 H          1 MOL1         0.0689
       9    H4      19.042805   19.065332   20.765894 H          1 MOL1         0.0689
      10    C4      19.274138   20.111544   22.659310 C.3        1 MOL1        -0.2987
      11    H5      20.052432   20.630018   23.234492 H          1 MOL1         0.0700
      12    H6      18.463214   20.825459   22.464822 H          1 MOL1         0.0700
      13    H7      18.870342   19.302777   23.282745 H          1 MOL1         0.0700
@<TRIPOS>BOND
    1     1     2    1
    2     1     3    2
    3     1     4    1
    4     4     5    1
    5     4     6    1
    6     4     7    1
    7     7     8    1
    8     7     9    1
    9     7    10    1
   10    10    11    1
   11    10    12    1
   12    10    13    1
@<TRIPOS>SUBSTRUCTURE
       1 MOL1            1 RESIDUE      1      MOL     
@<SCITEGIC>MOL_PROPERTY
VConf Rank
SciTegic.value.IntegerValue
48

@<SCITEGIC>MOL_PROPERTY
Conf_Id
SciTegic.value.IntegerValue
36

@<SCITEGIC>MOL_PROPERTY
Delta U+W
SciTegic.value.DoubleValue
0.272

@<SCITEGIC>MOL_PROPERTY
U+W
SciTegic.value.DoubleValue
-58.060

@<SCITEGIC>MOL_PROPERTY
Grad RMS
SciTegic.value.DoubleValue
0.000000

@<SCITEGIC>MOL_PROPERTY
U
SciTegic.value.DoubleValue
9.781

@<SCITEGIC>MOL_PROPERTY
W
SciTegic.value.DoubleValue
-67.841

@<SCITEGIC>MOL_PROPERTY
W(PB)
SciTegic.value.DoubleValue
-69.537

@<SCITEGIC>MOL_PROPERTY
W(SA)
SciTegic.value.DoubleValue
1.696

@<SCITEGIC>MOL_PROPERTY
Valence
SciTegic.value.DoubleValue
6.123

@<SCITEGIC>MOL_PROPERTY
Coulomb
SciTegic.value.DoubleValue
3.449

@<SCITEGIC>MOL_PROPERTY
VdW
SciTegic.value.DoubleValue
0.209

@<SCITEGIC>MOL_PROPERTY
VdW6
SciTegic.value.DoubleValue
-3.762

@<SCITEGIC>MOL_PROPERTY
VdW12
SciTegic.value.DoubleValue
3.972

@<SCITEGIC>MOL_PROPERTY
Bond
SciTegic.value.DoubleValue
0.078

@<SCITEGIC>MOL_PROPERTY
Angle
SciTegic.value.DoubleValue
2.428

@<SCITEGIC>MOL_PROPERTY
Pdih
SciTegic.value.DoubleValue
3.616

@<SCITEGIC>MOL_PROPERTY
Idih
SciTegic.value.DoubleValue
0.002

@<SCITEGIC>MOL_PROPERTY
Tether
SciTegic.value.DoubleValue
0.000

@<TRIPOS>MOLECULE
guest-6_confgen4.mol2 : confsearch ligand conformer 49
          13          12           1
SMALL
USER_CHARGES
 
@<TRIPOS>ATOM
       1    C1      18.060579   18.532603   22.512774 C.2        1 MOL1         0.6021
       2    O1      17.924970   19.386452   23.367104 O.co2      1 MOL1        -0.6904
       3    O2      17.202751   17.712421   22.255423 O.co2      1 MOL1        -0.6904
       4    C2      19.359728   18.461446   21.707894 C.3        1 MOL1        -0.2102
       5    H1      19.093836   18.550929   20.647879 H          1 MOL1         0.0687
       6    H2      19.778373   17.457929   21.849409 H          1 MOL1         0.0687
       7    C3      20.425627   19.528198   22.071016 C.3        1 MOL1        -0.1974
       8    H3      20.003156   20.533064   21.931306 H          1 MOL1         0.0689
       9    H4      20.688484   19.438770   23.134342 H          1 MOL1         0.0689
      10    C4      21.696813   19.378833   21.211010 C.3        1 MOL1        -0.2987
      11    H5      21.465320   19.495367   20.144074 H          1 MOL1         0.0700
      12    H6      22.438640   20.141374   21.482082 H          1 MOL1         0.0700
      13    H7      22.156114   18.392258   21.356738 H          1 MOL1         0.0700
@<TRIPOS>BOND
    1     1     2    1
    2     1     3    2
    3     1     4    1
    4     4     5    1
    5     4     6    1
    6     4     7    1
    7     7     8    1
    8     7     9    1
    9     7    10    1
   10    10    11    1
   11    10    12    1
   12    10    13    1
@<TRIPOS>SUBSTRUCTURE
       1 MOL1            1 RESIDUE      1      MOL     
@<SCITEGIC>MOL_PROPERTY
VConf Rank
SciTegic.value.IntegerValue
49

@<SCITEGIC>MOL_PROPERTY
Conf_Id
SciTegic.value.IntegerValue
0

@<SCITEGIC>MOL_PROPERTY
Delta U+W
SciTegic.value.DoubleValue
0.000

@<SCITEGIC>MOL_PROPERTY
U+W
SciTegic.value.DoubleValue
-58.332

@<SCITEGIC>MOL_PROPERTY
Grad RMS
SciTegic.value.DoubleValue
0.000000

@<SCITEGIC>MOL_PROPERTY
U
SciTegic.value.DoubleValue
8.390

@<SCITEGIC>MOL_PROPERTY
W
SciTegic.value.DoubleValue
-66.722

@<SCITEGIC>MOL_PROPERTY
W(PB)
SciTegic.value.DoubleValue
-68.455

@<SCITEGIC>MOL_PROPERTY
W(SA)
SciTegic.value.DoubleValue
1.733

@<SCITEGIC>MOL_PROPERTY
Valence
SciTegic.value.DoubleValue
6.333

@<SCITEGIC>MOL_PROPERTY
Coulomb
SciTegic.value.DoubleValue
1.215

@<SCITEGIC>MOL_PROPERTY
VdW
SciTegic.value.DoubleValue
0.842

@<SCITEGIC>MOL_PROPERTY
VdW6
SciTegic.value.DoubleValue
-3.344

@<SCITEGIC>MOL_PROPERTY
VdW12
SciTegic.value.DoubleValue
4.186

@<SCITEGIC>MOL_PROPERTY
Bond
SciTegic.value.DoubleValue
0.091

@<SCITEGIC>MOL_PROPERTY
Angle
SciTegic.value.DoubleValue
2.713

@<SCITEGIC>MOL_PROPERTY
Pdih
SciTegic.value.DoubleValue
3.529

@<SCITEGIC>MOL_PROPERTY
Idih
SciTegic.value.DoubleValue
0.000

@<SCITEGIC>MOL_PROPERTY
Tether
SciTegic.value.DoubleValue
0.000

@<TRIPOS>MOLECULE
guest-6_confgen4.mol2 : confsearch ligand conformer 50
          13          12           1
SMALL
USER_CHARGES
 
@<TRIPOS>ATOM
       1    C1      21.264717   17.592644   20.971560 C.2        1 MOL1         0.6021
       2    O1      22.456517   17.805562   21.069745 O.co2      1 MOL1        -0.6904
       3    O2      20.776197   16.900576   20.101072 O.co2      1 MOL1        -0.6904
       4    C2      20.329637   18.244590   21.984522 C.3        1 MOL1        -0.2102
       5    H1      20.861614   18.320505   22.940689 H          1 MOL1         0.0687
       6    H2      19.475931   17.574185   22.141877 H          1 MOL1         0.0687
       7    C3      19.834634   19.641538   21.538028 C.3        1 MOL1        -0.1974
       8    H3      20.698218   20.301173   21.373940 H          1 MOL1         0.0689
       9    H4      19.312172   19.554690   20.575057 H          1 MOL1         0.0689
      10    C4      18.892516   20.273122   22.582446 C.3        1 MOL1        -0.2987
      11    H5      18.552376   21.262070   22.248461 H          1 MOL1         0.0700
      12    H6      18.005726   19.645621   22.741821 H          1 MOL1         0.0700
      13    H7      19.402420   20.397860   23.546808 H          1 MOL1         0.0700
@<TRIPOS>BOND
    1     1     2    1
    2     1     3    2
    3     1     4    1
    4     4     5    1
    5     4     6    1
    6     4     7    1
    7     7     8    1
    8     7     9    1
    9     7    10    1
   10    10    11    1
   11    10    12    1
   12    10    13    1
@<TRIPOS>SUBSTRUCTURE
       1 MOL1            1 RESIDUE      1      MOL     
@<SCITEGIC>MOL_PROPERTY
VConf Rank
SciTegic.value.IntegerValue
50

@<SCITEGIC>MOL_PROPERTY
Conf_Id
SciTegic.value.IntegerValue
1

@<SCITEGIC>MOL_PROPERTY
Delta U+W
SciTegic.value.DoubleValue
-1.339

@<SCITEGIC>MOL_PROPERTY
U+W
SciTegic.value.DoubleValue
-59.672

@<SCITEGIC>MOL_PROPERTY
Grad RMS
SciTegic.value.DoubleValue
0.000000

@<SCITEGIC>MOL_PROPERTY
U
SciTegic.value.DoubleValue
7.389

@<SCITEGIC>MOL_PROPERTY
W
SciTegic.value.DoubleValue
-67.061

@<SCITEGIC>MOL_PROPERTY
W(PB)
SciTegic.value.DoubleValue
-68.767

@<SCITEGIC>MOL_PROPERTY
W(SA)
SciTegic.value.DoubleValue
1.707

@<SCITEGIC>MOL_PROPERTY
Valence
SciTegic.value.DoubleValue
5.822

@<SCITEGIC>MOL_PROPERTY
Coulomb
SciTegic.value.DoubleValue
1.255

@<SCITEGIC>MOL_PROPERTY
VdW
SciTegic.value.DoubleValue
0.312

@<SCITEGIC>MOL_PROPERTY
VdW6
SciTegic.value.DoubleValue
-3.061

@<SCITEGIC>MOL_PROPERTY
VdW12
SciTegic.value.DoubleValue
3.372

@<SCITEGIC>MOL_PROPERTY
Bond
SciTegic.value.DoubleValue
0.059

@<SCITEGIC>MOL_PROPERTY
Angle
SciTegic.value.DoubleValue
2.241

@<SCITEGIC>MOL_PROPERTY
Pdih
SciTegic.value.DoubleValue
3.522

@<SCITEGIC>MOL_PROPERTY
Idih
SciTegic.value.DoubleValue
0.000

@<SCITEGIC>MOL_PROPERTY
Tether
SciTegic.value.DoubleValue
0.000

@<TRIPOS>MOLECULE
guest-6_confgen4.mol2 : confsearch ligand conformer 51
          13          12           1
SMALL
USER_CHARGES
 
@<TRIPOS>ATOM
       1    C1      20.278429   19.655680   20.349574 C.2        1 MOL1         0.6021
       2    O1      20.333454   18.852830   19.439353 O.co2      1 MOL1        -0.6904
       3    O2      19.660489   20.699663   20.285111 O.co2      1 MOL1        -0.6904
       4    C2      21.056868   19.350788   21.626994 C.3        1 MOL1        -0.2102
       5    H1      21.170307   20.279555   22.199541 H          1 MOL1         0.0687
       6    H2      22.064552   19.037509   21.328973 H          1 MOL1         0.0687
       7    C3      20.416429   18.251991   22.513460 C.3        1 MOL1        -0.1974
       8    H3      20.269300   17.339352   21.919015 H          1 MOL1         0.0689
       9    H4      21.111741   17.992393   23.323413 H          1 MOL1         0.0689
      10    C4      19.072431   18.696877   23.126382 C.3        1 MOL1        -0.2987
      11    H5      18.336805   18.922494   22.342941 H          1 MOL1         0.0700
      12    H6      18.656451   17.904956   23.762714 H          1 MOL1         0.0700
      13    H7      19.200929   19.595923   23.743306 H          1 MOL1         0.0700
@<TRIPOS>BOND
    1     1     2    1
    2     1     3    2
    3     1     4    1
    4     4     5    1
    5     4     6    1
    6     4     7    1
    7     7     8    1
    8     7     9    1
    9     7    10    1
   10    10    11    1
   11    10    12    1
   12    10    13    1
@<TRIPOS>SUBSTRUCTURE
       1 MOL1            1 RESIDUE      1      MOL     
@<SCITEGIC>MOL_PROPERTY
VConf Rank
SciTegic.value.IntegerValue
51

@<SCITEGIC>MOL_PROPERTY
Conf_Id
SciTegic.value.IntegerValue
4

@<SCITEGIC>MOL_PROPERTY
Delta U+W
SciTegic.value.DoubleValue
0.281

@<SCITEGIC>MOL_PROPERTY
U+W
SciTegic.value.DoubleValue
-58.051

@<SCITEGIC>MOL_PROPERTY
Grad RMS
SciTegic.value.DoubleValue
0.000000

@<SCITEGIC>MOL_PROPERTY
U
SciTegic.value.DoubleValue
9.781

@<SCITEGIC>MOL_PROPERTY
W
SciTegic.value.DoubleValue
-67.832

@<SCITEGIC>MOL_PROPERTY
W(PB)
SciTegic.value.DoubleValue
-69.535

@<SCITEGIC>MOL_PROPERTY
W(SA)
SciTegic.value.DoubleValue
1.703

@<SCITEGIC>MOL_PROPERTY
Valence
SciTegic.value.DoubleValue
6.123

@<SCITEGIC>MOL_PROPERTY
Coulomb
SciTegic.value.DoubleValue
3.449

@<SCITEGIC>MOL_PROPERTY
VdW
SciTegic.value.DoubleValue
0.209

@<SCITEGIC>MOL_PROPERTY
VdW6
SciTegic.value.DoubleValue
-3.762

@<SCITEGIC>MOL_PROPERTY
VdW12
SciTegic.value.DoubleValue
3.972

@<SCITEGIC>MOL_PROPERTY
Bond
SciTegic.value.DoubleValue
0.078

@<SCITEGIC>MOL_PROPERTY
Angle
SciTegic.value.DoubleValue
2.428

@<SCITEGIC>MOL_PROPERTY
Pdih
SciTegic.value.DoubleValue
3.616

@<SCITEGIC>MOL_PROPERTY
Idih
SciTegic.value.DoubleValue
0.002

@<SCITEGIC>MOL_PROPERTY
Tether
SciTegic.value.DoubleValue
0.000

@<TRIPOS>MOLECULE
guest-6_confgen4.mol2 : confsearch ligand conformer 52
          13          12           1
SMALL
USER_CHARGES
 
@<TRIPOS>ATOM
       1    C1      19.379202   20.157216   20.877739 C.2        1 MOL1         0.6021
       2    O1      20.201222   21.000731   20.579965 O.co2      1 MOL1        -0.6904
       3    O2      18.558397   19.717256   20.097475 O.co2      1 MOL1        -0.6904
       4    C2      19.350722   19.647685   22.316590 C.3        1 MOL1        -0.2102
       5    H1      18.308008   19.680002   22.654363 H          1 MOL1         0.0687
       6    H2      19.910232   20.348231   22.948627 H          1 MOL1         0.0687
       7    C3      19.905165   18.210619   22.492012 C.3        1 MOL1        -0.1974
       8    H3      19.708655   17.871842   23.518407 H          1 MOL1         0.0689
       9    H4      19.365725   17.524293   21.824268 H          1 MOL1         0.0689
      10    C4      21.420208   18.124361   22.214291 C.3        1 MOL1        -0.2987
      11    H5      21.980796   18.786826   22.886803 H          1 MOL1         0.0700
      12    H6      21.783634   17.099705   22.366272 H          1 MOL1         0.0700
      13    H7      21.649044   18.414407   21.180205 H          1 MOL1         0.0700
@<TRIPOS>BOND
    1     1     2    1
    2     1     3    2
    3     1     4    1
    4     4     5    1
    5     4     6    1
    6     4     7    1
    7     7     8    1
    8     7     9    1
    9     7    10    1
   10    10    11    1
   11    10    12    1
   12    10    13    1
@<TRIPOS>SUBSTRUCTURE
       1 MOL1            1 RESIDUE      1      MOL     
@<SCITEGIC>MOL_PROPERTY
VConf Rank
SciTegic.value.IntegerValue
52

@<SCITEGIC>MOL_PROPERTY
Conf_Id
SciTegic.value.IntegerValue
36

@<SCITEGIC>MOL_PROPERTY
Delta U+W
SciTegic.value.DoubleValue
0.272

@<SCITEGIC>MOL_PROPERTY
U+W
SciTegic.value.DoubleValue
-58.060

@<SCITEGIC>MOL_PROPERTY
Grad RMS
SciTegic.value.DoubleValue
0.000000

@<SCITEGIC>MOL_PROPERTY
U
SciTegic.value.DoubleValue
9.781

@<SCITEGIC>MOL_PROPERTY
W
SciTegic.value.DoubleValue
-67.841

@<SCITEGIC>MOL_PROPERTY
W(PB)
SciTegic.value.DoubleValue
-69.537

@<SCITEGIC>MOL_PROPERTY
W(SA)
SciTegic.value.DoubleValue
1.696

@<SCITEGIC>MOL_PROPERTY
Valence
SciTegic.value.DoubleValue
6.123

@<SCITEGIC>MOL_PROPERTY
Coulomb
SciTegic.value.DoubleValue
3.449

@<SCITEGIC>MOL_PROPERTY
VdW
SciTegic.value.DoubleValue
0.209

@<SCITEGIC>MOL_PROPERTY
VdW6
SciTegic.value.DoubleValue
-3.762

@<SCITEGIC>MOL_PROPERTY
VdW12
SciTegic.value.DoubleValue
3.972

@<SCITEGIC>MOL_PROPERTY
Bond
SciTegic.value.DoubleValue
0.078

@<SCITEGIC>MOL_PROPERTY
Angle
SciTegic.value.DoubleValue
2.428

@<SCITEGIC>MOL_PROPERTY
Pdih
SciTegic.value.DoubleValue
3.616

@<SCITEGIC>MOL_PROPERTY
Idih
SciTegic.value.DoubleValue
0.002

@<SCITEGIC>MOL_PROPERTY
Tether
SciTegic.value.DoubleValue
0.000

@<TRIPOS>MOLECULE
guest-6_confgen4.mol2 : confsearch ligand conformer 53
          13          12           1
SMALL
USER_CHARGES
 
@<TRIPOS>ATOM
       1    C1      19.651229   20.894381   20.913216 C.2        1 MOL1         0.6021
       2    O1      20.773082   21.177591   20.540972 O.co2      1 MOL1        -0.6904
       3    O2      18.692041   21.616680   20.731452 O.co2      1 MOL1        -0.6904
       4    C2      19.403727   19.575104   21.647337 C.3        1 MOL1        -0.2102
       5    H1      18.648059   19.020320   21.078550 H          1 MOL1         0.0687
       6    H2      18.957817   19.819323   22.618861 H          1 MOL1         0.0687
       7    C3      20.657248   18.685796   21.856555 C.3        1 MOL1        -0.1974
       8    H3      21.104243   18.444620   20.881986 H          1 MOL1         0.0689
       9    H4      21.414421   19.244635   22.424132 H          1 MOL1         0.0689
      10    C4      20.311903   17.381285   22.602761 C.3        1 MOL1        -0.2987
      11    H5      19.578806   16.788805   22.039681 H          1 MOL1         0.0700
      12    H6      21.210392   16.765845   22.741354 H          1 MOL1         0.0700
      13    H7      19.891423   17.595260   23.594192 H          1 MOL1         0.0700
@<TRIPOS>BOND
    1     1     2    1
    2     1     3    2
    3     1     4    1
    4     4     5    1
    5     4     6    1
    6     4     7    1
    7     7     8    1
    8     7     9    1
    9     7    10    1
   10    10    11    1
   11    10    12    1
   12    10    13    1
@<TRIPOS>SUBSTRUCTURE
       1 MOL1            1 RESIDUE      1      MOL     
@<SCITEGIC>MOL_PROPERTY
VConf Rank
SciTegic.value.IntegerValue
53

@<SCITEGIC>MOL_PROPERTY
Conf_Id
SciTegic.value.IntegerValue
0

@<SCITEGIC>MOL_PROPERTY
Delta U+W
SciTegic.value.DoubleValue
0.000

@<SCITEGIC>MOL_PROPERTY
U+W
SciTegic.value.DoubleValue
-58.332

@<SCITEGIC>MOL_PROPERTY
Grad RMS
SciTegic.value.DoubleValue
0.000000

@<SCITEGIC>MOL_PROPERTY
U
SciTegic.value.DoubleValue
8.390

@<SCITEGIC>MOL_PROPERTY
W
SciTegic.value.DoubleValue
-66.722

@<SCITEGIC>MOL_PROPERTY
W(PB)
SciTegic.value.DoubleValue
-68.455

@<SCITEGIC>MOL_PROPERTY
W(SA)
SciTegic.value.DoubleValue
1.733

@<SCITEGIC>MOL_PROPERTY
Valence
SciTegic.value.DoubleValue
6.333

@<SCITEGIC>MOL_PROPERTY
Coulomb
SciTegic.value.DoubleValue
1.215

@<SCITEGIC>MOL_PROPERTY
VdW
SciTegic.value.DoubleValue
0.842

@<SCITEGIC>MOL_PROPERTY
VdW6
SciTegic.value.DoubleValue
-3.344

@<SCITEGIC>MOL_PROPERTY
VdW12
SciTegic.value.DoubleValue
4.186

@<SCITEGIC>MOL_PROPERTY
Bond
SciTegic.value.DoubleValue
0.091

@<SCITEGIC>MOL_PROPERTY
Angle
SciTegic.value.DoubleValue
2.713

@<SCITEGIC>MOL_PROPERTY
Pdih
SciTegic.value.DoubleValue
3.529

@<SCITEGIC>MOL_PROPERTY
Idih
SciTegic.value.DoubleValue
0.000

@<SCITEGIC>MOL_PROPERTY
Tether
SciTegic.value.DoubleValue
0.000

@<TRIPOS>MOLECULE
guest-6_confgen4.mol2 : confsearch ligand conformer 54
          13          12           1
SMALL
USER_CHARGES
 
@<TRIPOS>ATOM
       1    C1      20.406224   17.595421   20.348420 C.2        1 MOL1         0.6021
       2    O1      19.550434   17.438529   19.500853 O.co2      1 MOL1        -0.6904
       3    O2      21.220235   16.744315   20.645682 O.co2      1 MOL1        -0.6904
       4    C2      20.449104   18.925782   21.092596 C.3        1 MOL1        -0.2102
       5    H1      20.116818   19.712692   20.404571 H          1 MOL1         0.0687
       6    H2      21.493843   19.140209   21.348647 H          1 MOL1         0.0687
       7    C3      19.575547   18.931713   22.370372 C.3        1 MOL1        -0.1974
       8    H3      18.533678   18.706131   22.103085 H          1 MOL1         0.0689
       9    H4      19.911041   18.133636   23.047380 H          1 MOL1         0.0689
      10    C4      19.640291   20.289074   23.098843 C.3        1 MOL1        -0.2987
      11    H5      19.015282   20.273825   24.001280 H          1 MOL1         0.0700
      12    H6      20.669071   20.522972   23.402910 H          1 MOL1         0.0700
      13    H7      19.281107   21.099838   22.451384 H          1 MOL1         0.0700
@<TRIPOS>BOND
    1     1     2    1
    2     1     3    2
    3     1     4    1
    4     4     5    1
    5     4     6    1
    6     4     7    1
    7     7     8    1
    8     7     9    1
    9     7    10    1
   10    10    11    1
   11    10    12    1
   12    10    13    1
@<TRIPOS>SUBSTRUCTURE
       1 MOL1            1 RESIDUE      1      MOL     
@<SCITEGIC>MOL_PROPERTY
VConf Rank
SciTegic.value.IntegerValue
54

@<SCITEGIC>MOL_PROPERTY
Conf_Id
SciTegic.value.IntegerValue
1

@<SCITEGIC>MOL_PROPERTY
Delta U+W
SciTegic.value.DoubleValue
-1.339

@<SCITEGIC>MOL_PROPERTY
U+W
SciTegic.value.DoubleValue
-59.672

@<SCITEGIC>MOL_PROPERTY
Grad RMS
SciTegic.value.DoubleValue
0.000000

@<SCITEGIC>MOL_PROPERTY
U
SciTegic.value.DoubleValue
7.389

@<SCITEGIC>MOL_PROPERTY
W
SciTegic.value.DoubleValue
-67.061

@<SCITEGIC>MOL_PROPERTY
W(PB)
SciTegic.value.DoubleValue
-68.767

@<SCITEGIC>MOL_PROPERTY
W(SA)
SciTegic.value.DoubleValue
1.707

@<SCITEGIC>MOL_PROPERTY
Valence
SciTegic.value.DoubleValue
5.822

@<SCITEGIC>MOL_PROPERTY
Coulomb
SciTegic.value.DoubleValue
1.255

@<SCITEGIC>MOL_PROPERTY
VdW
SciTegic.value.DoubleValue
0.312

@<SCITEGIC>MOL_PROPERTY
VdW6
SciTegic.value.DoubleValue
-3.061

@<SCITEGIC>MOL_PROPERTY
VdW12
SciTegic.value.DoubleValue
3.372

@<SCITEGIC>MOL_PROPERTY
Bond
SciTegic.value.DoubleValue
0.059

@<SCITEGIC>MOL_PROPERTY
Angle
SciTegic.value.DoubleValue
2.241

@<SCITEGIC>MOL_PROPERTY
Pdih
SciTegic.value.DoubleValue
3.522

@<SCITEGIC>MOL_PROPERTY
Idih
SciTegic.value.DoubleValue
0.000

@<SCITEGIC>MOL_PROPERTY
Tether
SciTegic.value.DoubleValue
0.000

@<TRIPOS>MOLECULE
guest-6_confgen4.mol2 : confsearch ligand conformer 55
          13          12           1
SMALL
USER_CHARGES
 
@<TRIPOS>ATOM
       1    C1      18.517407   19.493951   22.587455 C.2        1 MOL1         0.6021
       2    O1      18.287065   19.287700   23.762402 O.co2      1 MOL1        -0.6904
       3    O2      18.182101   20.507274   22.007238 O.co2      1 MOL1        -0.6904
       4    C2      19.234299   18.405702   21.792151 C.3        1 MOL1        -0.2102
       5    H1      19.081393   18.593805   20.722327 H          1 MOL1         0.0687
       6    H2      18.739310   17.454198   22.020215 H          1 MOL1         0.0687
       7    C3      20.748565   18.286387   22.102155 C.3        1 MOL1        -0.1974
       8    H3      20.892431   18.139471   23.181804 H          1 MOL1         0.0689
       9    H4      21.148103   17.391435   21.605866 H          1 MOL1         0.0689
      10    C4      21.546201   19.520909   21.633475 C.3        1 MOL1        -0.2987
      11    H5      21.202118   20.430222   22.143950 H          1 MOL1         0.0700
      12    H6      22.615154   19.395769   21.849754 H          1 MOL1         0.0700
      13    H7      21.434036   19.673187   20.551984 H          1 MOL1         0.0700
@<TRIPOS>BOND
    1     1     2    1
    2     1     3    2
    3     1     4    1
    4     4     5    1
    5     4     6    1
    6     4     7    1
    7     7     8    1
    8     7     9    1
    9     7    10    1
   10    10    11    1
   11    10    12    1
   12    10    13    1
@<TRIPOS>SUBSTRUCTURE
       1 MOL1            1 RESIDUE      1      MOL     
@<SCITEGIC>MOL_PROPERTY
VConf Rank
SciTegic.value.IntegerValue
55

@<SCITEGIC>MOL_PROPERTY
Conf_Id
SciTegic.value.IntegerValue
4

@<SCITEGIC>MOL_PROPERTY
Delta U+W
SciTegic.value.DoubleValue
0.281

@<SCITEGIC>MOL_PROPERTY
U+W
SciTegic.value.DoubleValue
-58.051

@<SCITEGIC>MOL_PROPERTY
Grad RMS
SciTegic.value.DoubleValue
0.000000

@<SCITEGIC>MOL_PROPERTY
U
SciTegic.value.DoubleValue
9.781

@<SCITEGIC>MOL_PROPERTY
W
SciTegic.value.DoubleValue
-67.832

@<SCITEGIC>MOL_PROPERTY
W(PB)
SciTegic.value.DoubleValue
-69.535

@<SCITEGIC>MOL_PROPERTY
W(SA)
SciTegic.value.DoubleValue
1.703

@<SCITEGIC>MOL_PROPERTY
Valence
SciTegic.value.DoubleValue
6.123

@<SCITEGIC>MOL_PROPERTY
Coulomb
SciTegic.value.DoubleValue
3.449

@<SCITEGIC>MOL_PROPERTY
VdW
SciTegic.value.DoubleValue
0.209

@<SCITEGIC>MOL_PROPERTY
VdW6
SciTegic.value.DoubleValue
-3.762

@<SCITEGIC>MOL_PROPERTY
VdW12
SciTegic.value.DoubleValue
3.972

@<SCITEGIC>MOL_PROPERTY
Bond
SciTegic.value.DoubleValue
0.078

@<SCITEGIC>MOL_PROPERTY
Angle
SciTegic.value.DoubleValue
2.428

@<SCITEGIC>MOL_PROPERTY
Pdih
SciTegic.value.DoubleValue
3.616

@<SCITEGIC>MOL_PROPERTY
Idih
SciTegic.value.DoubleValue
0.002

@<SCITEGIC>MOL_PROPERTY
Tether
SciTegic.value.DoubleValue
0.000

@<TRIPOS>MOLECULE
guest-6_confgen4.mol2 : confsearch ligand conformer 56
          13          12           1
SMALL
USER_CHARGES
 
@<TRIPOS>ATOM
       1    C1      18.606620   19.330603   21.103377 C.2        1 MOL1         0.6021
       2    O1      18.355381   18.418764   20.340924 O.co2      1 MOL1        -0.6904
       3    O2      17.756388   19.941812   21.719514 O.co2      1 MOL1        -0.6904
       4    C2      20.063161   19.756316   21.270653 C.3        1 MOL1        -0.2102
       5    H1      20.097943   20.848021   21.173931 H          1 MOL1         0.0687
       6    H2      20.647151   19.345805   20.437752 H          1 MOL1         0.0687
       7    C3      20.695228   19.338170   22.623052 C.3        1 MOL1        -0.1974
       8    H3      21.682263   19.810573   22.720364 H          1 MOL1         0.0689
       9    H4      20.079845   19.719360   23.450046 H          1 MOL1         0.0689
      10    C4      20.853398   17.809121   22.753122 C.3        1 MOL1        -0.2987
      11    H5      21.484166   17.409950   21.948023 H          1 MOL1         0.0700
      12    H6      21.320904   17.548721   23.711624 H          1 MOL1         0.0700
      13    H7      19.878563   17.305958   22.704634 H          1 MOL1         0.0700
@<TRIPOS>BOND
    1     1     2    1
    2     1     3    2
    3     1     4    1
    4     4     5    1
    5     4     6    1
    6     4     7    1
    7     7     8    1
    8     7     9    1
    9     7    10    1
   10    10    11    1
   11    10    12    1
   12    10    13    1
@<TRIPOS>SUBSTRUCTURE
       1 MOL1            1 RESIDUE      1      MOL     
@<SCITEGIC>MOL_PROPERTY
VConf Rank
SciTegic.value.IntegerValue
56

@<SCITEGIC>MOL_PROPERTY
Conf_Id
SciTegic.value.IntegerValue
36

@<SCITEGIC>MOL_PROPERTY
Delta U+W
SciTegic.value.DoubleValue
0.272

@<SCITEGIC>MOL_PROPERTY
U+W
SciTegic.value.DoubleValue
-58.060

@<SCITEGIC>MOL_PROPERTY
Grad RMS
SciTegic.value.DoubleValue
0.000000

@<SCITEGIC>MOL_PROPERTY
U
SciTegic.value.DoubleValue
9.781

@<SCITEGIC>MOL_PROPERTY
W
SciTegic.value.DoubleValue
-67.841

@<SCITEGIC>MOL_PROPERTY
W(PB)
SciTegic.value.DoubleValue
-69.537

@<SCITEGIC>MOL_PROPERTY
W(SA)
SciTegic.value.DoubleValue
1.696

@<SCITEGIC>MOL_PROPERTY
Valence
SciTegic.value.DoubleValue
6.123

@<SCITEGIC>MOL_PROPERTY
Coulomb
SciTegic.value.DoubleValue
3.449

@<SCITEGIC>MOL_PROPERTY
VdW
SciTegic.value.DoubleValue
0.209

@<SCITEGIC>MOL_PROPERTY
VdW6
SciTegic.value.DoubleValue
-3.762

@<SCITEGIC>MOL_PROPERTY
VdW12
SciTegic.value.DoubleValue
3.972

@<SCITEGIC>MOL_PROPERTY
Bond
SciTegic.value.DoubleValue
0.078

@<SCITEGIC>MOL_PROPERTY
Angle
SciTegic.value.DoubleValue
2.428

@<SCITEGIC>MOL_PROPERTY
Pdih
SciTegic.value.DoubleValue
3.616

@<SCITEGIC>MOL_PROPERTY
Idih
SciTegic.value.DoubleValue
0.002

@<SCITEGIC>MOL_PROPERTY
Tether
SciTegic.value.DoubleValue
0.000

@<TRIPOS>MOLECULE
guest-6_confgen4.mol2 : confsearch ligand conformer 57
          13          12           1
SMALL
USER_CHARGES
 
@<TRIPOS>ATOM
       1    C1      21.454471   19.842133   23.158592 C.2        1 MOL1         0.6021
       2    O1      22.271825   18.943133   23.191175 O.co2      1 MOL1        -0.6904
       3    O2      21.581595   20.874577   23.785245 O.co2      1 MOL1        -0.6904
       4    C2      20.197486   19.696578   22.298659 C.3        1 MOL1        -0.2102
       5    H1      20.181371   20.538730   21.596621 H          1 MOL1         0.0687
       6    H2      19.331729   19.815239   22.961020 H          1 MOL1         0.0687
       7    C3      20.078140   18.362263   21.516792 C.3        1 MOL1        -0.1974
       8    H3      20.948108   18.243907   20.855806 H          1 MOL1         0.0689
       9    H4      20.097497   17.519512   22.221881 H          1 MOL1         0.0689
      10    C4      18.783600   18.305883   20.680836 C.3        1 MOL1        -0.2987
      11    H5      18.754572   19.121180   19.946009 H          1 MOL1         0.0700
      12    H6      18.716861   17.355487   20.135353 H          1 MOL1         0.0700
      13    H7      17.897136   18.391024   21.323062 H          1 MOL1         0.0700
@<TRIPOS>BOND
    1     1     2    1
    2     1     3    2
    3     1     4    1
    4     4     5    1
    5     4     6    1
    6     4     7    1
    7     7     8    1
    8     7     9    1
    9     7    10    1
   10    10    11    1
   11    10    12    1
   12    10    13    1
@<TRIPOS>SUBSTRUCTURE
       1 MOL1            1 RESIDUE      1      MOL     
@<SCITEGIC>MOL_PROPERTY
VConf Rank
SciTegic.value.IntegerValue
57

@<SCITEGIC>MOL_PROPERTY
Conf_Id
SciTegic.value.IntegerValue
0

@<SCITEGIC>MOL_PROPERTY
Delta U+W
SciTegic.value.DoubleValue
0.000

@<SCITEGIC>MOL_PROPERTY
U+W
SciTegic.value.DoubleValue
-58.332

@<SCITEGIC>MOL_PROPERTY
Grad RMS
SciTegic.value.DoubleValue
0.000000

@<SCITEGIC>MOL_PROPERTY
U
SciTegic.value.DoubleValue
8.390

@<SCITEGIC>MOL_PROPERTY
W
SciTegic.value.DoubleValue
-66.722

@<SCITEGIC>MOL_PROPERTY
W(PB)
SciTegic.value.DoubleValue
-68.455

@<SCITEGIC>MOL_PROPERTY
W(SA)
SciTegic.value.DoubleValue
1.733

@<SCITEGIC>MOL_PROPERTY
Valence
SciTegic.value.DoubleValue
6.333

@<SCITEGIC>MOL_PROPERTY
Coulomb
SciTegic.value.DoubleValue
1.215

@<SCITEGIC>MOL_PROPERTY
VdW
SciTegic.value.DoubleValue
0.842

@<SCITEGIC>MOL_PROPERTY
VdW6
SciTegic.value.DoubleValue
-3.344

@<SCITEGIC>MOL_PROPERTY
VdW12
SciTegic.value.DoubleValue
4.186

@<SCITEGIC>MOL_PROPERTY
Bond
SciTegic.value.DoubleValue
0.091

@<SCITEGIC>MOL_PROPERTY
Angle
SciTegic.value.DoubleValue
2.713

@<SCITEGIC>MOL_PROPERTY
Pdih
SciTegic.value.DoubleValue
3.529

@<SCITEGIC>MOL_PROPERTY
Idih
SciTegic.value.DoubleValue
0.000

@<SCITEGIC>MOL_PROPERTY
Tether
SciTegic.value.DoubleValue
0.000

@<TRIPOS>MOLECULE
guest-6_confgen4.mol2 : confsearch ligand conformer 58
          13          12           1
SMALL
USER_CHARGES
 
@<TRIPOS>ATOM
       1    C1      21.273360   17.363163   21.793226 C.2        1 MOL1         0.6021
       2    O1      20.745124   16.282252   21.960433 O.co2      1 MOL1        -0.6904
       3    O2      22.444171   17.581869   22.031408 O.co2      1 MOL1        -0.6904
       4    C2      20.415943   18.512455   21.274129 C.3        1 MOL1        -0.2102
       5    H1      19.651931   18.094334   20.607435 H          1 MOL1         0.0687
       6    H2      21.053068   19.166064   20.665947 H          1 MOL1         0.0687
       7    C3      19.746092   19.326318   22.407608 C.3        1 MOL1        -0.1974
       8    H3      19.118620   18.659835   23.015802 H          1 MOL1         0.0689
       9    H4      20.520016   19.731866   23.074238 H          1 MOL1         0.0689
      10    C4      18.887277   20.479341   21.850592 C.3        1 MOL1        -0.2987
      11    H5      18.421057   21.044254   22.668378 H          1 MOL1         0.0700
      12    H6      19.499087   21.176324   21.262835 H          1 MOL1         0.0700
      13    H7      18.086928   20.096062   21.203991 H          1 MOL1         0.0700
@<TRIPOS>BOND
    1     1     2    1
    2     1     3    2
    3     1     4    1
    4     4     5    1
    5     4     6    1
    6     4     7    1
    7     7     8    1
    8     7     9    1
    9     7    10    1
   10    10    11    1
   11    10    12    1
   12    10    13    1
@<TRIPOS>SUBSTRUCTURE
       1 MOL1            1 RESIDUE      1      MOL     
@<SCITEGIC>MOL_PROPERTY
VConf Rank
SciTegic.value.IntegerValue
58

@<SCITEGIC>MOL_PROPERTY
Conf_Id
SciTegic.value.IntegerValue
1

@<SCITEGIC>MOL_PROPERTY
Delta U+W
SciTegic.value.DoubleValue
-1.339

@<SCITEGIC>MOL_PROPERTY
U+W
SciTegic.value.DoubleValue
-59.672

@<SCITEGIC>MOL_PROPERTY
Grad RMS
SciTegic.value.DoubleValue
0.000000

@<SCITEGIC>MOL_PROPERTY
U
SciTegic.value.DoubleValue
7.389

@<SCITEGIC>MOL_PROPERTY
W
SciTegic.value.DoubleValue
-67.061

@<SCITEGIC>MOL_PROPERTY
W(PB)
SciTegic.value.DoubleValue
-68.767

@<SCITEGIC>MOL_PROPERTY
W(SA)
SciTegic.value.DoubleValue
1.707

@<SCITEGIC>MOL_PROPERTY
Valence
SciTegic.value.DoubleValue
5.822

@<SCITEGIC>MOL_PROPERTY
Coulomb
SciTegic.value.DoubleValue
1.255

@<SCITEGIC>MOL_PROPERTY
VdW
SciTegic.value.DoubleValue
0.312

@<SCITEGIC>MOL_PROPERTY
VdW6
SciTegic.value.DoubleValue
-3.061

@<SCITEGIC>MOL_PROPERTY
VdW12
SciTegic.value.DoubleValue
3.372

@<SCITEGIC>MOL_PROPERTY
Bond
SciTegic.value.DoubleValue
0.059

@<SCITEGIC>MOL_PROPERTY
Angle
SciTegic.value.DoubleValue
2.241

@<SCITEGIC>MOL_PROPERTY
Pdih
SciTegic.value.DoubleValue
3.522

@<SCITEGIC>MOL_PROPERTY
Idih
SciTegic.value.DoubleValue
0.000

@<SCITEGIC>MOL_PROPERTY
Tether
SciTegic.value.DoubleValue
0.000

@<TRIPOS>MOLECULE
guest-6_confgen4.mol2 : confsearch ligand conformer 59
          13          12           1
SMALL
USER_CHARGES
 
@<TRIPOS>ATOM
       1    C1      21.500217   19.998901   21.490220 C.2        1 MOL1         0.6021
       2    O1      21.659692   20.124252   20.292325 O.co2      1 MOL1        -0.6904
       3    O2      21.641174   20.908371   22.283253 O.co2      1 MOL1        -0.6904
       4    C2      21.138807   18.616546   22.027999 C.3        1 MOL1        -0.2102
       5    H1      21.344276   18.593810   23.105289 H          1 MOL1         0.0687
       6    H2      21.819893   17.895461   21.560512 H          1 MOL1         0.0687
       7    C3      19.672775   18.192770   21.755050 C.3        1 MOL1        -0.1974
       8    H3      19.465416   18.258762   20.677752 H          1 MOL1         0.0689
       9    H4      19.544325   17.138836   22.037180 H          1 MOL1         0.0689
      10    C4      18.655236   19.050797   22.535008 C.3        1 MOL1        -0.2987
      11    H5      18.725317   20.107485   22.244617 H          1 MOL1         0.0700
      12    H6      17.630210   18.712537   22.335016 H          1 MOL1         0.0700
      13    H7      18.830846   18.981480   23.616557 H          1 MOL1         0.0700
@<TRIPOS>BOND
    1     1     2    1
    2     1     3    2
    3     1     4    1
    4     4     5    1
    5     4     6    1
    6     4     7    1
    7     7     8    1
    8     7     9    1
    9     7    10    1
   10    10    11    1
   11    10    12    1
   12    10    13    1
@<TRIPOS>SUBSTRUCTURE
       1 MOL1            1 RESIDUE      1      MOL     
@<SCITEGIC>MOL_PROPERTY
VConf Rank
SciTegic.value.IntegerValue
59

@<SCITEGIC>MOL_PROPERTY
Conf_Id
SciTegic.value.IntegerValue
4

@<SCITEGIC>MOL_PROPERTY
Delta U+W
SciTegic.value.DoubleValue
0.281

@<SCITEGIC>MOL_PROPERTY
U+W
SciTegic.value.DoubleValue
-58.051

@<SCITEGIC>MOL_PROPERTY
Grad RMS
SciTegic.value.DoubleValue
0.000000

@<SCITEGIC>MOL_PROPERTY
U
SciTegic.value.DoubleValue
9.781

@<SCITEGIC>MOL_PROPERTY
W
SciTegic.value.DoubleValue
-67.832

@<SCITEGIC>MOL_PROPERTY
W(PB)
SciTegic.value.DoubleValue
-69.535

@<SCITEGIC>MOL_PROPERTY
W(SA)
SciTegic.value.DoubleValue
1.703

@<SCITEGIC>MOL_PROPERTY
Valence
SciTegic.value.DoubleValue
6.123

@<SCITEGIC>MOL_PROPERTY
Coulomb
SciTegic.value.DoubleValue
3.449

@<SCITEGIC>MOL_PROPERTY
VdW
SciTegic.value.DoubleValue
0.209

@<SCITEGIC>MOL_PROPERTY
VdW6
SciTegic.value.DoubleValue
-3.762

@<SCITEGIC>MOL_PROPERTY
VdW12
SciTegic.value.DoubleValue
3.972

@<SCITEGIC>MOL_PROPERTY
Bond
SciTegic.value.DoubleValue
0.078

@<SCITEGIC>MOL_PROPERTY
Angle
SciTegic.value.DoubleValue
2.428

@<SCITEGIC>MOL_PROPERTY
Pdih
SciTegic.value.DoubleValue
3.616

@<SCITEGIC>MOL_PROPERTY
Idih
SciTegic.value.DoubleValue
0.002

@<SCITEGIC>MOL_PROPERTY
Tether
SciTegic.value.DoubleValue
0.000

@<TRIPOS>MOLECULE
guest-6_confgen4.mol2 : confsearch ligand conformer 60
          13          12           1
SMALL
USER_CHARGES
 
@<TRIPOS>ATOM
       1    C1      20.771912   20.564025   22.480824 C.2        1 MOL1         0.6021
       2    O1      21.932329   20.651022   22.131868 O.co2      1 MOL1        -0.6904
       3    O2      19.990654   21.493815   22.445839 O.co2      1 MOL1        -0.6904
       4    C2      20.276279   19.226858   23.025851 C.3        1 MOL1        -0.2102
       5    H1      19.739830   19.432990   23.959724 H          1 MOL1         0.0687
       6    H2      21.144971   18.610870   23.288949 H          1 MOL1         0.0687
       7    C3      19.346199   18.452237   22.057218 C.3        1 MOL1        -0.1974
       8    H3      18.920228   17.586524   22.582539 H          1 MOL1         0.0689
       9    H4      18.501401   19.092821   21.767583 H          1 MOL1         0.0689
      10    C4      20.085127   17.962040   20.794831 C.3        1 MOL1        -0.2987
      11    H5      20.920746   17.301475   21.060888 H          1 MOL1         0.0700
      12    H6      19.404149   17.401729   20.141059 H          1 MOL1         0.0700
      13    H7      20.487186   18.806768   20.219845 H          1 MOL1         0.0700
@<TRIPOS>BOND
    1     1     2    1
    2     1     3    2
    3     1     4    1
    4     4     5    1
    5     4     6    1
    6     4     7    1
    7     7     8    1
    8     7     9    1
    9     7    10    1
   10    10    11    1
   11    10    12    1
   12    10    13    1
@<TRIPOS>SUBSTRUCTURE
       1 MOL1            1 RESIDUE      1      MOL     
@<SCITEGIC>MOL_PROPERTY
VConf Rank
SciTegic.value.IntegerValue
60

@<SCITEGIC>MOL_PROPERTY
Conf_Id
SciTegic.value.IntegerValue
36

@<SCITEGIC>MOL_PROPERTY
Delta U+W
SciTegic.value.DoubleValue
0.272

@<SCITEGIC>MOL_PROPERTY
U+W
SciTegic.value.DoubleValue
-58.060

@<SCITEGIC>MOL_PROPERTY
Grad RMS
SciTegic.value.DoubleValue
0.000000

@<SCITEGIC>MOL_PROPERTY
U
SciTegic.value.DoubleValue
9.781

@<SCITEGIC>MOL_PROPERTY
W
SciTegic.value.DoubleValue
-67.841

@<SCITEGIC>MOL_PROPERTY
W(PB)
SciTegic.value.DoubleValue
-69.537

@<SCITEGIC>MOL_PROPERTY
W(SA)
SciTegic.value.DoubleValue
1.696

@<SCITEGIC>MOL_PROPERTY
Valence
SciTegic.value.DoubleValue
6.123

@<SCITEGIC>MOL_PROPERTY
Coulomb
SciTegic.value.DoubleValue
3.449

@<SCITEGIC>MOL_PROPERTY
VdW
SciTegic.value.DoubleValue
0.209

@<SCITEGIC>MOL_PROPERTY
VdW6
SciTegic.value.DoubleValue
-3.762

@<SCITEGIC>MOL_PROPERTY
VdW12
SciTegic.value.DoubleValue
3.972

@<SCITEGIC>MOL_PROPERTY
Bond
SciTegic.value.DoubleValue
0.078

@<SCITEGIC>MOL_PROPERTY
Angle
SciTegic.value.DoubleValue
2.428

@<SCITEGIC>MOL_PROPERTY
Pdih
SciTegic.value.DoubleValue
3.616

@<SCITEGIC>MOL_PROPERTY
Idih
SciTegic.value.DoubleValue
0.002

@<SCITEGIC>MOL_PROPERTY
Tether
SciTegic.value.DoubleValue
0.000

@<TRIPOS>MOLECULE
guest-6_confgen4.mol2 : confsearch ligand conformer 61
          13          12           1
SMALL
USER_CHARGES
 
@<TRIPOS>ATOM
       1    C1      19.836732   21.072280   21.349911 C.2        1 MOL1         0.6021
       2    O1      19.519020   21.511889   22.437630 O.co2      1 MOL1        -0.6904
       3    O2      19.966942   21.772185   20.366054 O.co2      1 MOL1        -0.6904
       4    C2      20.090843   19.573201   21.179993 C.3        1 MOL1        -0.2102
       5    H1      21.111338   19.455184   20.796589 H          1 MOL1         0.0687
       6    H2      19.411480   19.212138   20.398688 H          1 MOL1         0.0687
       7    C3      19.912661   18.719464   22.462701 C.3        1 MOL1        -0.1974
       8    H3      20.592244   19.084765   23.245311 H          1 MOL1         0.0689
       9    H4      18.890309   18.841479   22.846969 H          1 MOL1         0.0689
      10    C4      20.188633   17.226019   22.195686 C.3        1 MOL1        -0.2987
      11    H5      21.216048   17.073832   21.839624 H          1 MOL1         0.0700
      12    H6      20.057668   16.638594   23.113856 H          1 MOL1         0.0700
      13    H7      19.500472   16.828616   21.438039 H          1 MOL1         0.0700
@<TRIPOS>BOND
    1     1     2    1
    2     1     3    2
    3     1     4    1
    4     4     5    1
    5     4     6    1
    6     4     7    1
    7     7     8    1
    8     7     9    1
    9     7    10    1
   10    10    11    1
   11    10    12    1
   12    10    13    1
@<TRIPOS>SUBSTRUCTURE
       1 MOL1            1 RESIDUE      1      MOL     
@<SCITEGIC>MOL_PROPERTY
VConf Rank
SciTegic.value.IntegerValue
61

@<SCITEGIC>MOL_PROPERTY
Conf_Id
SciTegic.value.IntegerValue
0

@<SCITEGIC>MOL_PROPERTY
Delta U+W
SciTegic.value.DoubleValue
0.000

@<SCITEGIC>MOL_PROPERTY
U+W
SciTegic.value.DoubleValue
-58.332

@<SCITEGIC>MOL_PROPERTY
Grad RMS
SciTegic.value.DoubleValue
0.000000

@<SCITEGIC>MOL_PROPERTY
U
SciTegic.value.DoubleValue
8.390

@<SCITEGIC>MOL_PROPERTY
W
SciTegic.value.DoubleValue
-66.722

@<SCITEGIC>MOL_PROPERTY
W(PB)
SciTegic.value.DoubleValue
-68.455

@<SCITEGIC>MOL_PROPERTY
W(SA)
SciTegic.value.DoubleValue
1.733

@<SCITEGIC>MOL_PROPERTY
Valence
SciTegic.value.DoubleValue
6.333

@<SCITEGIC>MOL_PROPERTY
Coulomb
SciTegic.value.DoubleValue
1.215

@<SCITEGIC>MOL_PROPERTY
VdW
SciTegic.value.DoubleValue
0.842

@<SCITEGIC>MOL_PROPERTY
VdW6
SciTegic.value.DoubleValue
-3.344

@<SCITEGIC>MOL_PROPERTY
VdW12
SciTegic.value.DoubleValue
4.186

@<SCITEGIC>MOL_PROPERTY
Bond
SciTegic.value.DoubleValue
0.091

@<SCITEGIC>MOL_PROPERTY
Angle
SciTegic.value.DoubleValue
2.713

@<SCITEGIC>MOL_PROPERTY
Pdih
SciTegic.value.DoubleValue
3.529

@<SCITEGIC>MOL_PROPERTY
Idih
SciTegic.value.DoubleValue
0.000

@<SCITEGIC>MOL_PROPERTY
Tether
SciTegic.value.DoubleValue
0.000

@<TRIPOS>MOLECULE
guest-6_confgen4.mol2 : confsearch ligand conformer 62
          13          12           1
SMALL
USER_CHARGES
 
@<TRIPOS>ATOM
       1    C1      20.492212   19.993798   20.016277 C.2        1 MOL1         0.6021
       2    O1      21.632671   19.837015   19.628806 O.co2      1 MOL1        -0.6904
       3    O2      19.801376   20.942328   19.702593 O.co2      1 MOL1        -0.6904
       4    C2      19.902433   18.953479   20.962530 C.3        1 MOL1        -0.2102
       5    H1      20.334709   17.977733   20.709398 H          1 MOL1         0.0687
       6    H2      18.824514   18.889228   20.770230 H          1 MOL1         0.0687
       7    C3      20.158938   19.278949   22.453880 C.3        1 MOL1        -0.1974
       8    H3      21.240963   19.350618   22.632504 H          1 MOL1         0.0689
       9    H4      19.730378   20.262211   22.693371 H          1 MOL1         0.0689
      10    C4      19.551041   18.209529   23.383446 C.3        1 MOL1        -0.2987
      11    H5      19.743003   18.457412   24.435570 H          1 MOL1         0.0700
      12    H6      18.464116   18.140201   23.244366 H          1 MOL1         0.0700
      13    H7      19.986319   17.221636   23.183054 H          1 MOL1         0.0700
@<TRIPOS>BOND
    1     1     2    1
    2     1     3    2
    3     1     4    1
    4     4     5    1
    5     4     6    1
    6     4     7    1
    7     7     8    1
    8     7     9    1
    9     7    10    1
   10    10    11    1
   11    10    12    1
   12    10    13    1
@<TRIPOS>SUBSTRUCTURE
       1 MOL1            1 RESIDUE      1      MOL     
@<SCITEGIC>MOL_PROPERTY
VConf Rank
SciTegic.value.IntegerValue
62

@<SCITEGIC>MOL_PROPERTY
Conf_Id
SciTegic.value.IntegerValue
1

@<SCITEGIC>MOL_PROPERTY
Delta U+W
SciTegic.value.DoubleValue
-1.339

@<SCITEGIC>MOL_PROPERTY
U+W
SciTegic.value.DoubleValue
-59.672

@<SCITEGIC>MOL_PROPERTY
Grad RMS
SciTegic.value.DoubleValue
0.000000

@<SCITEGIC>MOL_PROPERTY
U
SciTegic.value.DoubleValue
7.389

@<SCITEGIC>MOL_PROPERTY
W
SciTegic.value.DoubleValue
-67.061

@<SCITEGIC>MOL_PROPERTY
W(PB)
SciTegic.value.DoubleValue
-68.767

@<SCITEGIC>MOL_PROPERTY
W(SA)
SciTegic.value.DoubleValue
1.707

@<SCITEGIC>MOL_PROPERTY
Valence
SciTegic.value.DoubleValue
5.822

@<SCITEGIC>MOL_PROPERTY
Coulomb
SciTegic.value.DoubleValue
1.255

@<SCITEGIC>MOL_PROPERTY
VdW
SciTegic.value.DoubleValue
0.312

@<SCITEGIC>MOL_PROPERTY
VdW6
SciTegic.value.DoubleValue
-3.061

@<SCITEGIC>MOL_PROPERTY
VdW12
SciTegic.value.DoubleValue
3.372

@<SCITEGIC>MOL_PROPERTY
Bond
SciTegic.value.DoubleValue
0.059

@<SCITEGIC>MOL_PROPERTY
Angle
SciTegic.value.DoubleValue
2.241

@<SCITEGIC>MOL_PROPERTY
Pdih
SciTegic.value.DoubleValue
3.522

@<SCITEGIC>MOL_PROPERTY
Idih
SciTegic.value.DoubleValue
0.000

@<SCITEGIC>MOL_PROPERTY
Tether
SciTegic.value.DoubleValue
0.000

@<TRIPOS>MOLECULE
guest-6_confgen4.mol2 : confsearch ligand conformer 63
          13          12           1
SMALL
USER_CHARGES
 
@<TRIPOS>ATOM
       1    C1      21.304996   18.754290   23.328671 C.2        1 MOL1         0.6021
       2    O1      20.834774   18.606851   24.439190 O.co2      1 MOL1        -0.6904
       3    O2      22.270071   18.137913   22.922946 O.co2      1 MOL1        -0.6904
       4    C2      20.669851   19.795033   22.409884 C.3        1 MOL1        -0.2102
       5    H1      21.377253   20.032415   21.605819 H          1 MOL1         0.0687
       6    H2      20.537923   20.712049   22.996452 H          1 MOL1         0.0687
       7    C3      19.305912   19.365186   21.811352 C.3        1 MOL1        -0.1974
       8    H3      18.618284   19.090125   22.623405 H          1 MOL1         0.0689
       9    H4      18.854666   20.221813   21.292275 H          1 MOL1         0.0689
      10    C4      19.439791   18.189627   20.821369 C.3        1 MOL1        -0.2987
      11    H5      19.847694   17.299505   21.318485 H          1 MOL1         0.0700
      12    H6      18.460795   17.923738   20.401885 H          1 MOL1         0.0700
      13    H7      20.106174   18.451465   19.989043 H          1 MOL1         0.0700
@<TRIPOS>BOND
    1     1     2    1
    2     1     3    2
    3     1     4    1
    4     4     5    1
    5     4     6    1
    6     4     7    1
    7     7     8    1
    8     7     9    1
    9     7    10    1
   10    10    11    1
   11    10    12    1
   12    10    13    1
@<TRIPOS>SUBSTRUCTURE
       1 MOL1            1 RESIDUE      1      MOL     
@<SCITEGIC>MOL_PROPERTY
VConf Rank
SciTegic.value.IntegerValue
63

@<SCITEGIC>MOL_PROPERTY
Conf_Id
SciTegic.value.IntegerValue
4

@<SCITEGIC>MOL_PROPERTY
Delta U+W
SciTegic.value.DoubleValue
0.281

@<SCITEGIC>MOL_PROPERTY
U+W
SciTegic.value.DoubleValue
-58.051

@<SCITEGIC>MOL_PROPERTY
Grad RMS
SciTegic.value.DoubleValue
0.000000

@<SCITEGIC>MOL_PROPERTY
U
SciTegic.value.DoubleValue
9.781

@<SCITEGIC>MOL_PROPERTY
W
SciTegic.value.DoubleValue
-67.832

@<SCITEGIC>MOL_PROPERTY
W(PB)
SciTegic.value.DoubleValue
-69.535

@<SCITEGIC>MOL_PROPERTY
W(SA)
SciTegic.value.DoubleValue
1.703

@<SCITEGIC>MOL_PROPERTY
Valence
SciTegic.value.DoubleValue
6.123

@<SCITEGIC>MOL_PROPERTY
Coulomb
SciTegic.value.DoubleValue
3.449

@<SCITEGIC>MOL_PROPERTY
VdW
SciTegic.value.DoubleValue
0.209

@<SCITEGIC>MOL_PROPERTY
VdW6
SciTegic.value.DoubleValue
-3.762

@<SCITEGIC>MOL_PROPERTY
VdW12
SciTegic.value.DoubleValue
3.972

@<SCITEGIC>MOL_PROPERTY
Bond
SciTegic.value.DoubleValue
0.078

@<SCITEGIC>MOL_PROPERTY
Angle
SciTegic.value.DoubleValue
2.428

@<SCITEGIC>MOL_PROPERTY
Pdih
SciTegic.value.DoubleValue
3.616

@<SCITEGIC>MOL_PROPERTY
Idih
SciTegic.value.DoubleValue
0.002

@<SCITEGIC>MOL_PROPERTY
Tether
SciTegic.value.DoubleValue
0.000

@<TRIPOS>MOLECULE
guest-6_confgen4.mol2 : confsearch ligand conformer 64
          13          12           1
SMALL
USER_CHARGES
 
@<TRIPOS>ATOM
       1    C1      19.745526   19.442102   20.309103 C.2        1 MOL1         0.6021
       2    O1      20.662335   19.114079   19.582627 O.co2      1 MOL1        -0.6904
       3    O2      18.576978   19.379306   19.982528 O.co2      1 MOL1        -0.6904
       4    C2      20.078111   19.996221   21.692238 C.3        1 MOL1        -0.2102
       5    H1      19.497079   20.916764   21.824103 H          1 MOL1         0.0687
       6    H2      21.136386   20.284349   21.710239 H          1 MOL1         0.0687
       7    C3      19.770416   19.020994   22.857396 C.3        1 MOL1        -0.1974
       8    H3      19.894949   19.550157   23.812043 H          1 MOL1         0.0689
       9    H4      18.718608   18.706448   22.805626 H          1 MOL1         0.0689
      10    C4      20.686568   17.779840   22.846010 C.3        1 MOL1        -0.2987
      11    H5      21.742630   18.070920   22.919473 H          1 MOL1         0.0700
      12    H6      20.456115   17.121130   23.693411 H          1 MOL1         0.0700
      13    H7      20.555311   17.200865   21.922221 H          1 MOL1         0.0700
@<TRIPOS>BOND
    1     1     2    1
    2     1     3    2
    3     1     4    1
    4     4     5    1
    5     4     6    1
    6     4     7    1
    7     7     8    1
    8     7     9    1
    9     7    10    1
   10    10    11    1
   11    10    12    1
   12    10    13    1
@<TRIPOS>SUBSTRUCTURE
       1 MOL1            1 RESIDUE      1      MOL     
@<SCITEGIC>MOL_PROPERTY
VConf Rank
SciTegic.value.IntegerValue
64

@<SCITEGIC>MOL_PROPERTY
Conf_Id
SciTegic.value.IntegerValue
36

@<SCITEGIC>MOL_PROPERTY
Delta U+W
SciTegic.value.DoubleValue
0.272

@<SCITEGIC>MOL_PROPERTY
U+W
SciTegic.value.DoubleValue
-58.060

@<SCITEGIC>MOL_PROPERTY
Grad RMS
SciTegic.value.DoubleValue
0.000000

@<SCITEGIC>MOL_PROPERTY
U
SciTegic.value.DoubleValue
9.781

@<SCITEGIC>MOL_PROPERTY
W
SciTegic.value.DoubleValue
-67.841

@<SCITEGIC>MOL_PROPERTY
W(PB)
SciTegic.value.DoubleValue
-69.537

@<SCITEGIC>MOL_PROPERTY
W(SA)
SciTegic.value.DoubleValue
1.696

@<SCITEGIC>MOL_PROPERTY
Valence
SciTegic.value.DoubleValue
6.123

@<SCITEGIC>MOL_PROPERTY
Coulomb
SciTegic.value.DoubleValue
3.449

@<SCITEGIC>MOL_PROPERTY
VdW
SciTegic.value.DoubleValue
0.209

@<SCITEGIC>MOL_PROPERTY
VdW6
SciTegic.value.DoubleValue
-3.762

@<SCITEGIC>MOL_PROPERTY
VdW12
SciTegic.value.DoubleValue
3.972

@<SCITEGIC>MOL_PROPERTY
Bond
SciTegic.value.DoubleValue
0.078

@<SCITEGIC>MOL_PROPERTY
Angle
SciTegic.value.DoubleValue
2.428

@<SCITEGIC>MOL_PROPERTY
Pdih
SciTegic.value.DoubleValue
3.616

@<SCITEGIC>MOL_PROPERTY
Idih
SciTegic.value.DoubleValue
0.002

@<SCITEGIC>MOL_PROPERTY
Tether
SciTegic.value.DoubleValue
0.000

@<TRIPOS>MOLECULE
guest-6_confgen4.mol2 : confsearch ligand conformer 65
          13          12           1
SMALL
USER_CHARGES
 
@<TRIPOS>ATOM
       1    C1      20.012289   20.853758   22.876237 C.2        1 MOL1         0.6021
       2    O1      20.154089   21.628631   21.950605 O.co2      1 MOL1        -0.6904
       3    O2      19.908997   21.214842   24.031116 O.co2      1 MOL1        -0.6904
       4    C2      19.957944   19.348714   22.606845 C.3        1 MOL1        -0.2102
       5    H1      19.007032   18.978143   23.007820 H          1 MOL1         0.0687
       6    H2      20.757089   18.881520   23.194581 H          1 MOL1         0.0687
       7    C3      20.093952   18.934812   21.118173 C.3        1 MOL1        -0.1974
       8    H3      19.293944   19.406362   20.530479 H          1 MOL1         0.0689
       9    H4      21.046127   19.309687   20.717442 H          1 MOL1         0.0689
      10    C4      20.028042   17.404031   20.944391 C.3        1 MOL1        -0.2987
      11    H5      19.071346   17.007955   21.309602 H          1 MOL1         0.0700
      12    H6      20.125965   17.130680   19.885643 H          1 MOL1         0.0700
      13    H7      20.837576   16.910509   21.498117 H          1 MOL1         0.0700
@<TRIPOS>BOND
    1     1     2    1
    2     1     3    2
    3     1     4    1
    4     4     5    1
    5     4     6    1
    6     4     7    1
    7     7     8    1
    8     7     9    1
    9     7    10    1
   10    10    11    1
   11    10    12    1
   12    10    13    1
@<TRIPOS>SUBSTRUCTURE
       1 MOL1            1 RESIDUE      1      MOL     
@<SCITEGIC>MOL_PROPERTY
VConf Rank
SciTegic.value.IntegerValue
65

@<SCITEGIC>MOL_PROPERTY
Conf_Id
SciTegic.value.IntegerValue
0

@<SCITEGIC>MOL_PROPERTY
Delta U+W
SciTegic.value.DoubleValue
0.000

@<SCITEGIC>MOL_PROPERTY
U+W
SciTegic.value.DoubleValue
-58.332

@<SCITEGIC>MOL_PROPERTY
Grad RMS
SciTegic.value.DoubleValue
0.000000

@<SCITEGIC>MOL_PROPERTY
U
SciTegic.value.DoubleValue
8.390

@<SCITEGIC>MOL_PROPERTY
W
SciTegic.value.DoubleValue
-66.722

@<SCITEGIC>MOL_PROPERTY
W(PB)
SciTegic.value.DoubleValue
-68.455

@<SCITEGIC>MOL_PROPERTY
W(SA)
SciTegic.value.DoubleValue
1.733

@<SCITEGIC>MOL_PROPERTY
Valence
SciTegic.value.DoubleValue
6.333

@<SCITEGIC>MOL_PROPERTY
Coulomb
SciTegic.value.DoubleValue
1.215

@<SCITEGIC>MOL_PROPERTY
VdW
SciTegic.value.DoubleValue
0.842

@<SCITEGIC>MOL_PROPERTY
VdW6
SciTegic.value.DoubleValue
-3.344

@<SCITEGIC>MOL_PROPERTY
VdW12
SciTegic.value.DoubleValue
4.186

@<SCITEGIC>MOL_PROPERTY
Bond
SciTegic.value.DoubleValue
0.091

@<SCITEGIC>MOL_PROPERTY
Angle
SciTegic.value.DoubleValue
2.713

@<SCITEGIC>MOL_PROPERTY
Pdih
SciTegic.value.DoubleValue
3.529

@<SCITEGIC>MOL_PROPERTY
Idih
SciTegic.value.DoubleValue
0.000

@<SCITEGIC>MOL_PROPERTY
Tether
SciTegic.value.DoubleValue
0.000

@<TRIPOS>MOLECULE
guest-6_confgen4.mol2 : confsearch ligand conformer 66
          13          12           1
SMALL
USER_CHARGES
 
@<TRIPOS>ATOM
       1    C1      22.089944   19.208704   21.971600 C.2        1 MOL1         0.6021
       2    O1      22.516278   19.756489   22.968361 O.co2      1 MOL1        -0.6904
       3    O2      22.700810   19.153048   20.923218 O.co2      1 MOL1        -0.6904
       4    C2      20.705234   18.572973   22.034237 C.3        1 MOL1        -0.2102
       5    H1      20.546524   18.200167   23.053475 H          1 MOL1         0.0687
       6    H2      20.698710   17.702519   21.366940 H          1 MOL1         0.0687
       7    C3      19.572453   19.552546   21.642968 C.3        1 MOL1        -0.1974
       8    H3      19.594945   20.424632   22.311385 H          1 MOL1         0.0689
       9    H4      19.747091   19.926782   20.624503 H          1 MOL1         0.0689
      10    C4      18.186836   18.880265   21.716414 C.3        1 MOL1        -0.2987
      11    H5      17.397430   19.589743   21.435807 H          1 MOL1         0.0700
      12    H6      18.129869   18.022279   21.033646 H          1 MOL1         0.0700
      13    H7      17.976550   18.523990   22.733471 H          1 MOL1         0.0700
@<TRIPOS>BOND
    1     1     2    1
    2     1     3    2
    3     1     4    1
    4     4     5    1
    5     4     6    1
    6     4     7    1
    7     7     8    1
    8     7     9    1
    9     7    10    1
   10    10    11    1
   11    10    12    1
   12    10    13    1
@<TRIPOS>SUBSTRUCTURE
       1 MOL1            1 RESIDUE      1      MOL     
@<SCITEGIC>MOL_PROPERTY
VConf Rank
SciTegic.value.IntegerValue
66

@<SCITEGIC>MOL_PROPERTY
Conf_Id
SciTegic.value.IntegerValue
1

@<SCITEGIC>MOL_PROPERTY
Delta U+W
SciTegic.value.DoubleValue
-1.339

@<SCITEGIC>MOL_PROPERTY
U+W
SciTegic.value.DoubleValue
-59.672

@<SCITEGIC>MOL_PROPERTY
Grad RMS
SciTegic.value.DoubleValue
0.000000

@<SCITEGIC>MOL_PROPERTY
U
SciTegic.value.DoubleValue
7.389

@<SCITEGIC>MOL_PROPERTY
W
SciTegic.value.DoubleValue
-67.061

@<SCITEGIC>MOL_PROPERTY
W(PB)
SciTegic.value.DoubleValue
-68.767

@<SCITEGIC>MOL_PROPERTY
W(SA)
SciTegic.value.DoubleValue
1.707

@<SCITEGIC>MOL_PROPERTY
Valence
SciTegic.value.DoubleValue
5.822

@<SCITEGIC>MOL_PROPERTY
Coulomb
SciTegic.value.DoubleValue
1.255

@<SCITEGIC>MOL_PROPERTY
VdW
SciTegic.value.DoubleValue
0.312

@<SCITEGIC>MOL_PROPERTY
VdW6
SciTegic.value.DoubleValue
-3.061

@<SCITEGIC>MOL_PROPERTY
VdW12
SciTegic.value.DoubleValue
3.372

@<SCITEGIC>MOL_PROPERTY
Bond
SciTegic.value.DoubleValue
0.059

@<SCITEGIC>MOL_PROPERTY
Angle
SciTegic.value.DoubleValue
2.241

@<SCITEGIC>MOL_PROPERTY
Pdih
SciTegic.value.DoubleValue
3.522

@<SCITEGIC>MOL_PROPERTY
Idih
SciTegic.value.DoubleValue
0.000

@<SCITEGIC>MOL_PROPERTY
Tether
SciTegic.value.DoubleValue
0.000

@<TRIPOS>MOLECULE
guest-6_confgen4.mol2 : confsearch ligand conformer 67
          13          12           1
SMALL
USER_CHARGES
 
@<TRIPOS>ATOM
       1    C1      20.481646   18.297446   20.373870 C.2        1 MOL1         0.6021
       2    O1      19.724125   17.435502   19.974729 O.co2      1 MOL1        -0.6904
       3    O2      20.935309   19.171796   19.662811 O.co2      1 MOL1        -0.6904
       4    C2      20.912561   18.256079   21.837881 C.3        1 MOL1        -0.2102
       5    H1      21.811559   18.873216   21.957178 H          1 MOL1         0.0687
       6    H2      21.205030   17.223662   22.063633 H          1 MOL1         0.0687
       7    C3      19.816376   18.711182   22.835176 C.3        1 MOL1        -0.1974
       8    H3      18.906694   18.114458   22.679222 H          1 MOL1         0.0689
       9    H4      20.155415   18.507722   23.860130 H          1 MOL1         0.0689
      10    C4      19.484133   20.211864   22.702898 C.3        1 MOL1        -0.2987
      11    H5      19.099013   20.444021   21.701093 H          1 MOL1         0.0700
      12    H6      18.720402   20.504979   23.434947 H          1 MOL1         0.0700
      13    H7      20.375920   20.828081   22.877209 H          1 MOL1         0.0700
@<TRIPOS>BOND
    1     1     2    1
    2     1     3    2
    3     1     4    1
    4     4     5    1
    5     4     6    1
    6     4     7    1
    7     7     8    1
    8     7     9    1
    9     7    10    1
   10    10    11    1
   11    10    12    1
   12    10    13    1
@<TRIPOS>SUBSTRUCTURE
       1 MOL1            1 RESIDUE      1      MOL     
@<SCITEGIC>MOL_PROPERTY
VConf Rank
SciTegic.value.IntegerValue
67

@<SCITEGIC>MOL_PROPERTY
Conf_Id
SciTegic.value.IntegerValue
4

@<SCITEGIC>MOL_PROPERTY
Delta U+W
SciTegic.value.DoubleValue
0.281

@<SCITEGIC>MOL_PROPERTY
U+W
SciTegic.value.DoubleValue
-58.051

@<SCITEGIC>MOL_PROPERTY
Grad RMS
SciTegic.value.DoubleValue
0.000000

@<SCITEGIC>MOL_PROPERTY
U
SciTegic.value.DoubleValue
9.781

@<SCITEGIC>MOL_PROPERTY
W
SciTegic.value.DoubleValue
-67.832

@<SCITEGIC>MOL_PROPERTY
W(PB)
SciTegic.value.DoubleValue
-69.535

@<SCITEGIC>MOL_PROPERTY
W(SA)
SciTegic.value.DoubleValue
1.703

@<SCITEGIC>MOL_PROPERTY
Valence
SciTegic.value.DoubleValue
6.123

@<SCITEGIC>MOL_PROPERTY
Coulomb
SciTegic.value.DoubleValue
3.449

@<SCITEGIC>MOL_PROPERTY
VdW
SciTegic.value.DoubleValue
0.209

@<SCITEGIC>MOL_PROPERTY
VdW6
SciTegic.value.DoubleValue
-3.762

@<SCITEGIC>MOL_PROPERTY
VdW12
SciTegic.value.DoubleValue
3.972

@<SCITEGIC>MOL_PROPERTY
Bond
SciTegic.value.DoubleValue
0.078

@<SCITEGIC>MOL_PROPERTY
Angle
SciTegic.value.DoubleValue
2.428

@<SCITEGIC>MOL_PROPERTY
Pdih
SciTegic.value.DoubleValue
3.616

@<SCITEGIC>MOL_PROPERTY
Idih
SciTegic.value.DoubleValue
0.002

@<SCITEGIC>MOL_PROPERTY
Tether
SciTegic.value.DoubleValue
0.000

@<TRIPOS>MOLECULE
guest-6_confgen4.mol2 : confsearch ligand conformer 68
          13          12           1
SMALL
USER_CHARGES
 
@<TRIPOS>ATOM
       1    C1      19.672038   17.233882   22.073210 C.2        1 MOL1         0.6021
       2    O1      19.504881   16.806232   20.948453 O.co2      1 MOL1        -0.6904
       3    O2      20.188314   16.589757   22.964647 O.co2      1 MOL1        -0.6904
       4    C2      19.175932   18.641218   22.395716 C.3        1 MOL1        -0.2102
       5    H1      18.606091   18.580838   23.330608 H          1 MOL1         0.0687
       6    H2      18.471349   18.953002   21.614921 H          1 MOL1         0.0687
       7    C3      20.304814   19.692913   22.547039 C.3        1 MOL1        -0.1974
       8    H3      19.874652   20.630965   22.923723 H          1 MOL1         0.0689
       9    H4      21.026956   19.351220   23.301809 H          1 MOL1         0.0689
      10    C4      21.034294   19.971584   21.216577 C.3        1 MOL1        -0.2987
      11    H5      20.333735   20.335823   20.453728 H          1 MOL1         0.0700
      12    H6      21.812605   20.733393   21.354329 H          1 MOL1         0.0700
      13    H7      21.515349   19.062348   20.832257 H          1 MOL1         0.0700
@<TRIPOS>BOND
    1     1     2    1
    2     1     3    2
    3     1     4    1
    4     4     5    1
    5     4     6    1
    6     4     7    1
    7     7     8    1
    8     7     9    1
    9     7    10    1
   10    10    11    1
   11    10    12    1
   12    10    13    1
@<TRIPOS>SUBSTRUCTURE
       1 MOL1            1 RESIDUE      1      MOL     
@<SCITEGIC>MOL_PROPERTY
VConf Rank
SciTegic.value.IntegerValue
68

@<SCITEGIC>MOL_PROPERTY
Conf_Id
SciTegic.value.IntegerValue
36

@<SCITEGIC>MOL_PROPERTY
Delta U+W
SciTegic.value.DoubleValue
0.272

@<SCITEGIC>MOL_PROPERTY
U+W
SciTegic.value.DoubleValue
-58.060

@<SCITEGIC>MOL_PROPERTY
Grad RMS
SciTegic.value.DoubleValue
0.000000

@<SCITEGIC>MOL_PROPERTY
U
SciTegic.value.DoubleValue
9.781

@<SCITEGIC>MOL_PROPERTY
W
SciTegic.value.DoubleValue
-67.841

@<SCITEGIC>MOL_PROPERTY
W(PB)
SciTegic.value.DoubleValue
-69.537

@<SCITEGIC>MOL_PROPERTY
W(SA)
SciTegic.value.DoubleValue
1.696

@<SCITEGIC>MOL_PROPERTY
Valence
SciTegic.value.DoubleValue
6.123

@<SCITEGIC>MOL_PROPERTY
Coulomb
SciTegic.value.DoubleValue
3.449

@<SCITEGIC>MOL_PROPERTY
VdW
SciTegic.value.DoubleValue
0.209

@<SCITEGIC>MOL_PROPERTY
VdW6
SciTegic.value.DoubleValue
-3.762

@<SCITEGIC>MOL_PROPERTY
VdW12
SciTegic.value.DoubleValue
3.972

@<SCITEGIC>MOL_PROPERTY
Bond
SciTegic.value.DoubleValue
0.078

@<SCITEGIC>MOL_PROPERTY
Angle
SciTegic.value.DoubleValue
2.428

@<SCITEGIC>MOL_PROPERTY
Pdih
SciTegic.value.DoubleValue
3.616

@<SCITEGIC>MOL_PROPERTY
Idih
SciTegic.value.DoubleValue
0.002

@<SCITEGIC>MOL_PROPERTY
Tether
SciTegic.value.DoubleValue
0.000

@<TRIPOS>MOLECULE
guest-6_confgen4.mol2 : confsearch ligand conformer 69
          13          12           1
SMALL
USER_CHARGES
 
@<TRIPOS>ATOM
       1    C1      20.735551   19.205255   19.821461 C.2        1 MOL1         0.6021
       2    O1      21.917948   19.390792   20.033224 O.co2      1 MOL1        -0.6904
       3    O2      20.260411   19.175855   18.704244 O.co2      1 MOL1        -0.6904
       4    C2      19.776266   18.996219   20.994814 C.3        1 MOL1        -0.2102
       5    H1      19.283921   18.027663   20.847051 H          1 MOL1         0.0687
       6    H2      18.998026   19.765314   20.922884 H          1 MOL1         0.0687
       7    C3      20.427557   19.041965   22.401827 C.3        1 MOL1        -0.1974
       8    H3      21.209107   18.272437   22.470829 H          1 MOL1         0.0689
       9    H4      20.922931   20.012204   22.546731 H          1 MOL1         0.0689
      10    C4      19.387034   18.822100   23.518431 C.3        1 MOL1        -0.2987
      11    H5      18.899040   17.844130   23.413742 H          1 MOL1         0.0700
      12    H6      19.866061   18.857862   24.505604 H          1 MOL1         0.0700
      13    H7      18.610539   19.597846   23.490210 H          1 MOL1         0.0700
@<TRIPOS>BOND
    1     1     2    1
    2     1     3    2
    3     1     4    1
    4     4     5    1
    5     4     6    1
    6     4     7    1
    7     7     8    1
    8     7     9    1
    9     7    10    1
   10    10    11    1
   11    10    12    1
   12    10    13    1
@<TRIPOS>SUBSTRUCTURE
       1 MOL1            1 RESIDUE      1      MOL     
@<SCITEGIC>MOL_PROPERTY
VConf Rank
SciTegic.value.IntegerValue
69

@<SCITEGIC>MOL_PROPERTY
Conf_Id
SciTegic.value.IntegerValue
0

@<SCITEGIC>MOL_PROPERTY
Delta U+W
SciTegic.value.DoubleValue
0.000

@<SCITEGIC>MOL_PROPERTY
U+W
SciTegic.value.DoubleValue
-58.332

@<SCITEGIC>MOL_PROPERTY
Grad RMS
SciTegic.value.DoubleValue
0.000000

@<SCITEGIC>MOL_PROPERTY
U
SciTegic.value.DoubleValue
8.390

@<SCITEGIC>MOL_PROPERTY
W
SciTegic.value.DoubleValue
-66.722

@<SCITEGIC>MOL_PROPERTY
W(PB)
SciTegic.value.DoubleValue
-68.455

@<SCITEGIC>MOL_PROPERTY
W(SA)
SciTegic.value.DoubleValue
1.733

@<SCITEGIC>MOL_PROPERTY
Valence
SciTegic.value.DoubleValue
6.333

@<SCITEGIC>MOL_PROPERTY
Coulomb
SciTegic.value.DoubleValue
1.215

@<SCITEGIC>MOL_PROPERTY
VdW
SciTegic.value.DoubleValue
0.842

@<SCITEGIC>MOL_PROPERTY
VdW6
SciTegic.value.DoubleValue
-3.344

@<SCITEGIC>MOL_PROPERTY
VdW12
SciTegic.value.DoubleValue
4.186

@<SCITEGIC>MOL_PROPERTY
Bond
SciTegic.value.DoubleValue
0.091

@<SCITEGIC>MOL_PROPERTY
Angle
SciTegic.value.DoubleValue
2.713

@<SCITEGIC>MOL_PROPERTY
Pdih
SciTegic.value.DoubleValue
3.529

@<SCITEGIC>MOL_PROPERTY
Idih
SciTegic.value.DoubleValue
0.000

@<SCITEGIC>MOL_PROPERTY
Tether
SciTegic.value.DoubleValue
0.000

@<TRIPOS>MOLECULE
guest-6_confgen4.mol2 : confsearch ligand conformer 70
          13          12           1
SMALL
USER_CHARGES
 
@<TRIPOS>ATOM
       1    C1      21.832095   19.757821   22.572899 C.2        1 MOL1         0.6021
       2    O1      22.678157   20.015577   21.740371 O.co2      1 MOL1        -0.6904
       3    O2      22.089233   19.477761   23.726505 O.co2      1 MOL1        -0.6904
       4    C2      20.369341   19.767962   22.141913 C.3        1 MOL1        -0.2102
       5    H1      20.248735   20.528846   21.361190 H          1 MOL1         0.0687
       6    H2      19.763076   20.085353   22.999074 H          1 MOL1         0.0687
       7    C3      19.882230   18.392657   21.625090 C.3        1 MOL1        -0.1974
       8    H3      20.502700   18.080492   20.773391 H          1 MOL1         0.0689
       9    H4      20.016830   17.636956   22.411616 H          1 MOL1         0.0689
      10    C4      18.401444   18.436197   21.197693 C.3        1 MOL1        -0.2987
      11    H5      18.074682   17.453009   20.834610 H          1 MOL1         0.0700
      12    H6      17.757268   18.717300   22.041241 H          1 MOL1         0.0700
      13    H7      18.246884   19.164205   20.390430 H          1 MOL1         0.0700
@<TRIPOS>BOND
    1     1     2    1
    2     1     3    2
    3     1     4    1
    4     4     5    1
    5     4     6    1
    6     4     7    1
    7     7     8    1
    8     7     9    1
    9     7    10    1
   10    10    11    1
   11    10    12    1
   12    10    13    1
@<TRIPOS>SUBSTRUCTURE
       1 MOL1            1 RESIDUE      1      MOL     
@<SCITEGIC>MOL_PROPERTY
VConf Rank
SciTegic.value.IntegerValue
70

@<SCITEGIC>MOL_PROPERTY
Conf_Id
SciTegic.value.IntegerValue
1

@<SCITEGIC>MOL_PROPERTY
Delta U+W
SciTegic.value.DoubleValue
-1.339

@<SCITEGIC>MOL_PROPERTY
U+W
SciTegic.value.DoubleValue
-59.672

@<SCITEGIC>MOL_PROPERTY
Grad RMS
SciTegic.value.DoubleValue
0.000000

@<SCITEGIC>MOL_PROPERTY
U
SciTegic.value.DoubleValue
7.389

@<SCITEGIC>MOL_PROPERTY
W
SciTegic.value.DoubleValue
-67.061

@<SCITEGIC>MOL_PROPERTY
W(PB)
SciTegic.value.DoubleValue
-68.767

@<SCITEGIC>MOL_PROPERTY
W(SA)
SciTegic.value.DoubleValue
1.707

@<SCITEGIC>MOL_PROPERTY
Valence
SciTegic.value.DoubleValue
5.822

@<SCITEGIC>MOL_PROPERTY
Coulomb
SciTegic.value.DoubleValue
1.255

@<SCITEGIC>MOL_PROPERTY
VdW
SciTegic.value.DoubleValue
0.312

@<SCITEGIC>MOL_PROPERTY
VdW6
SciTegic.value.DoubleValue
-3.061

@<SCITEGIC>MOL_PROPERTY
VdW12
SciTegic.value.DoubleValue
3.372

@<SCITEGIC>MOL_PROPERTY
Bond
SciTegic.value.DoubleValue
0.059

@<SCITEGIC>MOL_PROPERTY
Angle
SciTegic.value.DoubleValue
2.241

@<SCITEGIC>MOL_PROPERTY
Pdih
SciTegic.value.DoubleValue
3.522

@<SCITEGIC>MOL_PROPERTY
Idih
SciTegic.value.DoubleValue
0.000

@<SCITEGIC>MOL_PROPERTY
Tether
SciTegic.value.DoubleValue
0.000

@<TRIPOS>MOLECULE
guest-6_confgen4.mol2 : confsearch ligand conformer 71
          13          12           1
SMALL
USER_CHARGES
 
@<TRIPOS>ATOM
       1    C1      20.163771   19.007100   23.787991 C.2        1 MOL1         0.6021
       2    O1      19.388053   18.263242   24.354590 O.co2      1 MOL1        -0.6904
       3    O2      21.301398   19.202807   24.166685 O.co2      1 MOL1        -0.6904
       4    C2      19.668902   19.761589   22.556496 C.3        1 MOL1        -0.2102
       5    H1      20.346911   20.601975   22.363252 H          1 MOL1         0.0687
       6    H2      18.692920   20.193575   22.807957 H          1 MOL1         0.0687
       7    C3      19.532080   18.883085   21.286516 C.3        1 MOL1        -0.1974
       8    H3      18.884215   18.022086   21.503021 H          1 MOL1         0.0689
       9    H4      19.032425   19.463933   20.499220 H          1 MOL1         0.0689
      10    C4      20.895723   18.389730   20.760203 C.3        1 MOL1        -0.2987
      11    H5      21.405204   17.766782   21.507327 H          1 MOL1         0.0700
      12    H6      20.764941   17.788381   19.851154 H          1 MOL1         0.0700
      13    H7      21.551641   19.235724   20.516364 H          1 MOL1         0.0700
@<TRIPOS>BOND
    1     1     2    1
    2     1     3    2
    3     1     4    1
    4     4     5    1
    5     4     6    1
    6     4     7    1
    7     7     8    1
    8     7     9    1
    9     7    10    1
   10    10    11    1
   11    10    12    1
   12    10    13    1
@<TRIPOS>SUBSTRUCTURE
       1 MOL1            1 RESIDUE      1      MOL     
@<SCITEGIC>MOL_PROPERTY
VConf Rank
SciTegic.value.IntegerValue
71

@<SCITEGIC>MOL_PROPERTY
Conf_Id
SciTegic.value.IntegerValue
4

@<SCITEGIC>MOL_PROPERTY
Delta U+W
SciTegic.value.DoubleValue
0.281

@<SCITEGIC>MOL_PROPERTY
U+W
SciTegic.value.DoubleValue
-58.051

@<SCITEGIC>MOL_PROPERTY
Grad RMS
SciTegic.value.DoubleValue
0.000000

@<SCITEGIC>MOL_PROPERTY
U
SciTegic.value.DoubleValue
9.781

@<SCITEGIC>MOL_PROPERTY
W
SciTegic.value.DoubleValue
-67.832

@<SCITEGIC>MOL_PROPERTY
W(PB)
SciTegic.value.DoubleValue
-69.535

@<SCITEGIC>MOL_PROPERTY
W(SA)
SciTegic.value.DoubleValue
1.703

@<SCITEGIC>MOL_PROPERTY
Valence
SciTegic.value.DoubleValue
6.123

@<SCITEGIC>MOL_PROPERTY
Coulomb
SciTegic.value.DoubleValue
3.449

@<SCITEGIC>MOL_PROPERTY
VdW
SciTegic.value.DoubleValue
0.209

@<SCITEGIC>MOL_PROPERTY
VdW6
SciTegic.value.DoubleValue
-3.762

@<SCITEGIC>MOL_PROPERTY
VdW12
SciTegic.value.DoubleValue
3.972

@<SCITEGIC>MOL_PROPERTY
Bond
SciTegic.value.DoubleValue
0.078

@<SCITEGIC>MOL_PROPERTY
Angle
SciTegic.value.DoubleValue
2.428

@<SCITEGIC>MOL_PROPERTY
Pdih
SciTegic.value.DoubleValue
3.616

@<SCITEGIC>MOL_PROPERTY
Idih
SciTegic.value.DoubleValue
0.002

@<SCITEGIC>MOL_PROPERTY
Tether
SciTegic.value.DoubleValue
0.000

@<TRIPOS>MOLECULE
guest-6_confgen4.mol2 : confsearch ligand conformer 72
          13          12           1
SMALL
USER_CHARGES
 
@<TRIPOS>ATOM
       1    C1      19.524368   20.003724   20.660011 C.2        1 MOL1         0.6021
       2    O1      19.250783   21.106578   21.089860 O.co2      1 MOL1        -0.6904
       3    O2      20.034853   19.816186   19.573580 O.co2      1 MOL1        -0.6904
       4    C2      19.176828   18.785824   21.512456 C.3        1 MOL1        -0.2102
       5    H1      18.662463   18.067837   20.862603 H          1 MOL1         0.0687
       6    H2      18.456247   19.089405   22.281798 H          1 MOL1         0.0687
       7    C3      20.402363   18.100502   22.169521 C.3        1 MOL1        -0.1974
       8    H3      20.081763   17.157557   22.633140 H          1 MOL1         0.0689
       9    H4      21.136126   17.837848   21.394584 H          1 MOL1         0.0689
      10    C4      21.070605   18.987022   23.240716 C.3        1 MOL1        -0.2987
      11    H5      20.359816   19.243158   24.037312 H          1 MOL1         0.0700
      12    H6      21.920891   18.465451   23.699054 H          1 MOL1         0.0700
      13    H7      21.443904   19.922083   22.802384 H          1 MOL1         0.0700
@<TRIPOS>BOND
    1     1     2    1
    2     1     3    2
    3     1     4    1
    4     4     5    1
    5     4     6    1
    6     4     7    1
    7     7     8    1
    8     7     9    1
    9     7    10    1
   10    10    11    1
   11    10    12    1
   12    10    13    1
@<TRIPOS>SUBSTRUCTURE
       1 MOL1            1 RESIDUE      1      MOL     
@<SCITEGIC>MOL_PROPERTY
VConf Rank
SciTegic.value.IntegerValue
72

@<SCITEGIC>MOL_PROPERTY
Conf_Id
SciTegic.value.IntegerValue
36

@<SCITEGIC>MOL_PROPERTY
Delta U+W
SciTegic.value.DoubleValue
0.272

@<SCITEGIC>MOL_PROPERTY
U+W
SciTegic.value.DoubleValue
-58.060

@<SCITEGIC>MOL_PROPERTY
Grad RMS
SciTegic.value.DoubleValue
0.000000

@<SCITEGIC>MOL_PROPERTY
U
SciTegic.value.DoubleValue
9.781

@<SCITEGIC>MOL_PROPERTY
W
SciTegic.value.DoubleValue
-67.841

@<SCITEGIC>MOL_PROPERTY
W(PB)
SciTegic.value.DoubleValue
-69.537

@<SCITEGIC>MOL_PROPERTY
W(SA)
SciTegic.value.DoubleValue
1.696

@<SCITEGIC>MOL_PROPERTY
Valence
SciTegic.value.DoubleValue
6.123

@<SCITEGIC>MOL_PROPERTY
Coulomb
SciTegic.value.DoubleValue
3.449

@<SCITEGIC>MOL_PROPERTY
VdW
SciTegic.value.DoubleValue
0.209

@<SCITEGIC>MOL_PROPERTY
VdW6
SciTegic.value.DoubleValue
-3.762

@<SCITEGIC>MOL_PROPERTY
VdW12
SciTegic.value.DoubleValue
3.972

@<SCITEGIC>MOL_PROPERTY
Bond
SciTegic.value.DoubleValue
0.078

@<SCITEGIC>MOL_PROPERTY
Angle
SciTegic.value.DoubleValue
2.428

@<SCITEGIC>MOL_PROPERTY
Pdih
SciTegic.value.DoubleValue
3.616

@<SCITEGIC>MOL_PROPERTY
Idih
SciTegic.value.DoubleValue
0.002

@<SCITEGIC>MOL_PROPERTY
Tether
SciTegic.value.DoubleValue
0.000

@<TRIPOS>MOLECULE
guest-6_confgen4.mol2 : confsearch ligand conformer 73
          13          12           1
SMALL
USER_CHARGES
 
@<TRIPOS>ATOM
       1    C1      18.095303   19.411623   21.005899 C.2        1 MOL1         0.6021
       2    O1      17.392877   19.093899   21.945569 O.co2      1 MOL1        -0.6904
       3    O2      17.647826   19.831435   19.957893 O.co2      1 MOL1        -0.6904
       4    C2      19.616190   19.288330   21.117184 C.3        1 MOL1        -0.2102
       5    H1      20.040342   20.281227   20.925906 H          1 MOL1         0.0687
       6    H2      19.952364   18.634384   20.303748 H          1 MOL1         0.0687
       7    C3      20.141609   18.748085   22.472923 C.3        1 MOL1        -0.1974
       8    H3      19.801196   19.403184   23.286998 H          1 MOL1         0.0689
       9    H4      19.713047   17.754337   22.664115 H          1 MOL1         0.0689
      10    C4      21.680907   18.658498   22.492216 C.3        1 MOL1        -0.2987
      11    H5      22.133982   19.646038   22.334072 H          1 MOL1         0.0700
      12    H6      22.033631   18.274617   23.458383 H          1 MOL1         0.0700
      13    H7      22.045118   17.983988   21.706144 H          1 MOL1         0.0700
@<TRIPOS>BOND
    1     1     2    1
    2     1     3    2
    3     1     4    1
    4     4     5    1
    5     4     6    1
    6     4     7    1
    7     7     8    1
    8     7     9    1
    9     7    10    1
   10    10    11    1
   11    10    12    1
   12    10    13    1
@<TRIPOS>SUBSTRUCTURE
       1 MOL1            1 RESIDUE      1      MOL     
@<SCITEGIC>MOL_PROPERTY
VConf Rank
SciTegic.value.IntegerValue
73

@<SCITEGIC>MOL_PROPERTY
Conf_Id
SciTegic.value.IntegerValue
0

@<SCITEGIC>MOL_PROPERTY
Delta U+W
SciTegic.value.DoubleValue
0.000

@<SCITEGIC>MOL_PROPERTY
U+W
SciTegic.value.DoubleValue
-58.332

@<SCITEGIC>MOL_PROPERTY
Grad RMS
SciTegic.value.DoubleValue
0.000000

@<SCITEGIC>MOL_PROPERTY
U
SciTegic.value.DoubleValue
8.390

@<SCITEGIC>MOL_PROPERTY
W
SciTegic.value.DoubleValue
-66.722

@<SCITEGIC>MOL_PROPERTY
W(PB)
SciTegic.value.DoubleValue
-68.455

@<SCITEGIC>MOL_PROPERTY
W(SA)
SciTegic.value.DoubleValue
1.733

@<SCITEGIC>MOL_PROPERTY
Valence
SciTegic.value.DoubleValue
6.333

@<SCITEGIC>MOL_PROPERTY
Coulomb
SciTegic.value.DoubleValue
1.215

@<SCITEGIC>MOL_PROPERTY
VdW
SciTegic.value.DoubleValue
0.842

@<SCITEGIC>MOL_PROPERTY
VdW6
SciTegic.value.DoubleValue
-3.344

@<SCITEGIC>MOL_PROPERTY
VdW12
SciTegic.value.DoubleValue
4.186

@<SCITEGIC>MOL_PROPERTY
Bond
SciTegic.value.DoubleValue
0.091

@<SCITEGIC>MOL_PROPERTY
Angle
SciTegic.value.DoubleValue
2.713

@<SCITEGIC>MOL_PROPERTY
Pdih
SciTegic.value.DoubleValue
3.529

@<SCITEGIC>MOL_PROPERTY
Idih
SciTegic.value.DoubleValue
0.000

@<SCITEGIC>MOL_PROPERTY
Tether
SciTegic.value.DoubleValue
0.000

@<TRIPOS>MOLECULE
guest-6_confgen4.mol2 : confsearch ligand conformer 74
          13          12           1
SMALL
USER_CHARGES
 
@<TRIPOS>ATOM
       1    C1      21.679800   19.836152   20.847965 C.2        1 MOL1         0.6021
       2    O1      21.766149   21.047610   20.831388 O.co2      1 MOL1        -0.6904
       3    O2      22.208626   19.114440   20.026481 O.co2      1 MOL1        -0.6904
       4    C2      20.847079   19.187338   21.948472 C.3        1 MOL1        -0.2102
       5    H1      20.928507   19.808040   22.849093 H          1 MOL1         0.0687
       6    H2      21.293416   18.213839   22.185331 H          1 MOL1         0.0687
       7    C3      19.360249   19.010307   21.556241 C.3        1 MOL1        -0.1974
       8    H3      18.926581   19.990077   21.311693 H          1 MOL1         0.0689
       9    H4      19.291557   18.395480   20.647895 H          1 MOL1         0.0689
      10    C4      18.546397   18.352632   22.688671 C.3        1 MOL1        -0.2987
      11    H5      17.495845   18.235576   22.392191 H          1 MOL1         0.0700
      12    H6      18.943135   17.357899   22.930869 H          1 MOL1         0.0700
      13    H7      18.575332   18.964748   23.599732 H          1 MOL1         0.0700
@<TRIPOS>BOND
    1     1     2    1
    2     1     3    2
    3     1     4    1
    4     4     5    1
    5     4     6    1
    6     4     7    1
    7     7     8    1
    8     7     9    1
    9     7    10    1
   10    10    11    1
   11    10    12    1
   12    10    13    1
@<TRIPOS>SUBSTRUCTURE
       1 MOL1            1 RESIDUE      1      MOL     
@<SCITEGIC>MOL_PROPERTY
VConf Rank
SciTegic.value.IntegerValue
74

@<SCITEGIC>MOL_PROPERTY
Conf_Id
SciTegic.value.IntegerValue
1

@<SCITEGIC>MOL_PROPERTY
Delta U+W
SciTegic.value.DoubleValue
-1.339

@<SCITEGIC>MOL_PROPERTY
U+W
SciTegic.value.DoubleValue
-59.672

@<SCITEGIC>MOL_PROPERTY
Grad RMS
SciTegic.value.DoubleValue
0.000000

@<SCITEGIC>MOL_PROPERTY
U
SciTegic.value.DoubleValue
7.389

@<SCITEGIC>MOL_PROPERTY
W
SciTegic.value.DoubleValue
-67.061

@<SCITEGIC>MOL_PROPERTY
W(PB)
SciTegic.value.DoubleValue
-68.767

@<SCITEGIC>MOL_PROPERTY
W(SA)
SciTegic.value.DoubleValue
1.707

@<SCITEGIC>MOL_PROPERTY
Valence
SciTegic.value.DoubleValue
5.822

@<SCITEGIC>MOL_PROPERTY
Coulomb
SciTegic.value.DoubleValue
1.255

@<SCITEGIC>MOL_PROPERTY
VdW
SciTegic.value.DoubleValue
0.312

@<SCITEGIC>MOL_PROPERTY
VdW6
SciTegic.value.DoubleValue
-3.061

@<SCITEGIC>MOL_PROPERTY
VdW12
SciTegic.value.DoubleValue
3.372

@<SCITEGIC>MOL_PROPERTY
Bond
SciTegic.value.DoubleValue
0.059

@<SCITEGIC>MOL_PROPERTY
Angle
SciTegic.value.DoubleValue
2.241

@<SCITEGIC>MOL_PROPERTY
Pdih
SciTegic.value.DoubleValue
3.522

@<SCITEGIC>MOL_PROPERTY
Idih
SciTegic.value.DoubleValue
0.000

@<SCITEGIC>MOL_PROPERTY
Tether
SciTegic.value.DoubleValue
0.000

@<TRIPOS>MOLECULE
guest-6_confgen4.mol2 : confsearch ligand conformer 75
          13          12           1
SMALL
USER_CHARGES
 
@<TRIPOS>ATOM
       1    C1      21.859152   19.233905   21.631684 C.2        1 MOL1         0.6021
       2    O1      22.101348   19.839100   20.606413 O.co2      1 MOL1        -0.6904
       3    O2      22.472958   19.398247   22.667125 O.co2      1 MOL1        -0.6904
       4    C2      20.748340   18.186956   21.604838 C.3        1 MOL1        -0.2102
       5    H1      20.867112   17.526237   22.472381 H          1 MOL1         0.0687
       6    H2      20.903134   17.568748   20.712513 H          1 MOL1         0.0687
       7    C3      19.316717   18.781173   21.578343 C.3        1 MOL1        -0.1974
       8    H3      19.221377   19.473010   20.729701 H          1 MOL1         0.0689
       9    H4      18.594054   17.971444   21.408134 H          1 MOL1         0.0689
      10    C4      18.956149   19.511151   22.888707 C.3        1 MOL1        -0.2987
      11    H5      19.633059   20.356909   23.068467 H          1 MOL1         0.0700
      12    H6      17.931257   19.901957   22.844414 H          1 MOL1         0.0700
      13    H7      19.023528   18.831173   23.748057 H          1 MOL1         0.0700
@<TRIPOS>BOND
    1     1     2    1
    2     1     3    2
    3     1     4    1
    4     4     5    1
    5     4     6    1
    6     4     7    1
    7     7     8    1
    8     7     9    1
    9     7    10    1
   10    10    11    1
   11    10    12    1
   12    10    13    1
@<TRIPOS>SUBSTRUCTURE
       1 MOL1            1 RESIDUE      1      MOL     
@<SCITEGIC>MOL_PROPERTY
VConf Rank
SciTegic.value.IntegerValue
75

@<SCITEGIC>MOL_PROPERTY
Conf_Id
SciTegic.value.IntegerValue
4

@<SCITEGIC>MOL_PROPERTY
Delta U+W
SciTegic.value.DoubleValue
0.281

@<SCITEGIC>MOL_PROPERTY
U+W
SciTegic.value.DoubleValue
-58.051

@<SCITEGIC>MOL_PROPERTY
Grad RMS
SciTegic.value.DoubleValue
0.000000

@<SCITEGIC>MOL_PROPERTY
U
SciTegic.value.DoubleValue
9.781

@<SCITEGIC>MOL_PROPERTY
W
SciTegic.value.DoubleValue
-67.832

@<SCITEGIC>MOL_PROPERTY
W(PB)
SciTegic.value.DoubleValue
-69.535

@<SCITEGIC>MOL_PROPERTY
W(SA)
SciTegic.value.DoubleValue
1.703

@<SCITEGIC>MOL_PROPERTY
Valence
SciTegic.value.DoubleValue
6.123

@<SCITEGIC>MOL_PROPERTY
Coulomb
SciTegic.value.DoubleValue
3.449

@<SCITEGIC>MOL_PROPERTY
VdW
SciTegic.value.DoubleValue
0.209

@<SCITEGIC>MOL_PROPERTY
VdW6
SciTegic.value.DoubleValue
-3.762

@<SCITEGIC>MOL_PROPERTY
VdW12
SciTegic.value.DoubleValue
3.972

@<SCITEGIC>MOL_PROPERTY
Bond
SciTegic.value.DoubleValue
0.078

@<SCITEGIC>MOL_PROPERTY
Angle
SciTegic.value.DoubleValue
2.428

@<SCITEGIC>MOL_PROPERTY
Pdih
SciTegic.value.DoubleValue
3.616

@<SCITEGIC>MOL_PROPERTY
Idih
SciTegic.value.DoubleValue
0.002

@<SCITEGIC>MOL_PROPERTY
Tether
SciTegic.value.DoubleValue
0.000

@<TRIPOS>MOLECULE
guest-6_confgen4.mol2 : confsearch ligand conformer 76
          13          12           1
SMALL
USER_CHARGES
 
@<TRIPOS>ATOM
       1    C1      21.030116   17.846517   20.938663 C.2        1 MOL1         0.6021
       2    O1      21.153693   16.772826   21.493479 O.co2      1 MOL1        -0.6904
       3    O2      20.838853   17.965220   19.744751 O.co2      1 MOL1        -0.6904
       4    C2      21.157044   19.115743   21.777518 C.3        1 MOL1        -0.2102
       5    H1      21.843528   19.788897   21.250270 H          1 MOL1         0.0687
       6    H2      21.634429   18.860210   22.731506 H          1 MOL1         0.0687
       7    C3      19.813104   19.845530   22.031631 C.3        1 MOL1        -0.1974
       8    H3      20.014438   20.815422   22.506655 H          1 MOL1         0.0689
       9    H4      19.323729   20.059899   21.071173 H          1 MOL1         0.0689
      10    C4      18.860373   19.031768   22.931643 C.3        1 MOL1        -0.2987
      11    H5      19.321881   18.825364   23.906219 H          1 MOL1         0.0700
      12    H6      17.928206   19.584251   23.107493 H          1 MOL1         0.0700
      13    H7      18.601616   18.071527   22.466017 H          1 MOL1         0.0700
@<TRIPOS>BOND
    1     1     2    1
    2     1     3    2
    3     1     4    1
    4     4     5    1
    5     4     6    1
    6     4     7    1
    7     7     8    1
    8     7     9    1
    9     7    10    1
   10    10    11    1
   11    10    12    1
   12    10    13    1
@<TRIPOS>SUBSTRUCTURE
       1 MOL1            1 RESIDUE      1      MOL     
@<SCITEGIC>MOL_PROPERTY
VConf Rank
SciTegic.value.IntegerValue
76

@<SCITEGIC>MOL_PROPERTY
Conf_Id
SciTegic.value.IntegerValue
36

@<SCITEGIC>MOL_PROPERTY
Delta U+W
SciTegic.value.DoubleValue
0.272

@<SCITEGIC>MOL_PROPERTY
U+W
SciTegic.value.DoubleValue
-58.060

@<SCITEGIC>MOL_PROPERTY
Grad RMS
SciTegic.value.DoubleValue
0.000000

@<SCITEGIC>MOL_PROPERTY
U
SciTegic.value.DoubleValue
9.781

@<SCITEGIC>MOL_PROPERTY
W
SciTegic.value.DoubleValue
-67.841

@<SCITEGIC>MOL_PROPERTY
W(PB)
SciTegic.value.DoubleValue
-69.537

@<SCITEGIC>MOL_PROPERTY
W(SA)
SciTegic.value.DoubleValue
1.696

@<SCITEGIC>MOL_PROPERTY
Valence
SciTegic.value.DoubleValue
6.123

@<SCITEGIC>MOL_PROPERTY
Coulomb
SciTegic.value.DoubleValue
3.449

@<SCITEGIC>MOL_PROPERTY
VdW
SciTegic.value.DoubleValue
0.209

@<SCITEGIC>MOL_PROPERTY
VdW6
SciTegic.value.DoubleValue
-3.762

@<SCITEGIC>MOL_PROPERTY
VdW12
SciTegic.value.DoubleValue
3.972

@<SCITEGIC>MOL_PROPERTY
Bond
SciTegic.value.DoubleValue
0.078

@<SCITEGIC>MOL_PROPERTY
Angle
SciTegic.value.DoubleValue
2.428

@<SCITEGIC>MOL_PROPERTY
Pdih
SciTegic.value.DoubleValue
3.616

@<SCITEGIC>MOL_PROPERTY
Idih
SciTegic.value.DoubleValue
0.002

@<SCITEGIC>MOL_PROPERTY
Tether
SciTegic.value.DoubleValue
0.000

@<TRIPOS>MOLECULE
guest-6_confgen4.mol2 : confsearch ligand conformer 77
          13          12           1
SMALL
USER_CHARGES
 
@<TRIPOS>ATOM
       1    C1      22.047048   18.558051   22.324274 C.2        1 MOL1         0.6021
       2    O1      22.509556   18.377948   21.214779 O.co2      1 MOL1        -0.6904
       3    O2      22.708163   18.468108   23.338982 O.co2      1 MOL1        -0.6904
       4    C2      20.567924   18.915374   22.483000 C.3        1 MOL1        -0.2102
       5    H1      20.517148   19.868969   23.021904 H          1 MOL1         0.0687
       6    H2      20.115217   18.156296   23.131994 H          1 MOL1         0.0687
       7    C3      19.763791   19.019096   21.160665 C.3        1 MOL1        -0.1974
       8    H3      20.220797   19.778216   20.510560 H          1 MOL1         0.0689
       9    H4      19.818433   18.063453   20.620742 H          1 MOL1         0.0689
      10    C4      18.287512   19.382085   21.418876 C.3        1 MOL1        -0.2987
      11    H5      18.204587   20.349860   21.930791 H          1 MOL1         0.0700
      12    H6      17.735201   19.450843   20.472577 H          1 MOL1         0.0700
      13    H7      17.799015   18.621344   22.041907 H          1 MOL1         0.0700
@<TRIPOS>BOND
    1     1     2    1
    2     1     3    2
    3     1     4    1
    4     4     5    1
    5     4     6    1
    6     4     7    1
    7     7     8    1
    8     7     9    1
    9     7    10    1
   10    10    11    1
   11    10    12    1
   12    10    13    1
@<TRIPOS>SUBSTRUCTURE
       1 MOL1            1 RESIDUE      1      MOL     
@<SCITEGIC>MOL_PROPERTY
VConf Rank
SciTegic.value.IntegerValue
77

@<SCITEGIC>MOL_PROPERTY
Conf_Id
SciTegic.value.IntegerValue
0

@<SCITEGIC>MOL_PROPERTY
Delta U+W
SciTegic.value.DoubleValue
0.000

@<SCITEGIC>MOL_PROPERTY
U+W
SciTegic.value.DoubleValue
-58.332

@<SCITEGIC>MOL_PROPERTY
Grad RMS
SciTegic.value.DoubleValue
0.000000

@<SCITEGIC>MOL_PROPERTY
U
SciTegic.value.DoubleValue
8.390

@<SCITEGIC>MOL_PROPERTY
W
SciTegic.value.DoubleValue
-66.722

@<SCITEGIC>MOL_PROPERTY
W(PB)
SciTegic.value.DoubleValue
-68.455

@<SCITEGIC>MOL_PROPERTY
W(SA)
SciTegic.value.DoubleValue
1.733

@<SCITEGIC>MOL_PROPERTY
Valence
SciTegic.value.DoubleValue
6.333

@<SCITEGIC>MOL_PROPERTY
Coulomb
SciTegic.value.DoubleValue
1.215

@<SCITEGIC>MOL_PROPERTY
VdW
SciTegic.value.DoubleValue
0.842

@<SCITEGIC>MOL_PROPERTY
VdW6
SciTegic.value.DoubleValue
-3.344

@<SCITEGIC>MOL_PROPERTY
VdW12
SciTegic.value.DoubleValue
4.186

@<SCITEGIC>MOL_PROPERTY
Bond
SciTegic.value.DoubleValue
0.091

@<SCITEGIC>MOL_PROPERTY
Angle
SciTegic.value.DoubleValue
2.713

@<SCITEGIC>MOL_PROPERTY
Pdih
SciTegic.value.DoubleValue
3.529

@<SCITEGIC>MOL_PROPERTY
Idih
SciTegic.value.DoubleValue
0.000

@<SCITEGIC>MOL_PROPERTY
Tether
SciTegic.value.DoubleValue
0.000

@<TRIPOS>MOLECULE
guest-6_confgen4.mol2 : confsearch ligand conformer 78
          13          12           1
SMALL
USER_CHARGES
 
@<TRIPOS>ATOM
       1    C1      21.434495   18.988821   20.292694 C.2        1 MOL1         0.6021
       2    O1      21.004164   18.968956   19.157009 O.co2      1 MOL1        -0.6904
       3    O2      22.529974   18.565498   20.602668 O.co2      1 MOL1        -0.6904
       4    C2      20.543970   19.558716   21.391641 C.3        1 MOL1        -0.2102
       5    H1      19.930827   20.356398   20.954859 H          1 MOL1         0.0687
       6    H2      21.189106   20.023701   22.147026 H          1 MOL1         0.0687
       7    C3      19.637862   18.490258   22.049833 C.3        1 MOL1        -0.1974
       8    H3      19.003576   18.024608   21.282584 H          1 MOL1         0.0689
       9    H4      20.262089   17.691929   22.475079 H          1 MOL1         0.0689
      10    C4      18.750971   19.097553   23.155233 C.3        1 MOL1        -0.2987
      11    H5      18.116363   18.325497   23.609615 H          1 MOL1         0.0700
      12    H6      19.363731   19.543504   23.949719 H          1 MOL1         0.0700
      13    H7      18.095547   19.878699   22.748063 H          1 MOL1         0.0700
@<TRIPOS>BOND
    1     1     2    1
    2     1     3    2
    3     1     4    1
    4     4     5    1
    5     4     6    1
    6     4     7    1
    7     7     8    1
    8     7     9    1
    9     7    10    1
   10    10    11    1
   11    10    12    1
   12    10    13    1
@<TRIPOS>SUBSTRUCTURE
       1 MOL1            1 RESIDUE      1      MOL     
@<SCITEGIC>MOL_PROPERTY
VConf Rank
SciTegic.value.IntegerValue
78

@<SCITEGIC>MOL_PROPERTY
Conf_Id
SciTegic.value.IntegerValue
1

@<SCITEGIC>MOL_PROPERTY
Delta U+W
SciTegic.value.DoubleValue
-1.339

@<SCITEGIC>MOL_PROPERTY
U+W
SciTegic.value.DoubleValue
-59.672

@<SCITEGIC>MOL_PROPERTY
Grad RMS
SciTegic.value.DoubleValue
0.000000

@<SCITEGIC>MOL_PROPERTY
U
SciTegic.value.DoubleValue
7.389

@<SCITEGIC>MOL_PROPERTY
W
SciTegic.value.DoubleValue
-67.061

@<SCITEGIC>MOL_PROPERTY
W(PB)
SciTegic.value.DoubleValue
-68.767

@<SCITEGIC>MOL_PROPERTY
W(SA)
SciTegic.value.DoubleValue
1.707

@<SCITEGIC>MOL_PROPERTY
Valence
SciTegic.value.DoubleValue
5.822

@<SCITEGIC>MOL_PROPERTY
Coulomb
SciTegic.value.DoubleValue
1.255

@<SCITEGIC>MOL_PROPERTY
VdW
SciTegic.value.DoubleValue
0.312

@<SCITEGIC>MOL_PROPERTY
VdW6
SciTegic.value.DoubleValue
-3.061

@<SCITEGIC>MOL_PROPERTY
VdW12
SciTegic.value.DoubleValue
3.372

@<SCITEGIC>MOL_PROPERTY
Bond
SciTegic.value.DoubleValue
0.059

@<SCITEGIC>MOL_PROPERTY
Angle
SciTegic.value.DoubleValue
2.241

@<SCITEGIC>MOL_PROPERTY
Pdih
SciTegic.value.DoubleValue
3.522

@<SCITEGIC>MOL_PROPERTY
Idih
SciTegic.value.DoubleValue
0.000

@<SCITEGIC>MOL_PROPERTY
Tether
SciTegic.value.DoubleValue
0.000

@<TRIPOS>MOLECULE
guest-6_confgen4.mol2 : confsearch ligand conformer 79
          13          12           1
SMALL
USER_CHARGES
 
@<TRIPOS>ATOM
       1    C1      19.367303   17.408104   22.448596 C.2        1 MOL1         0.6021
       2    O1      18.506025   16.996346   21.697095 O.co2      1 MOL1        -0.6904
       3    O2      20.194005   16.691239   22.976397 O.co2      1 MOL1        -0.6904
       4    C2      19.387174   18.899778   22.773007 C.3        1 MOL1        -0.2102
       5    H1      19.986719   19.054541   23.678480 H          1 MOL1         0.0687
       6    H2      18.360102   19.194615   23.019136 H          1 MOL1         0.0687
       7    C3      19.918065   19.792513   21.622130 C.3        1 MOL1        -0.1974
       8    H3      19.337368   19.599492   20.709191 H          1 MOL1         0.0689
       9    H4      19.756807   20.847779   21.881520 H          1 MOL1         0.0689
      10    C4      21.418280   19.565803   21.343050 C.3        1 MOL1        -0.2987
      11    H5      21.610483   18.528908   21.036888 H          1 MOL1         0.0700
      12    H6      21.766064   20.225996   20.537887 H          1 MOL1         0.0700
      13    H7      22.019790   19.774896   22.237398 H          1 MOL1         0.0700
@<TRIPOS>BOND
    1     1     2    1
    2     1     3    2
    3     1     4    1
    4     4     5    1
    5     4     6    1
    6     4     7    1
    7     7     8    1
    8     7     9    1
    9     7    10    1
   10    10    11    1
   11    10    12    1
   12    10    13    1
@<TRIPOS>SUBSTRUCTURE
       1 MOL1            1 RESIDUE      1      MOL     
@<SCITEGIC>MOL_PROPERTY
VConf Rank
SciTegic.value.IntegerValue
79

@<SCITEGIC>MOL_PROPERTY
Conf_Id
SciTegic.value.IntegerValue
4

@<SCITEGIC>MOL_PROPERTY
Delta U+W
SciTegic.value.DoubleValue
0.281

@<SCITEGIC>MOL_PROPERTY
U+W
SciTegic.value.DoubleValue
-58.051

@<SCITEGIC>MOL_PROPERTY
Grad RMS
SciTegic.value.DoubleValue
0.000000

@<SCITEGIC>MOL_PROPERTY
U
SciTegic.value.DoubleValue
9.781

@<SCITEGIC>MOL_PROPERTY
W
SciTegic.value.DoubleValue
-67.832

@<SCITEGIC>MOL_PROPERTY
W(PB)
SciTegic.value.DoubleValue
-69.535

@<SCITEGIC>MOL_PROPERTY
W(SA)
SciTegic.value.DoubleValue
1.703

@<SCITEGIC>MOL_PROPERTY
Valence
SciTegic.value.DoubleValue
6.123

@<SCITEGIC>MOL_PROPERTY
Coulomb
SciTegic.value.DoubleValue
3.449

@<SCITEGIC>MOL_PROPERTY
VdW
SciTegic.value.DoubleValue
0.209

@<SCITEGIC>MOL_PROPERTY
VdW6
SciTegic.value.DoubleValue
-3.762

@<SCITEGIC>MOL_PROPERTY
VdW12
SciTegic.value.DoubleValue
3.972

@<SCITEGIC>MOL_PROPERTY
Bond
SciTegic.value.DoubleValue
0.078

@<SCITEGIC>MOL_PROPERTY
Angle
SciTegic.value.DoubleValue
2.428

@<SCITEGIC>MOL_PROPERTY
Pdih
SciTegic.value.DoubleValue
3.616

@<SCITEGIC>MOL_PROPERTY
Idih
SciTegic.value.DoubleValue
0.002

@<SCITEGIC>MOL_PROPERTY
Tether
SciTegic.value.DoubleValue
0.000

@<TRIPOS>MOLECULE
guest-6_confgen4.mol2 : confsearch ligand conformer 80
          13          12           1
SMALL
USER_CHARGES
 
@<TRIPOS>ATOM
       1    C1      20.891183   17.527607   21.263970 C.2        1 MOL1         0.6021
       2    O1      22.073426   17.514215   21.543304 O.co2      1 MOL1        -0.6904
       3    O2      20.205827   16.526191   21.204391 O.co2      1 MOL1        -0.6904
       4    C2      20.238301   18.867889   20.935161 C.3        1 MOL1        -0.2102
       5    H1      19.668983   18.735443   20.007410 H          1 MOL1         0.0687
       6    H2      21.026835   19.599795   20.721116 H          1 MOL1         0.0687
       7    C3      19.298225   19.405025   22.044701 C.3        1 MOL1        -0.1974
       8    H3      18.760780   20.285190   21.666107 H          1 MOL1         0.0689
       9    H4      18.537373   18.647759   22.280443 H          1 MOL1         0.0689
      10    C4      20.061288   19.793966   23.327817 C.3        1 MOL1        -0.2987
      11    H5      20.812524   20.566800   23.118618 H          1 MOL1         0.0700
      12    H6      19.370322   20.187969   24.084404 H          1 MOL1         0.0700
      13    H7      20.575946   18.925326   23.759577 H          1 MOL1         0.0700
@<TRIPOS>BOND
    1     1     2    1
    2     1     3    2
    3     1     4    1
    4     4     5    1
    5     4     6    1
    6     4     7    1
    7     7     8    1
    8     7     9    1
    9     7    10    1
   10    10    11    1
   11    10    12    1
   12    10    13    1
@<TRIPOS>SUBSTRUCTURE
       1 MOL1            1 RESIDUE      1      MOL     
@<SCITEGIC>MOL_PROPERTY
VConf Rank
SciTegic.value.IntegerValue
80

@<SCITEGIC>MOL_PROPERTY
Conf_Id
SciTegic.value.IntegerValue
36

@<SCITEGIC>MOL_PROPERTY
Delta U+W
SciTegic.value.DoubleValue
0.272

@<SCITEGIC>MOL_PROPERTY
U+W
SciTegic.value.DoubleValue
-58.060

@<SCITEGIC>MOL_PROPERTY
Grad RMS
SciTegic.value.DoubleValue
0.000000

@<SCITEGIC>MOL_PROPERTY
U
SciTegic.value.DoubleValue
9.781

@<SCITEGIC>MOL_PROPERTY
W
SciTegic.value.DoubleValue
-67.841

@<SCITEGIC>MOL_PROPERTY
W(PB)
SciTegic.value.DoubleValue
-69.537

@<SCITEGIC>MOL_PROPERTY
W(SA)
SciTegic.value.DoubleValue
1.696

@<SCITEGIC>MOL_PROPERTY
Valence
SciTegic.value.DoubleValue
6.123

@<SCITEGIC>MOL_PROPERTY
Coulomb
SciTegic.value.DoubleValue
3.449

@<SCITEGIC>MOL_PROPERTY
VdW
SciTegic.value.DoubleValue
0.209

@<SCITEGIC>MOL_PROPERTY
VdW6
SciTegic.value.DoubleValue
-3.762

@<SCITEGIC>MOL_PROPERTY
VdW12
SciTegic.value.DoubleValue
3.972

@<SCITEGIC>MOL_PROPERTY
Bond
SciTegic.value.DoubleValue
0.078

@<SCITEGIC>MOL_PROPERTY
Angle
SciTegic.value.DoubleValue
2.428

@<SCITEGIC>MOL_PROPERTY
Pdih
SciTegic.value.DoubleValue
3.616

@<SCITEGIC>MOL_PROPERTY
Idih
SciTegic.value.DoubleValue
0.002

@<SCITEGIC>MOL_PROPERTY
Tether
SciTegic.value.DoubleValue
0.000

@<TRIPOS>MOLECULE
guest-6_confgen4.mol2 : confsearch ligand conformer 81
          13          12           1
SMALL
USER_CHARGES
 
@<TRIPOS>ATOM
       1    C1      20.564075   20.240090   20.172066 C.2        1 MOL1         0.6021
       2    O1      19.594740   20.080523   19.456345 O.co2      1 MOL1        -0.6904
       3    O2      21.499978   20.952115   19.868913 O.co2      1 MOL1        -0.6904
       4    C2      20.638528   19.524881   21.522480 C.3        1 MOL1        -0.2102
       5    H1      20.760162   20.294060   22.294430 H          1 MOL1         0.0687
       6    H2      21.554454   18.922041   21.523988 H          1 MOL1         0.0687
       7    C3      19.421507   18.626969   21.866820 C.3        1 MOL1        -0.1974
       8    H3      18.504344   19.232396   21.861923 H          1 MOL1         0.0689
       9    H4      19.299563   17.858729   21.090488 H          1 MOL1         0.0689
      10    C4      19.584925   17.949160   23.242212 C.3        1 MOL1        -0.2987
      11    H5      19.677708   18.697339   24.040424 H          1 MOL1         0.0700
      12    H6      18.715057   17.318657   23.468163 H          1 MOL1         0.0700
      13    H7      20.479350   17.312683   23.262800 H          1 MOL1         0.0700
@<TRIPOS>BOND
    1     1     2    1
    2     1     3    2
    3     1     4    1
    4     4     5    1
    5     4     6    1
    6     4     7    1
    7     7     8    1
    8     7     9    1
    9     7    10    1
   10    10    11    1
   11    10    12    1
   12    10    13    1
@<TRIPOS>SUBSTRUCTURE
       1 MOL1            1 RESIDUE      1      MOL     
@<SCITEGIC>MOL_PROPERTY
VConf Rank
SciTegic.value.IntegerValue
81

@<SCITEGIC>MOL_PROPERTY
Conf_Id
SciTegic.value.IntegerValue
0

@<SCITEGIC>MOL_PROPERTY
Delta U+W
SciTegic.value.DoubleValue
0.000

@<SCITEGIC>MOL_PROPERTY
U+W
SciTegic.value.DoubleValue
-58.332

@<SCITEGIC>MOL_PROPERTY
Grad RMS
SciTegic.value.DoubleValue
0.000000

@<SCITEGIC>MOL_PROPERTY
U
SciTegic.value.DoubleValue
8.390

@<SCITEGIC>MOL_PROPERTY
W
SciTegic.value.DoubleValue
-66.722

@<SCITEGIC>MOL_PROPERTY
W(PB)
SciTegic.value.DoubleValue
-68.455

@<SCITEGIC>MOL_PROPERTY
W(SA)
SciTegic.value.DoubleValue
1.733

@<SCITEGIC>MOL_PROPERTY
Valence
SciTegic.value.DoubleValue
6.333

@<SCITEGIC>MOL_PROPERTY
Coulomb
SciTegic.value.DoubleValue
1.215

@<SCITEGIC>MOL_PROPERTY
VdW
SciTegic.value.DoubleValue
0.842

@<SCITEGIC>MOL_PROPERTY
VdW6
SciTegic.value.DoubleValue
-3.344

@<SCITEGIC>MOL_PROPERTY
VdW12
SciTegic.value.DoubleValue
4.186

@<SCITEGIC>MOL_PROPERTY
Bond
SciTegic.value.DoubleValue
0.091

@<SCITEGIC>MOL_PROPERTY
Angle
SciTegic.value.DoubleValue
2.713

@<SCITEGIC>MOL_PROPERTY
Pdih
SciTegic.value.DoubleValue
3.529

@<SCITEGIC>MOL_PROPERTY
Idih
SciTegic.value.DoubleValue
0.000

@<SCITEGIC>MOL_PROPERTY
Tether
SciTegic.value.DoubleValue
0.000

@<TRIPOS>MOLECULE
guest-6_confgen4.mol2 : confsearch ligand conformer 82
          13          12           1
SMALL
USER_CHARGES
 
@<TRIPOS>ATOM
       1    C1      21.018198   20.350032   20.534112 C.2        1 MOL1         0.6021
       2    O1      21.110310   19.992044   19.377080 O.co2      1 MOL1        -0.6904
       3    O2      21.791977   21.124275   21.060585 O.co2      1 MOL1        -0.6904
       4    C2      19.880837   19.782286   21.376474 C.3        1 MOL1        -0.2102
       5    H1      19.020627   19.611311   20.717820 H          1 MOL1         0.0687
       6    H2      19.582758   20.545029   22.106126 H          1 MOL1         0.0687
       7    C3      20.264000   18.470625   22.103509 C.3        1 MOL1        -0.1974
       8    H3      20.570121   17.717602   21.363869 H          1 MOL1         0.0689
       9    H4      21.132263   18.651527   22.752521 H          1 MOL1         0.0689
      10    C4      19.094189   17.922891   22.945424 C.3        1 MOL1        -0.2987
      11    H5      19.384726   16.993672   23.452772 H          1 MOL1         0.0700
      12    H6      18.789547   18.646982   23.712523 H          1 MOL1         0.0700
      13    H7      18.223121   17.705861   22.313210 H          1 MOL1         0.0700
@<TRIPOS>BOND
    1     1     2    1
    2     1     3    2
    3     1     4    1
    4     4     5    1
    5     4     6    1
    6     4     7    1
    7     7     8    1
    8     7     9    1
    9     7    10    1
   10    10    11    1
   11    10    12    1
   12    10    13    1
@<TRIPOS>SUBSTRUCTURE
       1 MOL1            1 RESIDUE      1      MOL     
@<SCITEGIC>MOL_PROPERTY
VConf Rank
SciTegic.value.IntegerValue
82

@<SCITEGIC>MOL_PROPERTY
Conf_Id
SciTegic.value.IntegerValue
1

@<SCITEGIC>MOL_PROPERTY
Delta U+W
SciTegic.value.DoubleValue
-1.339

@<SCITEGIC>MOL_PROPERTY
U+W
SciTegic.value.DoubleValue
-59.672

@<SCITEGIC>MOL_PROPERTY
Grad RMS
SciTegic.value.DoubleValue
0.000000

@<SCITEGIC>MOL_PROPERTY
U
SciTegic.value.DoubleValue
7.389

@<SCITEGIC>MOL_PROPERTY
W
SciTegic.value.DoubleValue
-67.061

@<SCITEGIC>MOL_PROPERTY
W(PB)
SciTegic.value.DoubleValue
-68.767

@<SCITEGIC>MOL_PROPERTY
W(SA)
SciTegic.value.DoubleValue
1.707

@<SCITEGIC>MOL_PROPERTY
Valence
SciTegic.value.DoubleValue
5.822

@<SCITEGIC>MOL_PROPERTY
Coulomb
SciTegic.value.DoubleValue
1.255

@<SCITEGIC>MOL_PROPERTY
VdW
SciTegic.value.DoubleValue
0.312

@<SCITEGIC>MOL_PROPERTY
VdW6
SciTegic.value.DoubleValue
-3.061

@<SCITEGIC>MOL_PROPERTY
VdW12
SciTegic.value.DoubleValue
3.372

@<SCITEGIC>MOL_PROPERTY
Bond
SciTegic.value.DoubleValue
0.059

@<SCITEGIC>MOL_PROPERTY
Angle
SciTegic.value.DoubleValue
2.241

@<SCITEGIC>MOL_PROPERTY
Pdih
SciTegic.value.DoubleValue
3.522

@<SCITEGIC>MOL_PROPERTY
Idih
SciTegic.value.DoubleValue
0.000

@<SCITEGIC>MOL_PROPERTY
Tether
SciTegic.value.DoubleValue
0.000

@<TRIPOS>MOLECULE
guest-6_confgen4.mol2 : confsearch ligand conformer 83
          13          12           1
SMALL
USER_CHARGES
 
@<TRIPOS>ATOM
       1    C1      19.468396   18.207119   23.480500 C.2        1 MOL1         0.6021
       2    O1      20.241708   18.098258   24.411219 O.co2      1 MOL1        -0.6904
       3    O2      18.300468   18.514281   23.612789 O.co2      1 MOL1        -0.6904
       4    C2      19.985172   17.906677   22.075721 C.3        1 MOL1        -0.2102
       5    H1      19.126726   17.735648   21.414581 H          1 MOL1         0.0687
       6    H2      20.539102   16.961691   22.126214 H          1 MOL1         0.0687
       7    C3      20.900986   19.010271   21.486905 C.3        1 MOL1        -0.1974
       8    H3      21.734853   19.202778   22.176490 H          1 MOL1         0.0689
       9    H4      21.344100   18.647845   20.549264 H          1 MOL1         0.0689
      10    C4      20.140037   20.323384   21.210100 C.3        1 MOL1        -0.2987
      11    H5      19.720006   20.738786   22.135758 H          1 MOL1         0.0700
      12    H6      20.811641   21.075607   20.776274 H          1 MOL1         0.0700
      13    H7      19.314987   20.157664   20.504961 H          1 MOL1         0.0700
@<TRIPOS>BOND
    1     1     2    1
    2     1     3    2
    3     1     4    1
    4     4     5    1
    5     4     6    1
    6     4     7    1
    7     7     8    1
    8     7     9    1
    9     7    10    1
   10    10    11    1
   11    10    12    1
   12    10    13    1
@<TRIPOS>SUBSTRUCTURE
       1 MOL1            1 RESIDUE      1      MOL     
@<SCITEGIC>MOL_PROPERTY
VConf Rank
SciTegic.value.IntegerValue
83

@<SCITEGIC>MOL_PROPERTY
Conf_Id
SciTegic.value.IntegerValue
4

@<SCITEGIC>MOL_PROPERTY
Delta U+W
SciTegic.value.DoubleValue
0.281

@<SCITEGIC>MOL_PROPERTY
U+W
SciTegic.value.DoubleValue
-58.051

@<SCITEGIC>MOL_PROPERTY
Grad RMS
SciTegic.value.DoubleValue
0.000000

@<SCITEGIC>MOL_PROPERTY
U
SciTegic.value.DoubleValue
9.781

@<SCITEGIC>MOL_PROPERTY
W
SciTegic.value.DoubleValue
-67.832

@<SCITEGIC>MOL_PROPERTY
W(PB)
SciTegic.value.DoubleValue
-69.535

@<SCITEGIC>MOL_PROPERTY
W(SA)
SciTegic.value.DoubleValue
1.703

@<SCITEGIC>MOL_PROPERTY
Valence
SciTegic.value.DoubleValue
6.123

@<SCITEGIC>MOL_PROPERTY
Coulomb
SciTegic.value.DoubleValue
3.449

@<SCITEGIC>MOL_PROPERTY
VdW
SciTegic.value.DoubleValue
0.209

@<SCITEGIC>MOL_PROPERTY
VdW6
SciTegic.value.DoubleValue
-3.762

@<SCITEGIC>MOL_PROPERTY
VdW12
SciTegic.value.DoubleValue
3.972

@<SCITEGIC>MOL_PROPERTY
Bond
SciTegic.value.DoubleValue
0.078

@<SCITEGIC>MOL_PROPERTY
Angle
SciTegic.value.DoubleValue
2.428

@<SCITEGIC>MOL_PROPERTY
Pdih
SciTegic.value.DoubleValue
3.616

@<SCITEGIC>MOL_PROPERTY
Idih
SciTegic.value.DoubleValue
0.002

@<SCITEGIC>MOL_PROPERTY
Tether
SciTegic.value.DoubleValue
0.000

@<TRIPOS>MOLECULE
guest-6_confgen4.mol2 : confsearch ligand conformer 84
          13          12           1
SMALL
USER_CHARGES
 
@<TRIPOS>ATOM
       1    C1      19.179452   20.477776   21.768269 C.2        1 MOL1         0.6021
       2    O1      19.594580   21.333351   22.524289 O.co2      1 MOL1        -0.6904
       3    O2      18.808459   20.708701   20.634631 O.co2      1 MOL1        -0.6904
       4    C2      19.084334   19.042194   22.278936 C.3        1 MOL1        -0.2102
       5    H1      18.086818   18.668150   22.019243 H          1 MOL1         0.0687
       6    H2      19.142821   19.054215   23.374254 H          1 MOL1         0.0687
       7    C3      20.159849   18.089150   21.697290 C.3        1 MOL1        -0.1974
       8    H3      19.926648   17.058082   21.996267 H          1 MOL1         0.0689
       9    H4      20.120031   18.116172   20.599289 H          1 MOL1         0.0689
      10    C4      21.583129   18.442893   22.175899 C.3        1 MOL1        -0.2987
      11    H5      21.650910   18.400113   23.270872 H          1 MOL1         0.0700
      12    H6      22.316545   17.738432   21.762459 H          1 MOL1         0.0700
      13    H7      21.867433   19.453945   21.855319 H          1 MOL1         0.0700
@<TRIPOS>BOND
    1     1     2    1
    2     1     3    2
    3     1     4    1
    4     4     5    1
    5     4     6    1
    6     4     7    1
    7     7     8    1
    8     7     9    1
    9     7    10    1
   10    10    11    1
   11    10    12    1
   12    10    13    1
@<TRIPOS>SUBSTRUCTURE
       1 MOL1            1 RESIDUE      1      MOL     
@<SCITEGIC>MOL_PROPERTY
VConf Rank
SciTegic.value.IntegerValue
84

@<SCITEGIC>MOL_PROPERTY
Conf_Id
SciTegic.value.IntegerValue
36

@<SCITEGIC>MOL_PROPERTY
Delta U+W
SciTegic.value.DoubleValue
0.272

@<SCITEGIC>MOL_PROPERTY
U+W
SciTegic.value.DoubleValue
-58.060

@<SCITEGIC>MOL_PROPERTY
Grad RMS
SciTegic.value.DoubleValue
0.000000

@<SCITEGIC>MOL_PROPERTY
U
SciTegic.value.DoubleValue
9.781

@<SCITEGIC>MOL_PROPERTY
W
SciTegic.value.DoubleValue
-67.841

@<SCITEGIC>MOL_PROPERTY
W(PB)
SciTegic.value.DoubleValue
-69.537

@<SCITEGIC>MOL_PROPERTY
W(SA)
SciTegic.value.DoubleValue
1.696

@<SCITEGIC>MOL_PROPERTY
Valence
SciTegic.value.DoubleValue
6.123

@<SCITEGIC>MOL_PROPERTY
Coulomb
SciTegic.value.DoubleValue
3.449

@<SCITEGIC>MOL_PROPERTY
VdW
SciTegic.value.DoubleValue
0.209

@<SCITEGIC>MOL_PROPERTY
VdW6
SciTegic.value.DoubleValue
-3.762

@<SCITEGIC>MOL_PROPERTY
VdW12
SciTegic.value.DoubleValue
3.972

@<SCITEGIC>MOL_PROPERTY
Bond
SciTegic.value.DoubleValue
0.078

@<SCITEGIC>MOL_PROPERTY
Angle
SciTegic.value.DoubleValue
2.428

@<SCITEGIC>MOL_PROPERTY
Pdih
SciTegic.value.DoubleValue
3.616

@<SCITEGIC>MOL_PROPERTY
Idih
SciTegic.value.DoubleValue
0.002

@<SCITEGIC>MOL_PROPERTY
Tether
SciTegic.value.DoubleValue
0.000

@<TRIPOS>MOLECULE
guest-6_confgen4.mol2 : confsearch ligand conformer 85
          13          12           1
SMALL
USER_CHARGES
 
@<TRIPOS>ATOM
       1    C1      19.265229   19.092273   19.829479 C.2        1 MOL1         0.6021
       2    O1      18.720262   20.178360   19.856944 O.co2      1 MOL1        -0.6904
       3    O2      19.275949   18.382440   18.844178 O.co2      1 MOL1        -0.6904
       4    C2      19.978486   18.567335   21.077031 C.3        1 MOL1        -0.2102
       5    H1      21.020024   18.366705   20.799031 H          1 MOL1         0.0687
       6    H2      19.523909   17.602878   21.333001 H          1 MOL1         0.0687
       7    C3      19.938686   19.507376   22.310195 C.3        1 MOL1        -0.1974
       8    H3      20.392051   20.474272   22.050718 H          1 MOL1         0.0689
       9    H4      18.894087   19.709570   22.585304 H          1 MOL1         0.0689
      10    C4      20.680804   18.896617   23.516043 C.3        1 MOL1        -0.2987
      11    H5      21.736497   18.713655   23.276129 H          1 MOL1         0.0700
      12    H6      20.641881   19.575381   24.378031 H          1 MOL1         0.0700
      13    H7      20.226526   17.942782   23.814965 H          1 MOL1         0.0700
@<TRIPOS>BOND
    1     1     2    1
    2     1     3    2
    3     1     4    1
    4     4     5    1
    5     4     6    1
    6     4     7    1
    7     7     8    1
    8     7     9    1
    9     7    10    1
   10    10    11    1
   11    10    12    1
   12    10    13    1
@<TRIPOS>SUBSTRUCTURE
       1 MOL1            1 RESIDUE      1      MOL     
@<SCITEGIC>MOL_PROPERTY
VConf Rank
SciTegic.value.IntegerValue
85

@<SCITEGIC>MOL_PROPERTY
Conf_Id
SciTegic.value.IntegerValue
0

@<SCITEGIC>MOL_PROPERTY
Delta U+W
SciTegic.value.DoubleValue
0.000

@<SCITEGIC>MOL_PROPERTY
U+W
SciTegic.value.DoubleValue
-58.332

@<SCITEGIC>MOL_PROPERTY
Grad RMS
SciTegic.value.DoubleValue
0.000000

@<SCITEGIC>MOL_PROPERTY
U
SciTegic.value.DoubleValue
8.390

@<SCITEGIC>MOL_PROPERTY
W
SciTegic.value.DoubleValue
-66.722

@<SCITEGIC>MOL_PROPERTY
W(PB)
SciTegic.value.DoubleValue
-68.455

@<SCITEGIC>MOL_PROPERTY
W(SA)
SciTegic.value.DoubleValue
1.733

@<SCITEGIC>MOL_PROPERTY
Valence
SciTegic.value.DoubleValue
6.333

@<SCITEGIC>MOL_PROPERTY
Coulomb
SciTegic.value.DoubleValue
1.215

@<SCITEGIC>MOL_PROPERTY
VdW
SciTegic.value.DoubleValue
0.842

@<SCITEGIC>MOL_PROPERTY
VdW6
SciTegic.value.DoubleValue
-3.344

@<SCITEGIC>MOL_PROPERTY
VdW12
SciTegic.value.DoubleValue
4.186

@<SCITEGIC>MOL_PROPERTY
Bond
SciTegic.value.DoubleValue
0.091

@<SCITEGIC>MOL_PROPERTY
Angle
SciTegic.value.DoubleValue
2.713

@<SCITEGIC>MOL_PROPERTY
Pdih
SciTegic.value.DoubleValue
3.529

@<SCITEGIC>MOL_PROPERTY
Idih
SciTegic.value.DoubleValue
0.000

@<SCITEGIC>MOL_PROPERTY
Tether
SciTegic.value.DoubleValue
0.000

@<TRIPOS>MOLECULE
guest-6_confgen4.mol2 : confsearch ligand conformer 86
          13          12           1
SMALL
USER_CHARGES
 
@<TRIPOS>ATOM
       1    C1      20.087158   17.259607   22.964472 C.2        1 MOL1         0.6021
       2    O1      20.644072   17.341636   24.040800 O.co2      1 MOL1        -0.6904
       3    O2      19.983714   16.223084   22.339749 O.co2      1 MOL1        -0.6904
       4    C2      19.502864   18.529963   22.355955 C.3        1 MOL1        -0.2102
       5    H1      19.161433   19.174955   23.174753 H          1 MOL1         0.0687
       6    H2      18.616849   18.252528   21.771981 H          1 MOL1         0.0687
       7    C3      20.512082   19.291759   21.463210 C.3        1 MOL1        -0.1974
       8    H3      21.399186   19.555676   22.055844 H          1 MOL1         0.0689
       9    H4      20.854394   18.633125   20.652749 H          1 MOL1         0.0689
      10    C4      19.891572   20.569683   20.863903 C.3        1 MOL1        -0.2987
      11    H5      20.621487   21.095582   20.234685 H          1 MOL1         0.0700
      12    H6      19.019425   20.328454   20.242032 H          1 MOL1         0.0700
      13    H7      19.568439   21.258085   21.655890 H          1 MOL1         0.0700
@<TRIPOS>BOND
    1     1     2    1
    2     1     3    2
    3     1     4    1
    4     4     5    1
    5     4     6    1
    6     4     7    1
    7     7     8    1
    8     7     9    1
    9     7    10    1
   10    10    11    1
   11    10    12    1
   12    10    13    1
@<TRIPOS>SUBSTRUCTURE
       1 MOL1            1 RESIDUE      1      MOL     
@<SCITEGIC>MOL_PROPERTY
VConf Rank
SciTegic.value.IntegerValue
86

@<SCITEGIC>MOL_PROPERTY
Conf_Id
SciTegic.value.IntegerValue
1

@<SCITEGIC>MOL_PROPERTY
Delta U+W
SciTegic.value.DoubleValue
-1.339

@<SCITEGIC>MOL_PROPERTY
U+W
SciTegic.value.DoubleValue
-59.672

@<SCITEGIC>MOL_PROPERTY
Grad RMS
SciTegic.value.DoubleValue
0.000000

@<SCITEGIC>MOL_PROPERTY
U
SciTegic.value.DoubleValue
7.389

@<SCITEGIC>MOL_PROPERTY
W
SciTegic.value.DoubleValue
-67.061

@<SCITEGIC>MOL_PROPERTY
W(PB)
SciTegic.value.DoubleValue
-68.767

@<SCITEGIC>MOL_PROPERTY
W(SA)
SciTegic.value.DoubleValue
1.707

@<SCITEGIC>MOL_PROPERTY
Valence
SciTegic.value.DoubleValue
5.822

@<SCITEGIC>MOL_PROPERTY
Coulomb
SciTegic.value.DoubleValue
1.255

@<SCITEGIC>MOL_PROPERTY
VdW
SciTegic.value.DoubleValue
0.312

@<SCITEGIC>MOL_PROPERTY
VdW6
SciTegic.value.DoubleValue
-3.061

@<SCITEGIC>MOL_PROPERTY
VdW12
SciTegic.value.DoubleValue
3.372

@<SCITEGIC>MOL_PROPERTY
Bond
SciTegic.value.DoubleValue
0.059

@<SCITEGIC>MOL_PROPERTY
Angle
SciTegic.value.DoubleValue
2.241

@<SCITEGIC>MOL_PROPERTY
Pdih
SciTegic.value.DoubleValue
3.522

@<SCITEGIC>MOL_PROPERTY
Idih
SciTegic.value.DoubleValue
0.000

@<SCITEGIC>MOL_PROPERTY
Tether
SciTegic.value.DoubleValue
0.000

@<TRIPOS>MOLECULE
guest-6_confgen4.mol2 : confsearch ligand conformer 87
          13          12           1
SMALL
USER_CHARGES
 
@<TRIPOS>ATOM
       1    C1      21.711911   19.677407   21.561617 C.2        1 MOL1         0.6021
       2    O1      21.826471   20.874381   21.735475 O.co2      1 MOL1        -0.6904
       3    O2      22.595071   18.878418   21.801512 O.co2      1 MOL1        -0.6904
       4    C2      20.401156   19.156618   20.977299 C.3        1 MOL1        -0.2102
       5    H1      20.566987   18.143919   20.589706 H          1 MOL1         0.0687
       6    H2      20.153098   19.788513   20.116158 H          1 MOL1         0.0687
       7    C3      19.215859   19.158386   21.976502 C.3        1 MOL1        -0.1974
       8    H3      19.084786   20.168316   22.389762 H          1 MOL1         0.0689
       9    H4      18.290121   18.915491   21.437164 H          1 MOL1         0.0689
      10    C4      19.410231   18.146719   23.124839 C.3        1 MOL1        -0.2987
      11    H5      20.305196   18.386042   23.714407 H          1 MOL1         0.0700
      12    H6      18.546153   18.159243   23.801823 H          1 MOL1         0.0700
      13    H7      19.521143   17.126555   22.734512 H          1 MOL1         0.0700
@<TRIPOS>BOND
    1     1     2    1
    2     1     3    2
    3     1     4    1
    4     4     5    1
    5     4     6    1
    6     4     7    1
    7     7     8    1
    8     7     9    1
    9     7    10    1
   10    10    11    1
   11    10    12    1
   12    10    13    1
@<TRIPOS>SUBSTRUCTURE
       1 MOL1            1 RESIDUE      1      MOL     
@<SCITEGIC>MOL_PROPERTY
VConf Rank
SciTegic.value.IntegerValue
87

@<SCITEGIC>MOL_PROPERTY
Conf_Id
SciTegic.value.IntegerValue
4

@<SCITEGIC>MOL_PROPERTY
Delta U+W
SciTegic.value.DoubleValue
0.281

@<SCITEGIC>MOL_PROPERTY
U+W
SciTegic.value.DoubleValue
-58.051

@<SCITEGIC>MOL_PROPERTY
Grad RMS
SciTegic.value.DoubleValue
0.000000

@<SCITEGIC>MOL_PROPERTY
U
SciTegic.value.DoubleValue
9.781

@<SCITEGIC>MOL_PROPERTY
W
SciTegic.value.DoubleValue
-67.832

@<SCITEGIC>MOL_PROPERTY
W(PB)
SciTegic.value.DoubleValue
-69.535

@<SCITEGIC>MOL_PROPERTY
W(SA)
SciTegic.value.DoubleValue
1.703

@<SCITEGIC>MOL_PROPERTY
Valence
SciTegic.value.DoubleValue
6.123

@<SCITEGIC>MOL_PROPERTY
Coulomb
SciTegic.value.DoubleValue
3.449

@<SCITEGIC>MOL_PROPERTY
VdW
SciTegic.value.DoubleValue
0.209

@<SCITEGIC>MOL_PROPERTY
VdW6
SciTegic.value.DoubleValue
-3.762

@<SCITEGIC>MOL_PROPERTY
VdW12
SciTegic.value.DoubleValue
3.972

@<SCITEGIC>MOL_PROPERTY
Bond
SciTegic.value.DoubleValue
0.078

@<SCITEGIC>MOL_PROPERTY
Angle
SciTegic.value.DoubleValue
2.428

@<SCITEGIC>MOL_PROPERTY
Pdih
SciTegic.value.DoubleValue
3.616

@<SCITEGIC>MOL_PROPERTY
Idih
SciTegic.value.DoubleValue
0.002

@<SCITEGIC>MOL_PROPERTY
Tether
SciTegic.value.DoubleValue
0.000

@<TRIPOS>MOLECULE
guest-6_confgen4.mol2 : confsearch ligand conformer 88
          13          12           1
SMALL
USER_CHARGES
 
@<TRIPOS>ATOM
       1    C1      21.666987   19.311750   21.165957 C.2        1 MOL1         0.6021
       2    O1      22.077673   20.403528   21.505462 O.co2      1 MOL1        -0.6904
       3    O2      22.390366   18.355539   20.969788 O.co2      1 MOL1        -0.6904
       4    C2      20.167263   19.139073   20.938506 C.3        1 MOL1        -0.2102
       5    H1      20.038801   18.635398   19.973003 H          1 MOL1         0.0687
       6    H2      19.709991   20.131420   20.841361 H          1 MOL1         0.0687
       7    C3      19.447229   18.325376   22.044303 C.3        1 MOL1        -0.1974
       8    H3      18.415069   18.122511   21.727502 H          1 MOL1         0.0689
       9    H4      19.938963   17.349528   22.161947 H          1 MOL1         0.0689
      10    C4      19.422752   19.063149   23.398931 C.3        1 MOL1        -0.2987
      11    H5      18.915321   20.032563   23.308702 H          1 MOL1         0.0700
      12    H6      18.889672   18.469684   24.153068 H          1 MOL1         0.0700
      13    H7      20.440922   19.243657   23.768489 H          1 MOL1         0.0700
@<TRIPOS>BOND
    1     1     2    1
    2     1     3    2
    3     1     4    1
    4     4     5    1
    5     4     6    1
    6     4     7    1
    7     7     8    1
    8     7     9    1
    9     7    10    1
   10    10    11    1
   11    10    12    1
   12    10    13    1
@<TRIPOS>SUBSTRUCTURE
       1 MOL1            1 RESIDUE      1      MOL     
@<SCITEGIC>MOL_PROPERTY
VConf Rank
SciTegic.value.IntegerValue
88

@<SCITEGIC>MOL_PROPERTY
Conf_Id
SciTegic.value.IntegerValue
36

@<SCITEGIC>MOL_PROPERTY
Delta U+W
SciTegic.value.DoubleValue
0.272

@<SCITEGIC>MOL_PROPERTY
U+W
SciTegic.value.DoubleValue
-58.060

@<SCITEGIC>MOL_PROPERTY
Grad RMS
SciTegic.value.DoubleValue
0.000000

@<SCITEGIC>MOL_PROPERTY
U
SciTegic.value.DoubleValue
9.781

@<SCITEGIC>MOL_PROPERTY
W
SciTegic.value.DoubleValue
-67.841

@<SCITEGIC>MOL_PROPERTY
W(PB)
SciTegic.value.DoubleValue
-69.537

@<SCITEGIC>MOL_PROPERTY
W(SA)
SciTegic.value.DoubleValue
1.696

@<SCITEGIC>MOL_PROPERTY
Valence
SciTegic.value.DoubleValue
6.123

@<SCITEGIC>MOL_PROPERTY
Coulomb
SciTegic.value.DoubleValue
3.449

@<SCITEGIC>MOL_PROPERTY
VdW
SciTegic.value.DoubleValue
0.209

@<SCITEGIC>MOL_PROPERTY
VdW6
SciTegic.value.DoubleValue
-3.762

@<SCITEGIC>MOL_PROPERTY
VdW12
SciTegic.value.DoubleValue
3.972

@<SCITEGIC>MOL_PROPERTY
Bond
SciTegic.value.DoubleValue
0.078

@<SCITEGIC>MOL_PROPERTY
Angle
SciTegic.value.DoubleValue
2.428

@<SCITEGIC>MOL_PROPERTY
Pdih
SciTegic.value.DoubleValue
3.616

@<SCITEGIC>MOL_PROPERTY
Idih
SciTegic.value.DoubleValue
0.002

@<SCITEGIC>MOL_PROPERTY
Tether
SciTegic.value.DoubleValue
0.000

@<TRIPOS>MOLECULE
guest-6_confgen4.mol2 : confsearch ligand conformer 89
          13          12           1
SMALL
USER_CHARGES
 
@<TRIPOS>ATOM
       1    C1      21.053351   20.866709   21.762304 C.2        1 MOL1         0.6021
       2    O1      21.684655   20.795681   22.798518 O.co2      1 MOL1        -0.6904
       3    O2      21.114972   21.821556   21.014462 O.co2      1 MOL1        -0.6904
       4    C2      20.130013   19.717254   21.353794 C.3        1 MOL1        -0.2102
       5    H1      20.455957   19.370289   20.366011 H          1 MOL1         0.0687
       6    H2      19.123114   20.133610   21.230757 H          1 MOL1         0.0687
       7    C3      20.083548   18.520056   22.338942 C.3        1 MOL1        -0.1974
       8    H3      21.093997   18.106128   22.463082 H          1 MOL1         0.0689
       9    H4      19.759585   18.870401   23.328922 H          1 MOL1         0.0689
      10    C4      19.129681   17.413389   21.845729 C.3        1 MOL1        -0.2987
      11    H5      19.450291   17.024236   20.870386 H          1 MOL1         0.0700
      12    H6      19.110056   16.575660   22.555012 H          1 MOL1         0.0700
      13    H7      18.105172   17.794675   21.743131 H          1 MOL1         0.0700
@<TRIPOS>BOND
    1     1     2    1
    2     1     3    2
    3     1     4    1
    4     4     5    1
    5     4     6    1
    6     4     7    1
    7     7     8    1
    8     7     9    1
    9     7    10    1
   10    10    11    1
   11    10    12    1
   12    10    13    1
@<TRIPOS>SUBSTRUCTURE
       1 MOL1            1 RESIDUE      1      MOL     
@<SCITEGIC>MOL_PROPERTY
VConf Rank
SciTegic.value.IntegerValue
89

@<SCITEGIC>MOL_PROPERTY
Conf_Id
SciTegic.value.IntegerValue
0

@<SCITEGIC>MOL_PROPERTY
Delta U+W
SciTegic.value.DoubleValue
0.000

@<SCITEGIC>MOL_PROPERTY
U+W
SciTegic.value.DoubleValue
-58.332

@<SCITEGIC>MOL_PROPERTY
Grad RMS
SciTegic.value.DoubleValue
0.000000

@<SCITEGIC>MOL_PROPERTY
U
SciTegic.value.DoubleValue
8.390

@<SCITEGIC>MOL_PROPERTY
W
SciTegic.value.DoubleValue
-66.722

@<SCITEGIC>MOL_PROPERTY
W(PB)
SciTegic.value.DoubleValue
-68.455

@<SCITEGIC>MOL_PROPERTY
W(SA)
SciTegic.value.DoubleValue
1.733

@<SCITEGIC>MOL_PROPERTY
Valence
SciTegic.value.DoubleValue
6.333

@<SCITEGIC>MOL_PROPERTY
Coulomb
SciTegic.value.DoubleValue
1.215

@<SCITEGIC>MOL_PROPERTY
VdW
SciTegic.value.DoubleValue
0.842

@<SCITEGIC>MOL_PROPERTY
VdW6
SciTegic.value.DoubleValue
-3.344

@<SCITEGIC>MOL_PROPERTY
VdW12
SciTegic.value.DoubleValue
4.186

@<SCITEGIC>MOL_PROPERTY
Bond
SciTegic.value.DoubleValue
0.091

@<SCITEGIC>MOL_PROPERTY
Angle
SciTegic.value.DoubleValue
2.713

@<SCITEGIC>MOL_PROPERTY
Pdih
SciTegic.value.DoubleValue
3.529

@<SCITEGIC>MOL_PROPERTY
Idih
SciTegic.value.DoubleValue
0.000

@<SCITEGIC>MOL_PROPERTY
Tether
SciTegic.value.DoubleValue
0.000

@<TRIPOS>MOLECULE
guest-6_confgen4.mol2 : confsearch ligand conformer 90
          13          12           1
SMALL
USER_CHARGES
 
@<TRIPOS>ATOM
       1    C1      20.067565   17.932120   20.035413 C.2        1 MOL1         0.6021
       2    O1      19.457197   18.397961   19.094242 O.co2      1 MOL1        -0.6904
       3    O2      20.329361   16.751300   20.147162 O.co2      1 MOL1        -0.6904
       4    C2      20.512759   18.877890   21.145738 C.3        1 MOL1        -0.2102
       5    H1      20.732748   19.853500   20.695394 H          1 MOL1         0.0687
       6    H2      21.452001   18.495572   21.563680 H          1 MOL1         0.0687
       7    C3      19.456053   19.034417   22.265880 C.3        1 MOL1        -0.1974
       8    H3      18.517057   19.408304   21.834235 H          1 MOL1         0.0689
       9    H4      19.236546   18.050154   22.702761 H          1 MOL1         0.0689
      10    C4      19.935762   19.995763   23.371766 C.3        1 MOL1        -0.2987
      11    H5      19.173943   20.093780   24.156169 H          1 MOL1         0.0700
      12    H6      20.858367   19.627405   23.839385 H          1 MOL1         0.0700
      13    H7      20.133317   20.995971   22.964198 H          1 MOL1         0.0700
@<TRIPOS>BOND
    1     1     2    1
    2     1     3    2
    3     1     4    1
    4     4     5    1
    5     4     6    1
    6     4     7    1
    7     7     8    1
    8     7     9    1
    9     7    10    1
   10    10    11    1
   11    10    12    1
   12    10    13    1
@<TRIPOS>SUBSTRUCTURE
       1 MOL1            1 RESIDUE      1      MOL     
@<SCITEGIC>MOL_PROPERTY
VConf Rank
SciTegic.value.IntegerValue
90

@<SCITEGIC>MOL_PROPERTY
Conf_Id
SciTegic.value.IntegerValue
1

@<SCITEGIC>MOL_PROPERTY
Delta U+W
SciTegic.value.DoubleValue
-1.339

@<SCITEGIC>MOL_PROPERTY
U+W
SciTegic.value.DoubleValue
-59.672

@<SCITEGIC>MOL_PROPERTY
Grad RMS
SciTegic.value.DoubleValue
0.000000

@<SCITEGIC>MOL_PROPERTY
U
SciTegic.value.DoubleValue
7.389

@<SCITEGIC>MOL_PROPERTY
W
SciTegic.value.DoubleValue
-67.061

@<SCITEGIC>MOL_PROPERTY
W(PB)
SciTegic.value.DoubleValue
-68.767

@<SCITEGIC>MOL_PROPERTY
W(SA)
SciTegic.value.DoubleValue
1.707

@<SCITEGIC>MOL_PROPERTY
Valence
SciTegic.value.DoubleValue
5.822

@<SCITEGIC>MOL_PROPERTY
Coulomb
SciTegic.value.DoubleValue
1.255

@<SCITEGIC>MOL_PROPERTY
VdW
SciTegic.value.DoubleValue
0.312

@<SCITEGIC>MOL_PROPERTY
VdW6
SciTegic.value.DoubleValue
-3.061

@<SCITEGIC>MOL_PROPERTY
VdW12
SciTegic.value.DoubleValue
3.372

@<SCITEGIC>MOL_PROPERTY
Bond
SciTegic.value.DoubleValue
0.059

@<SCITEGIC>MOL_PROPERTY
Angle
SciTegic.value.DoubleValue
2.241

@<SCITEGIC>MOL_PROPERTY
Pdih
SciTegic.value.DoubleValue
3.522

@<SCITEGIC>MOL_PROPERTY
Idih
SciTegic.value.DoubleValue
0.000

@<SCITEGIC>MOL_PROPERTY
Tether
SciTegic.value.DoubleValue
0.000

@<TRIPOS>MOLECULE
guest-6_confgen4.mol2 : confsearch ligand conformer 91
          13          12           1
SMALL
USER_CHARGES
 
@<TRIPOS>ATOM
       1    C1      20.701473   20.082215   23.276260 C.2        1 MOL1         0.6021
       2    O1      20.114562   21.142376   23.363970 O.co2      1 MOL1        -0.6904
       3    O2      21.072130   19.440447   24.238887 O.co2      1 MOL1        -0.6904
       4    C2      21.020182   19.548561   21.881855 C.3        1 MOL1        -0.2102
       5    H1      21.804701   18.786720   21.967969 H          1 MOL1         0.0687
       6    H2      21.445910   20.377478   21.303894 H          1 MOL1         0.0687
       7    C3      19.794962   18.970395   21.128264 C.3        1 MOL1        -0.1974
       8    H3      18.999663   19.727658   21.083832 H          1 MOL1         0.0689
       9    H4      20.081067   18.751935   20.090337 H          1 MOL1         0.0689
      10    C4      19.252675   17.683109   21.783051 C.3        1 MOL1        -0.2987
      11    H5      18.915071   17.874828   22.810229 H          1 MOL1         0.0700
      12    H6      18.399782   17.289747   21.214776 H          1 MOL1         0.0700
      13    H7      20.026006   16.904540   21.817451 H          1 MOL1         0.0700
@<TRIPOS>BOND
    1     1     2    1
    2     1     3    2
    3     1     4    1
    4     4     5    1
    5     4     6    1
    6     4     7    1
    7     7     8    1
    8     7     9    1
    9     7    10    1
   10    10    11    1
   11    10    12    1
   12    10    13    1
@<TRIPOS>SUBSTRUCTURE
       1 MOL1            1 RESIDUE      1      MOL     
@<SCITEGIC>MOL_PROPERTY
VConf Rank
SciTegic.value.IntegerValue
91

@<SCITEGIC>MOL_PROPERTY
Conf_Id
SciTegic.value.IntegerValue
4

@<SCITEGIC>MOL_PROPERTY
Delta U+W
SciTegic.value.DoubleValue
0.281

@<SCITEGIC>MOL_PROPERTY
U+W
SciTegic.value.DoubleValue
-58.051

@<SCITEGIC>MOL_PROPERTY
Grad RMS
SciTegic.value.DoubleValue
0.000000

@<SCITEGIC>MOL_PROPERTY
U
SciTegic.value.DoubleValue
9.781

@<SCITEGIC>MOL_PROPERTY
W
SciTegic.value.DoubleValue
-67.832

@<SCITEGIC>MOL_PROPERTY
W(PB)
SciTegic.value.DoubleValue
-69.535

@<SCITEGIC>MOL_PROPERTY
W(SA)
SciTegic.value.DoubleValue
1.703

@<SCITEGIC>MOL_PROPERTY
Valence
SciTegic.value.DoubleValue
6.123

@<SCITEGIC>MOL_PROPERTY
Coulomb
SciTegic.value.DoubleValue
3.449

@<SCITEGIC>MOL_PROPERTY
VdW
SciTegic.value.DoubleValue
0.209

@<SCITEGIC>MOL_PROPERTY
VdW6
SciTegic.value.DoubleValue
-3.762

@<SCITEGIC>MOL_PROPERTY
VdW12
SciTegic.value.DoubleValue
3.972

@<SCITEGIC>MOL_PROPERTY
Bond
SciTegic.value.DoubleValue
0.078

@<SCITEGIC>MOL_PROPERTY
Angle
SciTegic.value.DoubleValue
2.428

@<SCITEGIC>MOL_PROPERTY
Pdih
SciTegic.value.DoubleValue
3.616

@<SCITEGIC>MOL_PROPERTY
Idih
SciTegic.value.DoubleValue
0.002

@<SCITEGIC>MOL_PROPERTY
Tether
SciTegic.value.DoubleValue
0.000

@<TRIPOS>MOLECULE
guest-6_confgen4.mol2 : confsearch ligand conformer 92
          13          12           1
SMALL
USER_CHARGES
 
@<TRIPOS>ATOM
       1    C1      18.576574   19.578840   21.315026 C.2        1 MOL1         0.6021
       2    O1      17.768236   19.732645   22.208804 O.co2      1 MOL1        -0.6904
       3    O2      18.674519   20.328988   20.364351 O.co2      1 MOL1        -0.6904
       4    C2      19.494507   18.360125   21.368488 C.3        1 MOL1        -0.2102
       5    H1      19.463424   17.883768   20.381319 H          1 MOL1         0.0687
       6    H2      19.078679   17.637982   22.081849 H          1 MOL1         0.0687
       7    C3      20.964266   18.688317   21.736504 C.3        1 MOL1        -0.1974
       8    H3      21.578219   17.786929   21.604465 H          1 MOL1         0.0689
       9    H4      21.357740   19.442983   21.041106 H          1 MOL1         0.0689
      10    C4      21.111525   19.190128   23.187857 C.3        1 MOL1        -0.2987
      11    H5      20.744203   18.440841   23.901324 H          1 MOL1         0.0700
      12    H6      22.164521   19.394162   23.421662 H          1 MOL1         0.0700
      13    H7      20.544599   20.117467   23.344263 H          1 MOL1         0.0700
@<TRIPOS>BOND
    1     1     2    1
    2     1     3    2
    3     1     4    1
    4     4     5    1
    5     4     6    1
    6     4     7    1
    7     7     8    1
    8     7     9    1
    9     7    10    1
   10    10    11    1
   11    10    12    1
   12    10    13    1
@<TRIPOS>SUBSTRUCTURE
       1 MOL1            1 RESIDUE      1      MOL     
@<SCITEGIC>MOL_PROPERTY
VConf Rank
SciTegic.value.IntegerValue
92

@<SCITEGIC>MOL_PROPERTY
Conf_Id
SciTegic.value.IntegerValue
36

@<SCITEGIC>MOL_PROPERTY
Delta U+W
SciTegic.value.DoubleValue
0.272

@<SCITEGIC>MOL_PROPERTY
U+W
SciTegic.value.DoubleValue
-58.060

@<SCITEGIC>MOL_PROPERTY
Grad RMS
SciTegic.value.DoubleValue
0.000000

@<SCITEGIC>MOL_PROPERTY
U
SciTegic.value.DoubleValue
9.781

@<SCITEGIC>MOL_PROPERTY
W
SciTegic.value.DoubleValue
-67.841

@<SCITEGIC>MOL_PROPERTY
W(PB)
SciTegic.value.DoubleValue
-69.537

@<SCITEGIC>MOL_PROPERTY
W(SA)
SciTegic.value.DoubleValue
1.696

@<SCITEGIC>MOL_PROPERTY
Valence
SciTegic.value.DoubleValue
6.123

@<SCITEGIC>MOL_PROPERTY
Coulomb
SciTegic.value.DoubleValue
3.449

@<SCITEGIC>MOL_PROPERTY
VdW
SciTegic.value.DoubleValue
0.209

@<SCITEGIC>MOL_PROPERTY
VdW6
SciTegic.value.DoubleValue
-3.762

@<SCITEGIC>MOL_PROPERTY
VdW12
SciTegic.value.DoubleValue
3.972

@<SCITEGIC>MOL_PROPERTY
Bond
SciTegic.value.DoubleValue
0.078

@<SCITEGIC>MOL_PROPERTY
Angle
SciTegic.value.DoubleValue
2.428

@<SCITEGIC>MOL_PROPERTY
Pdih
SciTegic.value.DoubleValue
3.616

@<SCITEGIC>MOL_PROPERTY
Idih
SciTegic.value.DoubleValue
0.002

@<SCITEGIC>MOL_PROPERTY
Tether
SciTegic.value.DoubleValue
0.000

@<TRIPOS>MOLECULE
guest-6_confgen4.mol2 : confsearch ligand conformer 93
          13          12           1
SMALL
USER_CHARGES
 
@<TRIPOS>ATOM
       1    C1      21.914462   19.983401   21.765841 C.2        1 MOL1         0.6021
       2    O1      22.655063   19.031643   21.917488 O.co2      1 MOL1        -0.6904
       3    O2      22.318176   21.121137   21.634045 O.co2      1 MOL1        -0.6904
       4    C2      20.399620   19.771238   21.735500 C.3        1 MOL1        -0.2102
       5    H1      20.032366   20.166725   20.781009 H          1 MOL1         0.0687
       6    H2      19.965720   20.392753   22.527830 H          1 MOL1         0.0687
       7    C3      19.930762   18.302734   21.907621 C.3        1 MOL1        -0.1974
       8    H3      20.369004   17.681076   21.114374 H          1 MOL1         0.0689
       9    H4      20.302341   17.907351   22.863318 H          1 MOL1         0.0689
      10    C4      18.393718   18.186847   21.864035 C.3        1 MOL1        -0.2987
      11    H5      17.999534   18.547470   20.904821 H          1 MOL1         0.0700
      12    H6      18.081280   17.141656   21.987386 H          1 MOL1         0.0700
      13    H7      17.932344   18.775613   22.667783 H          1 MOL1         0.0700
@<TRIPOS>BOND
    1     1     2    1
    2     1     3    2
    3     1     4    1
    4     4     5    1
    5     4     6    1
    6     4     7    1
    7     7     8    1
    8     7     9    1
    9     7    10    1
   10    10    11    1
   11    10    12    1
   12    10    13    1
@<TRIPOS>SUBSTRUCTURE
       1 MOL1            1 RESIDUE      1      MOL     
@<SCITEGIC>MOL_PROPERTY
VConf Rank
SciTegic.value.IntegerValue
93

@<SCITEGIC>MOL_PROPERTY
Conf_Id
SciTegic.value.IntegerValue
0

@<SCITEGIC>MOL_PROPERTY
Delta U+W
SciTegic.value.DoubleValue
0.000

@<SCITEGIC>MOL_PROPERTY
U+W
SciTegic.value.DoubleValue
-58.332

@<SCITEGIC>MOL_PROPERTY
Grad RMS
SciTegic.value.DoubleValue
0.000000

@<SCITEGIC>MOL_PROPERTY
U
SciTegic.value.DoubleValue
8.390

@<SCITEGIC>MOL_PROPERTY
W
SciTegic.value.DoubleValue
-66.722

@<SCITEGIC>MOL_PROPERTY
W(PB)
SciTegic.value.DoubleValue
-68.455

@<SCITEGIC>MOL_PROPERTY
W(SA)
SciTegic.value.DoubleValue
1.733

@<SCITEGIC>MOL_PROPERTY
Valence
SciTegic.value.DoubleValue
6.333

@<SCITEGIC>MOL_PROPERTY
Coulomb
SciTegic.value.DoubleValue
1.215

@<SCITEGIC>MOL_PROPERTY
VdW
SciTegic.value.DoubleValue
0.842

@<SCITEGIC>MOL_PROPERTY
VdW6
SciTegic.value.DoubleValue
-3.344

@<SCITEGIC>MOL_PROPERTY
VdW12
SciTegic.value.DoubleValue
4.186

@<SCITEGIC>MOL_PROPERTY
Bond
SciTegic.value.DoubleValue
0.091

@<SCITEGIC>MOL_PROPERTY
Angle
SciTegic.value.DoubleValue
2.713

@<SCITEGIC>MOL_PROPERTY
Pdih
SciTegic.value.DoubleValue
3.529

@<SCITEGIC>MOL_PROPERTY
Idih
SciTegic.value.DoubleValue
0.000

@<SCITEGIC>MOL_PROPERTY
Tether
SciTegic.value.DoubleValue
0.000

@<TRIPOS>MOLECULE
guest-6_confgen4.mol2 : confsearch ligand conformer 94
          13          12           1
SMALL
USER_CHARGES
 
@<TRIPOS>ATOM
       1    C1      19.200146   18.546484   23.727824 C.2        1 MOL1         0.6021
       2    O1      19.625216   17.527660   24.234455 O.co2      1 MOL1        -0.6904
       3    O2      18.119098   19.029843   23.998117 O.co2      1 MOL1        -0.6904
       4    C2      20.062037   19.246142   22.682300 C.3        1 MOL1        -0.2102
       5    H1      21.114815   19.085602   22.944794 H          1 MOL1         0.0687
       6    H2      19.872792   20.324397   22.749913 H          1 MOL1         0.0687
       7    C3      19.789935   18.746866   21.242670 C.3        1 MOL1        -0.1974
       8    H3      19.973087   17.664537   21.189382 H          1 MOL1         0.0689
       9    H4      18.730876   18.903681   20.994426 H          1 MOL1         0.0689
      10    C4      20.676023   19.472753   20.210572 C.3        1 MOL1        -0.2987
      11    H5      20.468896   19.105652   19.196868 H          1 MOL1         0.0700
      12    H6      20.489014   20.554603   20.224135 H          1 MOL1         0.0700
      13    H7      21.740740   19.305916   20.420569 H          1 MOL1         0.0700
@<TRIPOS>BOND
    1     1     2    1
    2     1     3    2
    3     1     4    1
    4     4     5    1
    5     4     6    1
    6     4     7    1
    7     7     8    1
    8     7     9    1
    9     7    10    1
   10    10    11    1
   11    10    12    1
   12    10    13    1
@<TRIPOS>SUBSTRUCTURE
       1 MOL1            1 RESIDUE      1      MOL     
@<SCITEGIC>MOL_PROPERTY
VConf Rank
SciTegic.value.IntegerValue
94

@<SCITEGIC>MOL_PROPERTY
Conf_Id
SciTegic.value.IntegerValue
1

@<SCITEGIC>MOL_PROPERTY
Delta U+W
SciTegic.value.DoubleValue
-1.339

@<SCITEGIC>MOL_PROPERTY
U+W
SciTegic.value.DoubleValue
-59.672

@<SCITEGIC>MOL_PROPERTY
Grad RMS
SciTegic.value.DoubleValue
0.000000

@<SCITEGIC>MOL_PROPERTY
U
SciTegic.value.DoubleValue
7.389

@<SCITEGIC>MOL_PROPERTY
W
SciTegic.value.DoubleValue
-67.061

@<SCITEGIC>MOL_PROPERTY
W(PB)
SciTegic.value.DoubleValue
-68.767

@<SCITEGIC>MOL_PROPERTY
W(SA)
SciTegic.value.DoubleValue
1.707

@<SCITEGIC>MOL_PROPERTY
Valence
SciTegic.value.DoubleValue
5.822

@<SCITEGIC>MOL_PROPERTY
Coulomb
SciTegic.value.DoubleValue
1.255

@<SCITEGIC>MOL_PROPERTY
VdW
SciTegic.value.DoubleValue
0.312

@<SCITEGIC>MOL_PROPERTY
VdW6
SciTegic.value.DoubleValue
-3.061

@<SCITEGIC>MOL_PROPERTY
VdW12
SciTegic.value.DoubleValue
3.372

@<SCITEGIC>MOL_PROPERTY
Bond
SciTegic.value.DoubleValue
0.059

@<SCITEGIC>MOL_PROPERTY
Angle
SciTegic.value.DoubleValue
2.241

@<SCITEGIC>MOL_PROPERTY
Pdih
SciTegic.value.DoubleValue
3.522

@<SCITEGIC>MOL_PROPERTY
Idih
SciTegic.value.DoubleValue
0.000

@<SCITEGIC>MOL_PROPERTY
Tether
SciTegic.value.DoubleValue
0.000

@<TRIPOS>MOLECULE
guest-6_confgen4.mol2 : confsearch ligand conformer 95
          13          12           1
SMALL
USER_CHARGES
 
@<TRIPOS>ATOM
       1    C1      20.830384   17.331264   21.808233 C.2        1 MOL1         0.6021
       2    O1      21.993498   17.210482   22.137893 O.co2      1 MOL1        -0.6904
       3    O2      19.980228   16.493043   22.033006 O.co2      1 MOL1        -0.6904
       4    C2      20.426177   18.587023   21.039849 C.3        1 MOL1        -0.2102
       5    H1      19.462494   18.403692   20.548939 H          1 MOL1         0.0687
       6    H2      21.164561   18.734499   20.242713 H          1 MOL1         0.0687
       7    C3      20.346335   19.866371   21.911762 C.3        1 MOL1        -0.1974
       8    H3      21.303065   20.017760   22.431062 H          1 MOL1         0.0689
       9    H4      20.200011   20.738017   21.259308 H          1 MOL1         0.0689
      10    C4      19.198388   19.808837   22.940759 C.3        1 MOL1        -0.2987
      11    H5      19.336133   18.972919   23.639396 H          1 MOL1         0.0700
      12    H6      19.157505   20.736087   23.526961 H          1 MOL1         0.0700
      13    H7      18.229402   19.680014   22.440895 H          1 MOL1         0.0700
@<TRIPOS>BOND
    1     1     2    1
    2     1     3    2
    3     1     4    1
    4     4     5    1
    5     4     6    1
    6     4     7    1
    7     7     8    1
    8     7     9    1
    9     7    10    1
   10    10    11    1
   11    10    12    1
   12    10    13    1
@<TRIPOS>SUBSTRUCTURE
       1 MOL1            1 RESIDUE      1      MOL     
@<SCITEGIC>MOL_PROPERTY
VConf Rank
SciTegic.value.IntegerValue
95

@<SCITEGIC>MOL_PROPERTY
Conf_Id
SciTegic.value.IntegerValue
4

@<SCITEGIC>MOL_PROPERTY
Delta U+W
SciTegic.value.DoubleValue
0.281

@<SCITEGIC>MOL_PROPERTY
U+W
SciTegic.value.DoubleValue
-58.051

@<SCITEGIC>MOL_PROPERTY
Grad RMS
SciTegic.value.DoubleValue
0.000000

@<SCITEGIC>MOL_PROPERTY
U
SciTegic.value.DoubleValue
9.781

@<SCITEGIC>MOL_PROPERTY
W
SciTegic.value.DoubleValue
-67.832

@<SCITEGIC>MOL_PROPERTY
W(PB)
SciTegic.value.DoubleValue
-69.535

@<SCITEGIC>MOL_PROPERTY
W(SA)
SciTegic.value.DoubleValue
1.703

@<SCITEGIC>MOL_PROPERTY
Valence
SciTegic.value.DoubleValue
6.123

@<SCITEGIC>MOL_PROPERTY
Coulomb
SciTegic.value.DoubleValue
3.449

@<SCITEGIC>MOL_PROPERTY
VdW
SciTegic.value.DoubleValue
0.209

@<SCITEGIC>MOL_PROPERTY
VdW6
SciTegic.value.DoubleValue
-3.762

@<SCITEGIC>MOL_PROPERTY
VdW12
SciTegic.value.DoubleValue
3.972

@<SCITEGIC>MOL_PROPERTY
Bond
SciTegic.value.DoubleValue
0.078

@<SCITEGIC>MOL_PROPERTY
Angle
SciTegic.value.DoubleValue
2.428

@<SCITEGIC>MOL_PROPERTY
Pdih
SciTegic.value.DoubleValue
3.616

@<SCITEGIC>MOL_PROPERTY
Idih
SciTegic.value.DoubleValue
0.002

@<SCITEGIC>MOL_PROPERTY
Tether
SciTegic.value.DoubleValue
0.000

@<TRIPOS>MOLECULE
guest-6_confgen4.mol2 : confsearch ligand conformer 96
          13          12           1
SMALL
USER_CHARGES
 
@<TRIPOS>ATOM
       1    C1      20.289731   20.271565   20.779521 C.2        1 MOL1         0.6021
       2    O1      19.537331   21.185628   21.052081 O.co2      1 MOL1        -0.6904
       3    O2      21.405712   20.434883   20.327847 O.co2      1 MOL1        -0.6904
       4    C2      19.796277   18.840893   20.980538 C.3        1 MOL1        -0.2102
       5    H1      20.024691   18.284348   20.063767 H          1 MOL1         0.0687
       6    H2      18.703759   18.856361   21.077760 H          1 MOL1         0.0687
       7    C3      20.430158   18.115749   22.195321 C.3        1 MOL1        -0.1974
       8    H3      20.137481   17.057064   22.175372 H          1 MOL1         0.0689
       9    H4      21.525486   18.142197   22.108837 H          1 MOL1         0.0689
      10    C4      19.998805   18.732489   23.541981 C.3        1 MOL1        -0.2987
      11    H5      18.907744   18.695957   23.658788 H          1 MOL1         0.0700
      12    H6      20.448623   18.184566   24.380157 H          1 MOL1         0.0700
      13    H7      20.315214   19.781475   23.615048 H          1 MOL1         0.0700
@<TRIPOS>BOND
    1     1     2    1
    2     1     3    2
    3     1     4    1
    4     4     5    1
    5     4     6    1
    6     4     7    1
    7     7     8    1
    8     7     9    1
    9     7    10    1
   10    10    11    1
   11    10    12    1
   12    10    13    1
@<TRIPOS>SUBSTRUCTURE
       1 MOL1            1 RESIDUE      1      MOL     
@<SCITEGIC>MOL_PROPERTY
VConf Rank
SciTegic.value.IntegerValue
96

@<SCITEGIC>MOL_PROPERTY
Conf_Id
SciTegic.value.IntegerValue
36

@<SCITEGIC>MOL_PROPERTY
Delta U+W
SciTegic.value.DoubleValue
0.272

@<SCITEGIC>MOL_PROPERTY
U+W
SciTegic.value.DoubleValue
-58.060

@<SCITEGIC>MOL_PROPERTY
Grad RMS
SciTegic.value.DoubleValue
0.000000

@<SCITEGIC>MOL_PROPERTY
U
SciTegic.value.DoubleValue
9.781

@<SCITEGIC>MOL_PROPERTY
W
SciTegic.value.DoubleValue
-67.841

@<SCITEGIC>MOL_PROPERTY
W(PB)
SciTegic.value.DoubleValue
-69.537

@<SCITEGIC>MOL_PROPERTY
W(SA)
SciTegic.value.DoubleValue
1.696

@<SCITEGIC>MOL_PROPERTY
Valence
SciTegic.value.DoubleValue
6.123

@<SCITEGIC>MOL_PROPERTY
Coulomb
SciTegic.value.DoubleValue
3.449

@<SCITEGIC>MOL_PROPERTY
VdW
SciTegic.value.DoubleValue
0.209

@<SCITEGIC>MOL_PROPERTY
VdW6
SciTegic.value.DoubleValue
-3.762

@<SCITEGIC>MOL_PROPERTY
VdW12
SciTegic.value.DoubleValue
3.972

@<SCITEGIC>MOL_PROPERTY
Bond
SciTegic.value.DoubleValue
0.078

@<SCITEGIC>MOL_PROPERTY
Angle
SciTegic.value.DoubleValue
2.428

@<SCITEGIC>MOL_PROPERTY
Pdih
SciTegic.value.DoubleValue
3.616

@<SCITEGIC>MOL_PROPERTY
Idih
SciTegic.value.DoubleValue
0.002

@<SCITEGIC>MOL_PROPERTY
Tether
SciTegic.value.DoubleValue
0.000

@<TRIPOS>MOLECULE
guest-6_confgen4.mol2 : confsearch ligand conformer 97
          13          12           1
SMALL
USER_CHARGES
 
@<TRIPOS>ATOM
       1    C1      20.481144   16.986730   21.290612 C.2        1 MOL1         0.6021
       2    O1      21.443170   16.789997   22.006942 O.co2      1 MOL1        -0.6904
       3    O2      20.035729   16.146128   20.535767 O.co2      1 MOL1        -0.6904
       4    C2      19.777566   18.345008   21.317852 C.3        1 MOL1        -0.2102
       5    H1      18.726457   18.164562   21.572699 H          1 MOL1         0.0687
       6    H2      19.795531   18.743928   20.296638 H          1 MOL1         0.0687
       7    C3      20.381024   19.386410   22.296257 C.3        1 MOL1        -0.1974
       8    H3      20.364749   18.983543   23.318602 H          1 MOL1         0.0689
       9    H4      21.435169   19.563569   22.041019 H          1 MOL1         0.0689
      10    C4      19.608996   20.720620   22.255140 C.3        1 MOL1        -0.2987
      11    H5      18.557868   20.575207   22.537112 H          1 MOL1         0.0700
      12    H6      20.050144   21.444088   22.953165 H          1 MOL1         0.0700
      13    H7      19.636846   21.159855   21.249247 H          1 MOL1         0.0700
@<TRIPOS>BOND
    1     1     2    1
    2     1     3    2
    3     1     4    1
    4     4     5    1
    5     4     6    1
    6     4     7    1
    7     7     8    1
    8     7     9    1
    9     7    10    1
   10    10    11    1
   11    10    12    1
   12    10    13    1
@<TRIPOS>SUBSTRUCTURE
       1 MOL1            1 RESIDUE      1      MOL     
@<SCITEGIC>MOL_PROPERTY
VConf Rank
SciTegic.value.IntegerValue
97

@<SCITEGIC>MOL_PROPERTY
Conf_Id
SciTegic.value.IntegerValue
0

@<SCITEGIC>MOL_PROPERTY
Delta U+W
SciTegic.value.DoubleValue
0.000

@<SCITEGIC>MOL_PROPERTY
U+W
SciTegic.value.DoubleValue
-58.332

@<SCITEGIC>MOL_PROPERTY
Grad RMS
SciTegic.value.DoubleValue
0.000000

@<SCITEGIC>MOL_PROPERTY
U
SciTegic.value.DoubleValue
8.390

@<SCITEGIC>MOL_PROPERTY
W
SciTegic.value.DoubleValue
-66.722

@<SCITEGIC>MOL_PROPERTY
W(PB)
SciTegic.value.DoubleValue
-68.455

@<SCITEGIC>MOL_PROPERTY
W(SA)
SciTegic.value.DoubleValue
1.733

@<SCITEGIC>MOL_PROPERTY
Valence
SciTegic.value.DoubleValue
6.333

@<SCITEGIC>MOL_PROPERTY
Coulomb
SciTegic.value.DoubleValue
1.215

@<SCITEGIC>MOL_PROPERTY
VdW
SciTegic.value.DoubleValue
0.842

@<SCITEGIC>MOL_PROPERTY
VdW6
SciTegic.value.DoubleValue
-3.344

@<SCITEGIC>MOL_PROPERTY
VdW12
SciTegic.value.DoubleValue
4.186

@<SCITEGIC>MOL_PROPERTY
Bond
SciTegic.value.DoubleValue
0.091

@<SCITEGIC>MOL_PROPERTY
Angle
SciTegic.value.DoubleValue
2.713

@<SCITEGIC>MOL_PROPERTY
Pdih
SciTegic.value.DoubleValue
3.529

@<SCITEGIC>MOL_PROPERTY
Idih
SciTegic.value.DoubleValue
0.000

@<SCITEGIC>MOL_PROPERTY
Tether
SciTegic.value.DoubleValue
0.000

@<TRIPOS>MOLECULE
guest-6_confgen4.mol2 : confsearch ligand conformer 98
          13          12           1
SMALL
USER_CHARGES
 
@<TRIPOS>ATOM
       1    C1      19.192366   17.127555   21.420672 C.2        1 MOL1         0.6021
       2    O1      17.990287   17.011168   21.550372 O.co2      1 MOL1        -0.6904
       3    O2      19.969051   16.197063   21.500072 O.co2      1 MOL1        -0.6904
       4    C2      19.758629   18.519835   21.162985 C.3        1 MOL1        -0.2102
       5    H1      19.021941   19.085394   20.579502 H          1 MOL1         0.0687
       6    H2      20.653739   18.414033   20.538003 H          1 MOL1         0.0687
       7    C3      20.105169   19.281622   22.465075 C.3        1 MOL1        -0.1974
       8    H3      19.203829   19.372859   23.087235 H          1 MOL1         0.0689
       9    H4      20.836018   18.701440   23.045654 H          1 MOL1         0.0689
      10    C4      20.674520   20.683939   22.170737 C.3        1 MOL1        -0.2987
      11    H5      20.913946   21.208051   23.105213 H          1 MOL1         0.0700
      12    H6      21.593953   20.617304   21.574281 H          1 MOL1         0.0700
      13    H7      19.949228   21.293874   21.616221 H          1 MOL1         0.0700
@<TRIPOS>BOND
    1     1     2    1
    2     1     3    2
    3     1     4    1
    4     4     5    1
    5     4     6    1
    6     4     7    1
    7     7     8    1
    8     7     9    1
    9     7    10    1
   10    10    11    1
   11    10    12    1
   12    10    13    1
@<TRIPOS>SUBSTRUCTURE
       1 MOL1            1 RESIDUE      1      MOL     
@<SCITEGIC>MOL_PROPERTY
VConf Rank
SciTegic.value.IntegerValue
98

@<SCITEGIC>MOL_PROPERTY
Conf_Id
SciTegic.value.IntegerValue
1

@<SCITEGIC>MOL_PROPERTY
Delta U+W
SciTegic.value.DoubleValue
-1.339

@<SCITEGIC>MOL_PROPERTY
U+W
SciTegic.value.DoubleValue
-59.672

@<SCITEGIC>MOL_PROPERTY
Grad RMS
SciTegic.value.DoubleValue
0.000000

@<SCITEGIC>MOL_PROPERTY
U
SciTegic.value.DoubleValue
7.389

@<SCITEGIC>MOL_PROPERTY
W
SciTegic.value.DoubleValue
-67.061

@<SCITEGIC>MOL_PROPERTY
W(PB)
SciTegic.value.DoubleValue
-68.767

@<SCITEGIC>MOL_PROPERTY
W(SA)
SciTegic.value.DoubleValue
1.707

@<SCITEGIC>MOL_PROPERTY
Valence
SciTegic.value.DoubleValue
5.822

@<SCITEGIC>MOL_PROPERTY
Coulomb
SciTegic.value.DoubleValue
1.255

@<SCITEGIC>MOL_PROPERTY
VdW
SciTegic.value.DoubleValue
0.312

@<SCITEGIC>MOL_PROPERTY
VdW6
SciTegic.value.DoubleValue
-3.061

@<SCITEGIC>MOL_PROPERTY
VdW12
SciTegic.value.DoubleValue
3.372

@<SCITEGIC>MOL_PROPERTY
Bond
SciTegic.value.DoubleValue
0.059

@<SCITEGIC>MOL_PROPERTY
Angle
SciTegic.value.DoubleValue
2.241

@<SCITEGIC>MOL_PROPERTY
Pdih
SciTegic.value.DoubleValue
3.522

@<SCITEGIC>MOL_PROPERTY
Idih
SciTegic.value.DoubleValue
0.000

@<SCITEGIC>MOL_PROPERTY
Tether
SciTegic.value.DoubleValue
0.000

@<TRIPOS>MOLECULE
guest-6_confgen4.mol2 : confsearch ligand conformer 99
          13          12           1
SMALL
USER_CHARGES
 
@<TRIPOS>ATOM
       1    C1      21.307483   19.824437   20.958209 C.2        1 MOL1         0.6021
       2    O1      20.842821   20.454553   20.029155 O.co2      1 MOL1        -0.6904
       3    O2      22.235625   20.217667   21.636314 O.co2      1 MOL1        -0.6904
       4    C2      20.715496   18.451000   21.264721 C.3        1 MOL1        -0.2102
       5    H1      21.424977   17.893839   21.888817 H          1 MOL1         0.0687
       6    H2      20.636581   17.909459   20.314515 H          1 MOL1         0.0687
       7    C3      19.325009   18.497534   21.948621 C.3        1 MOL1        -0.1974
       8    H3      18.633462   19.092494   21.335670 H          1 MOL1         0.0689
       9    H4      18.911833   17.480608   21.993574 H          1 MOL1         0.0689
      10    C4      19.388323   19.079246   23.376042 C.3        1 MOL1        -0.2987
      11    H5      19.756277   20.113803   23.364660 H          1 MOL1         0.0700
      12    H6      18.392537   19.079700   23.838110 H          1 MOL1         0.0700
      13    H7      20.057760   18.485668   24.012367 H          1 MOL1         0.0700
@<TRIPOS>BOND
    1     1     2    1
    2     1     3    2
    3     1     4    1
    4     4     5    1
    5     4     6    1
    6     4     7    1
    7     7     8    1
    8     7     9    1
    9     7    10    1
   10    10    11    1
   11    10    12    1
   12    10    13    1
@<TRIPOS>SUBSTRUCTURE
       1 MOL1            1 RESIDUE      1      MOL     
@<SCITEGIC>MOL_PROPERTY
VConf Rank
SciTegic.value.IntegerValue
99

@<SCITEGIC>MOL_PROPERTY
Conf_Id
SciTegic.value.IntegerValue
4

@<SCITEGIC>MOL_PROPERTY
Delta U+W
SciTegic.value.DoubleValue
0.281

@<SCITEGIC>MOL_PROPERTY
U+W
SciTegic.value.DoubleValue
-58.051

@<SCITEGIC>MOL_PROPERTY
Grad RMS
SciTegic.value.DoubleValue
0.000000

@<SCITEGIC>MOL_PROPERTY
U
SciTegic.value.DoubleValue
9.781

@<SCITEGIC>MOL_PROPERTY
W
SciTegic.value.DoubleValue
-67.832

@<SCITEGIC>MOL_PROPERTY
W(PB)
SciTegic.value.DoubleValue
-69.535

@<SCITEGIC>MOL_PROPERTY
W(SA)
SciTegic.value.DoubleValue
1.703

@<SCITEGIC>MOL_PROPERTY
Valence
SciTegic.value.DoubleValue
6.123

@<SCITEGIC>MOL_PROPERTY
Coulomb
SciTegic.value.DoubleValue
3.449

@<SCITEGIC>MOL_PROPERTY
VdW
SciTegic.value.DoubleValue
0.209

@<SCITEGIC>MOL_PROPERTY
VdW6
SciTegic.value.DoubleValue
-3.762

@<SCITEGIC>MOL_PROPERTY
VdW12
SciTegic.value.DoubleValue
3.972

@<SCITEGIC>MOL_PROPERTY
Bond
SciTegic.value.DoubleValue
0.078

@<SCITEGIC>MOL_PROPERTY
Angle
SciTegic.value.DoubleValue
2.428

@<SCITEGIC>MOL_PROPERTY
Pdih
SciTegic.value.DoubleValue
3.616

@<SCITEGIC>MOL_PROPERTY
Idih
SciTegic.value.DoubleValue
0.002

@<SCITEGIC>MOL_PROPERTY
Tether
SciTegic.value.DoubleValue
0.000

@<TRIPOS>MOLECULE
guest-6_confgen4.mol2 : confsearch ligand conformer 100
          13          12           1
SMALL
USER_CHARGES
 
@<TRIPOS>ATOM
       1    C1      20.789604   17.909108   20.717132 C.2        1 MOL1         0.6021
       2    O1      21.171793   16.866663   21.210228 O.co2      1 MOL1        -0.6904
       3    O2      20.250853   17.977880   19.630340 O.co2      1 MOL1        -0.6904
       4    C2      21.029847   19.206342   21.485371 C.3        1 MOL1        -0.2102
       5    H1      21.465970   19.926482   20.782817 H          1 MOL1         0.0687
       6    H2      21.785023   19.021759   22.259274 H          1 MOL1         0.0687
       7    C3      19.752554   19.813947   22.119939 C.3        1 MOL1        -0.1974
       8    H3      19.987532   20.810597   22.517864 H          1 MOL1         0.0689
       9    H4      18.988081   19.956269   21.343250 H          1 MOL1         0.0689
      10    C4      19.184237   18.938850   23.256227 C.3        1 MOL1        -0.2987
      11    H5      19.925478   18.802227   24.054530 H          1 MOL1         0.0700
      12    H6      18.293690   19.406358   23.696066 H          1 MOL1         0.0700
      13    H7      18.896350   17.946692   22.883979 H          1 MOL1         0.0700
@<TRIPOS>BOND
    1     1     2    1
    2     1     3    2
    3     1     4    1
    4     4     5    1
    5     4     6    1
    6     4     7    1
    7     7     8    1
    8     7     9    1
    9     7    10    1
   10    10    11    1
   11    10    12    1
   12    10    13    1
@<TRIPOS>SUBSTRUCTURE
       1 MOL1            1 RESIDUE      1      MOL     
@<SCITEGIC>MOL_PROPERTY
VConf Rank
SciTegic.value.IntegerValue
100

@<SCITEGIC>MOL_PROPERTY
Conf_Id
SciTegic.value.IntegerValue
36

@<SCITEGIC>MOL_PROPERTY
Delta U+W
SciTegic.value.DoubleValue
0.272

@<SCITEGIC>MOL_PROPERTY
U+W
SciTegic.value.DoubleValue
-58.060

@<SCITEGIC>MOL_PROPERTY
Grad RMS
SciTegic.value.DoubleValue
0.000000

@<SCITEGIC>MOL_PROPERTY
U
SciTegic.value.DoubleValue
9.781

@<SCITEGIC>MOL_PROPERTY
W
SciTegic.value.DoubleValue
-67.841

@<SCITEGIC>MOL_PROPERTY
W(PB)
SciTegic.value.DoubleValue
-69.537

@<SCITEGIC>MOL_PROPERTY
W(SA)
SciTegic.value.DoubleValue
1.696

@<SCITEGIC>MOL_PROPERTY
Valence
SciTegic.value.DoubleValue
6.123

@<SCITEGIC>MOL_PROPERTY
Coulomb
SciTegic.value.DoubleValue
3.449

@<SCITEGIC>MOL_PROPERTY
VdW
SciTegic.value.DoubleValue
0.209

@<SCITEGIC>MOL_PROPERTY
VdW6
SciTegic.value.DoubleValue
-3.762

@<SCITEGIC>MOL_PROPERTY
VdW12
SciTegic.value.DoubleValue
3.972

@<SCITEGIC>MOL_PROPERTY
Bond
SciTegic.value.DoubleValue
0.078

@<SCITEGIC>MOL_PROPERTY
Angle
SciTegic.value.DoubleValue
2.428

@<SCITEGIC>MOL_PROPERTY
Pdih
SciTegic.value.DoubleValue
3.616

@<SCITEGIC>MOL_PROPERTY
Idih
SciTegic.value.DoubleValue
0.002

@<SCITEGIC>MOL_PROPERTY
Tether
SciTegic.value.DoubleValue
0.000

@<TRIPOS>MOLECULE
guest-6_confgen4.mol2 : confsearch ligand conformer 101
          13          12           1
SMALL
USER_CHARGES
 
@<TRIPOS>ATOM
       1    C1      18.952677   17.874704   20.359746 C.2        1 MOL1         0.6021
       2    O1      18.235963   17.210973   21.083010 O.co2      1 MOL1        -0.6904
       3    O2      18.931302   17.789050   19.148548 O.co2      1 MOL1        -0.6904
       4    C2      19.937567   18.872156   20.972743 C.3        1 MOL1        -0.2102
       5    H1      19.707646   19.859157   20.554051 H          1 MOL1         0.0687
       6    H2      20.940162   18.600863   20.621259 H          1 MOL1         0.0687
       7    C3      19.929581   18.947093   22.522026 C.3        1 MOL1        -0.1974
       8    H3      18.923292   19.216231   22.872314 H          1 MOL1         0.0689
       9    H4      20.157251   17.956364   22.939612 H          1 MOL1         0.0689
      10    C4      20.951105   19.975681   23.047696 C.3        1 MOL1        -0.2987
      11    H5      20.726516   20.981423   22.668797 H          1 MOL1         0.0700
      12    H6      20.930953   20.014492   24.144667 H          1 MOL1         0.0700
      13    H7      21.970378   19.711457   22.736582 H          1 MOL1         0.0700
@<TRIPOS>BOND
    1     1     2    1
    2     1     3    2
    3     1     4    1
    4     4     5    1
    5     4     6    1
    6     4     7    1
    7     7     8    1
    8     7     9    1
    9     7    10    1
   10    10    11    1
   11    10    12    1
   12    10    13    1
@<TRIPOS>SUBSTRUCTURE
       1 MOL1            1 RESIDUE      1      MOL     
@<SCITEGIC>MOL_PROPERTY
VConf Rank
SciTegic.value.IntegerValue
101

@<SCITEGIC>MOL_PROPERTY
Conf_Id
SciTegic.value.IntegerValue
0

@<SCITEGIC>MOL_PROPERTY
Delta U+W
SciTegic.value.DoubleValue
0.000

@<SCITEGIC>MOL_PROPERTY
U+W
SciTegic.value.DoubleValue
-58.332

@<SCITEGIC>MOL_PROPERTY
Grad RMS
SciTegic.value.DoubleValue
0.000000

@<SCITEGIC>MOL_PROPERTY
U
SciTegic.value.DoubleValue
8.390

@<SCITEGIC>MOL_PROPERTY
W
SciTegic.value.DoubleValue
-66.722

@<SCITEGIC>MOL_PROPERTY
W(PB)
SciTegic.value.DoubleValue
-68.455

@<SCITEGIC>MOL_PROPERTY
W(SA)
SciTegic.value.DoubleValue
1.733

@<SCITEGIC>MOL_PROPERTY
Valence
SciTegic.value.DoubleValue
6.333

@<SCITEGIC>MOL_PROPERTY
Coulomb
SciTegic.value.DoubleValue
1.215

@<SCITEGIC>MOL_PROPERTY
VdW
SciTegic.value.DoubleValue
0.842

@<SCITEGIC>MOL_PROPERTY
VdW6
SciTegic.value.DoubleValue
-3.344

@<SCITEGIC>MOL_PROPERTY
VdW12
SciTegic.value.DoubleValue
4.186

@<SCITEGIC>MOL_PROPERTY
Bond
SciTegic.value.DoubleValue
0.091

@<SCITEGIC>MOL_PROPERTY
Angle
SciTegic.value.DoubleValue
2.713

@<SCITEGIC>MOL_PROPERTY
Pdih
SciTegic.value.DoubleValue
3.529

@<SCITEGIC>MOL_PROPERTY
Idih
SciTegic.value.DoubleValue
0.000

@<SCITEGIC>MOL_PROPERTY
Tether
SciTegic.value.DoubleValue
0.000

@<TRIPOS>MOLECULE
guest-6_confgen4.mol2 : confsearch ligand conformer 102
          13          12           1
SMALL
USER_CHARGES
 
@<TRIPOS>ATOM
       1    C1      20.645043   17.730778   23.354346 C.2        1 MOL1         0.6021
       2    O1      20.984627   18.252645   24.397274 O.co2      1 MOL1        -0.6904
       3    O2      21.041003   16.642294   22.988589 O.co2      1 MOL1        -0.6904
       4    C2      19.684510   18.491386   22.446408 C.3        1 MOL1        -0.2102
       5    H1      19.015669   19.087016   23.079571 H          1 MOL1         0.0687
       6    H2      19.062146   17.759020   21.917900 H          1 MOL1         0.0687
       7    C3      20.410179   19.405849   21.430037 C.3        1 MOL1        -0.1974
       8    H3      21.037831   20.128431   21.970174 H          1 MOL1         0.0689
       9    H4      21.084208   18.800174   20.808213 H          1 MOL1         0.0689
      10    C4      19.412569   20.159978   20.528175 C.3        1 MOL1        -0.2987
      11    H5      19.945324   20.802460   19.814979 H          1 MOL1         0.0700
      12    H6      18.793132   19.457819   19.954741 H          1 MOL1         0.0700
      13    H7      18.746436   20.796286   21.125616 H          1 MOL1         0.0700
@<TRIPOS>BOND
    1     1     2    1
    2     1     3    2
    3     1     4    1
    4     4     5    1
    5     4     6    1
    6     4     7    1
    7     7     8    1
    8     7     9    1
    9     7    10    1
   10    10    11    1
   11    10    12    1
   12    10    13    1
@<TRIPOS>SUBSTRUCTURE
       1 MOL1            1 RESIDUE      1      MOL     
@<SCITEGIC>MOL_PROPERTY
VConf Rank
SciTegic.value.IntegerValue
102

@<SCITEGIC>MOL_PROPERTY
Conf_Id
SciTegic.value.IntegerValue
1

@<SCITEGIC>MOL_PROPERTY
Delta U+W
SciTegic.value.DoubleValue
-1.339

@<SCITEGIC>MOL_PROPERTY
U+W
SciTegic.value.DoubleValue
-59.672

@<SCITEGIC>MOL_PROPERTY
Grad RMS
SciTegic.value.DoubleValue
0.000000

@<SCITEGIC>MOL_PROPERTY
U
SciTegic.value.DoubleValue
7.389

@<SCITEGIC>MOL_PROPERTY
W
SciTegic.value.DoubleValue
-67.061

@<SCITEGIC>MOL_PROPERTY
W(PB)
SciTegic.value.DoubleValue
-68.767

@<SCITEGIC>MOL_PROPERTY
W(SA)
SciTegic.value.DoubleValue
1.707

@<SCITEGIC>MOL_PROPERTY
Valence
SciTegic.value.DoubleValue
5.822

@<SCITEGIC>MOL_PROPERTY
Coulomb
SciTegic.value.DoubleValue
1.255

@<SCITEGIC>MOL_PROPERTY
VdW
SciTegic.value.DoubleValue
0.312

@<SCITEGIC>MOL_PROPERTY
VdW6
SciTegic.value.DoubleValue
-3.061

@<SCITEGIC>MOL_PROPERTY
VdW12
SciTegic.value.DoubleValue
3.372

@<SCITEGIC>MOL_PROPERTY
Bond
SciTegic.value.DoubleValue
0.059

@<SCITEGIC>MOL_PROPERTY
Angle
SciTegic.value.DoubleValue
2.241

@<SCITEGIC>MOL_PROPERTY
Pdih
SciTegic.value.DoubleValue
3.522

@<SCITEGIC>MOL_PROPERTY
Idih
SciTegic.value.DoubleValue
0.000

@<SCITEGIC>MOL_PROPERTY
Tether
SciTegic.value.DoubleValue
0.000

@<TRIPOS>MOLECULE
guest-6_confgen4.mol2 : confsearch ligand conformer 103
          13          12           1
SMALL
USER_CHARGES
 
@<TRIPOS>ATOM
       1    C1      18.958739   17.622501   22.198153 C.2        1 MOL1         0.6021
       2    O1      17.851265   17.931236   22.590941 O.co2      1 MOL1        -0.6904
       3    O2      19.155864   16.781320   21.344068 O.co2      1 MOL1        -0.6904
       4    C2      20.165858   18.303211   22.838641 C.3        1 MOL1        -0.2102
       5    H1      21.061181   17.707649   22.621867 H          1 MOL1         0.0687
       6    H2      20.020439   18.272282   23.925049 H          1 MOL1         0.0687
       7    C3      20.379365   19.771295   22.388662 C.3        1 MOL1        -0.1974
       8    H3      19.462687   20.349174   22.572182 H          1 MOL1         0.0689
       9    H4      21.167434   20.225543   23.004681 H          1 MOL1         0.0689
      10    C4      20.775752   19.881347   20.901822 C.3        1 MOL1        -0.2987
      11    H5      19.988578   19.475772   20.252442 H          1 MOL1         0.0700
      12    H6      20.938251   20.930182   20.621399 H          1 MOL1         0.0700
      13    H7      21.702773   19.328496   20.700871 H          1 MOL1         0.0700
@<TRIPOS>BOND
    1     1     2    1
    2     1     3    2
    3     1     4    1
    4     4     5    1
    5     4     6    1
    6     4     7    1
    7     7     8    1
    8     7     9    1
    9     7    10    1
   10    10    11    1
   11    10    12    1
   12    10    13    1
@<TRIPOS>SUBSTRUCTURE
       1 MOL1            1 RESIDUE      1      MOL     
@<SCITEGIC>MOL_PROPERTY
VConf Rank
SciTegic.value.IntegerValue
103

@<SCITEGIC>MOL_PROPERTY
Conf_Id
SciTegic.value.IntegerValue
4

@<SCITEGIC>MOL_PROPERTY
Delta U+W
SciTegic.value.DoubleValue
0.281

@<SCITEGIC>MOL_PROPERTY
U+W
SciTegic.value.DoubleValue
-58.051

@<SCITEGIC>MOL_PROPERTY
Grad RMS
SciTegic.value.DoubleValue
0.000000

@<SCITEGIC>MOL_PROPERTY
U
SciTegic.value.DoubleValue
9.781

@<SCITEGIC>MOL_PROPERTY
W
SciTegic.value.DoubleValue
-67.832

@<SCITEGIC>MOL_PROPERTY
W(PB)
SciTegic.value.DoubleValue
-69.535

@<SCITEGIC>MOL_PROPERTY
W(SA)
SciTegic.value.DoubleValue
1.703

@<SCITEGIC>MOL_PROPERTY
Valence
SciTegic.value.DoubleValue
6.123

@<SCITEGIC>MOL_PROPERTY
Coulomb
SciTegic.value.DoubleValue
3.449

@<SCITEGIC>MOL_PROPERTY
VdW
SciTegic.value.DoubleValue
0.209

@<SCITEGIC>MOL_PROPERTY
VdW6
SciTegic.value.DoubleValue
-3.762

@<SCITEGIC>MOL_PROPERTY
VdW12
SciTegic.value.DoubleValue
3.972

@<SCITEGIC>MOL_PROPERTY
Bond
SciTegic.value.DoubleValue
0.078

@<SCITEGIC>MOL_PROPERTY
Angle
SciTegic.value.DoubleValue
2.428

@<SCITEGIC>MOL_PROPERTY
Pdih
SciTegic.value.DoubleValue
3.616

@<SCITEGIC>MOL_PROPERTY
Idih
SciTegic.value.DoubleValue
0.002

@<SCITEGIC>MOL_PROPERTY
Tether
SciTegic.value.DoubleValue
0.000

@<TRIPOS>MOLECULE
guest-6_confgen4.mol2 : confsearch ligand conformer 104
          13          12           1
SMALL
USER_CHARGES
 
@<TRIPOS>ATOM
       1    C1      18.856754   20.198681   22.325075 C.2        1 MOL1         0.6021
       2    O1      19.329754   21.098619   22.990123 O.co2      1 MOL1        -0.6904
       3    O2      18.041564   20.375923   21.441815 O.co2      1 MOL1        -0.6904
       4    C2      19.280278   18.765574   22.637412 C.3        1 MOL1        -0.2102
       5    H1      18.367264   18.162003   22.704445 H          1 MOL1         0.0687
       6    H2      19.746855   18.745407   23.629977 H          1 MOL1         0.0687
       7    C3      20.234261   18.142372   21.586283 C.3        1 MOL1        -0.1974
       8    H3      20.364514   17.074117   21.807049 H          1 MOL1         0.0689
       9    H4      19.774878   18.205119   20.589813 H          1 MOL1         0.0689
      10    C4      21.617535   18.825072   21.566222 C.3        1 MOL1        -0.2987
      11    H5      22.104344   18.754323   22.547753 H          1 MOL1         0.0700
      12    H6      22.273645   18.348090   20.826558 H          1 MOL1         0.0700
      13    H7      21.529366   19.887875   21.304493 H          1 MOL1         0.0700
@<TRIPOS>BOND
    1     1     2    1
    2     1     3    2
    3     1     4    1
    4     4     5    1
    5     4     6    1
    6     4     7    1
    7     7     8    1
    8     7     9    1
    9     7    10    1
   10    10    11    1
   11    10    12    1
   12    10    13    1
@<TRIPOS>SUBSTRUCTURE
       1 MOL1            1 RESIDUE      1      MOL     
@<SCITEGIC>MOL_PROPERTY
VConf Rank
SciTegic.value.IntegerValue
104

@<SCITEGIC>MOL_PROPERTY
Conf_Id
SciTegic.value.IntegerValue
36

@<SCITEGIC>MOL_PROPERTY
Delta U+W
SciTegic.value.DoubleValue
0.272

@<SCITEGIC>MOL_PROPERTY
U+W
SciTegic.value.DoubleValue
-58.060

@<SCITEGIC>MOL_PROPERTY
Grad RMS
SciTegic.value.DoubleValue
0.000000

@<SCITEGIC>MOL_PROPERTY
U
SciTegic.value.DoubleValue
9.781

@<SCITEGIC>MOL_PROPERTY
W
SciTegic.value.DoubleValue
-67.841

@<SCITEGIC>MOL_PROPERTY
W(PB)
SciTegic.value.DoubleValue
-69.537

@<SCITEGIC>MOL_PROPERTY
W(SA)
SciTegic.value.DoubleValue
1.696

@<SCITEGIC>MOL_PROPERTY
Valence
SciTegic.value.DoubleValue
6.123

@<SCITEGIC>MOL_PROPERTY
Coulomb
SciTegic.value.DoubleValue
3.449

@<SCITEGIC>MOL_PROPERTY
VdW
SciTegic.value.DoubleValue
0.209

@<SCITEGIC>MOL_PROPERTY
VdW6
SciTegic.value.DoubleValue
-3.762

@<SCITEGIC>MOL_PROPERTY
VdW12
SciTegic.value.DoubleValue
3.972

@<SCITEGIC>MOL_PROPERTY
Bond
SciTegic.value.DoubleValue
0.078

@<SCITEGIC>MOL_PROPERTY
Angle
SciTegic.value.DoubleValue
2.428

@<SCITEGIC>MOL_PROPERTY
Pdih
SciTegic.value.DoubleValue
3.616

@<SCITEGIC>MOL_PROPERTY
Idih
SciTegic.value.DoubleValue
0.002

@<SCITEGIC>MOL_PROPERTY
Tether
SciTegic.value.DoubleValue
0.000

@<TRIPOS>MOLECULE
guest-6_confgen4.mol2 : confsearch ligand conformer 105
          13          12           1
SMALL
USER_CHARGES
 
@<TRIPOS>ATOM
       1    C1      19.706136   20.461378   20.299672 C.2        1 MOL1         0.6021
       2    O1      20.784755   20.425981   19.740514 O.co2      1 MOL1        -0.6904
       3    O2      18.803646   21.194854   19.949931 O.co2      1 MOL1        -0.6904
       4    C2      19.442515   19.552953   21.502149 C.3        1 MOL1        -0.2102
       5    H1      18.563928   18.941436   21.264517 H          1 MOL1         0.0687
       6    H2      19.165725   20.197219   22.345147 H          1 MOL1         0.0687
       7    C3      20.623060   18.634241   21.912320 C.3        1 MOL1        -0.1974
       8    H3      20.900770   17.991502   21.065256 H          1 MOL1         0.0689
       9    H4      21.503340   19.248829   22.147146 H          1 MOL1         0.0689
      10    C4      20.266185   17.757710   23.129764 C.3        1 MOL1        -0.2987
      11    H5      19.407077   17.110427   22.909579 H          1 MOL1         0.0700
      12    H6      21.112820   17.115249   23.404918 H          1 MOL1         0.0700
      13    H7      20.014434   18.377865   24.000138 H          1 MOL1         0.0700
@<TRIPOS>BOND
    1     1     2    1
    2     1     3    2
    3     1     4    1
    4     4     5    1
    5     4     6    1
    6     4     7    1
    7     7     8    1
    8     7     9    1
    9     7    10    1
   10    10    11    1
   11    10    12    1
   12    10    13    1
@<TRIPOS>SUBSTRUCTURE
       1 MOL1            1 RESIDUE      1      MOL     
@<SCITEGIC>MOL_PROPERTY
VConf Rank
SciTegic.value.IntegerValue
105

@<SCITEGIC>MOL_PROPERTY
Conf_Id
SciTegic.value.IntegerValue
0

@<SCITEGIC>MOL_PROPERTY
Delta U+W
SciTegic.value.DoubleValue
0.000

@<SCITEGIC>MOL_PROPERTY
U+W
SciTegic.value.DoubleValue
-58.332

@<SCITEGIC>MOL_PROPERTY
Grad RMS
SciTegic.value.DoubleValue
0.000000

@<SCITEGIC>MOL_PROPERTY
U
SciTegic.value.DoubleValue
8.390

@<SCITEGIC>MOL_PROPERTY
W
SciTegic.value.DoubleValue
-66.722

@<SCITEGIC>MOL_PROPERTY
W(PB)
SciTegic.value.DoubleValue
-68.455

@<SCITEGIC>MOL_PROPERTY
W(SA)
SciTegic.value.DoubleValue
1.733

@<SCITEGIC>MOL_PROPERTY
Valence
SciTegic.value.DoubleValue
6.333

@<SCITEGIC>MOL_PROPERTY
Coulomb
SciTegic.value.DoubleValue
1.215

@<SCITEGIC>MOL_PROPERTY
VdW
SciTegic.value.DoubleValue
0.842

@<SCITEGIC>MOL_PROPERTY
VdW6
SciTegic.value.DoubleValue
-3.344

@<SCITEGIC>MOL_PROPERTY
VdW12
SciTegic.value.DoubleValue
4.186

@<SCITEGIC>MOL_PROPERTY
Bond
SciTegic.value.DoubleValue
0.091

@<SCITEGIC>MOL_PROPERTY
Angle
SciTegic.value.DoubleValue
2.713

@<SCITEGIC>MOL_PROPERTY
Pdih
SciTegic.value.DoubleValue
3.529

@<SCITEGIC>MOL_PROPERTY
Idih
SciTegic.value.DoubleValue
0.000

@<SCITEGIC>MOL_PROPERTY
Tether
SciTegic.value.DoubleValue
0.000

@<TRIPOS>MOLECULE
guest-6_confgen4.mol2 : confsearch ligand conformer 106
          13          12           1
SMALL
USER_CHARGES
 
@<TRIPOS>ATOM
       1    C1      20.135505   17.964346   23.643862 C.2        1 MOL1         0.6021
       2    O1      19.682099   16.837543   23.633934 O.co2      1 MOL1        -0.6904
       3    O2      20.253971   18.631114   24.652200 O.co2      1 MOL1        -0.6904
       4    C2      20.561461   18.582208   22.316342 C.3        1 MOL1        -0.2102
       5    H1      20.932572   17.778258   21.669071 H          1 MOL1         0.0687
       6    H2      21.404189   19.257330   22.508796 H          1 MOL1         0.0687
       7    C3      19.415917   19.347867   21.611117 C.3        1 MOL1        -0.1974
       8    H3      18.573959   18.664488   21.432452 H          1 MOL1         0.0689
       9    H4      19.045760   20.143905   22.272276 H          1 MOL1         0.0689
      10    C4      19.878153   19.959770   20.273505 C.3        1 MOL1        -0.2987
      11    H5      19.053114   20.498015   19.788876 H          1 MOL1         0.0700
      12    H6      20.700719   20.670031   20.429929 H          1 MOL1         0.0700
      13    H7      20.225257   19.179262   19.583663 H          1 MOL1         0.0700
@<TRIPOS>BOND
    1     1     2    1
    2     1     3    2
    3     1     4    1
    4     4     5    1
    5     4     6    1
    6     4     7    1
    7     7     8    1
    8     7     9    1
    9     7    10    1
   10    10    11    1
   11    10    12    1
   12    10    13    1
@<TRIPOS>SUBSTRUCTURE
       1 MOL1            1 RESIDUE      1      MOL     
@<SCITEGIC>MOL_PROPERTY
VConf Rank
SciTegic.value.IntegerValue
106

@<SCITEGIC>MOL_PROPERTY
Conf_Id
SciTegic.value.IntegerValue
1

@<SCITEGIC>MOL_PROPERTY
Delta U+W
SciTegic.value.DoubleValue
-1.339

@<SCITEGIC>MOL_PROPERTY
U+W
SciTegic.value.DoubleValue
-59.672

@<SCITEGIC>MOL_PROPERTY
Grad RMS
SciTegic.value.DoubleValue
0.000000

@<SCITEGIC>MOL_PROPERTY
U
SciTegic.value.DoubleValue
7.389

@<SCITEGIC>MOL_PROPERTY
W
SciTegic.value.DoubleValue
-67.061

@<SCITEGIC>MOL_PROPERTY
W(PB)
SciTegic.value.DoubleValue
-68.767

@<SCITEGIC>MOL_PROPERTY
W(SA)
SciTegic.value.DoubleValue
1.707

@<SCITEGIC>MOL_PROPERTY
Valence
SciTegic.value.DoubleValue
5.822

@<SCITEGIC>MOL_PROPERTY
Coulomb
SciTegic.value.DoubleValue
1.255

@<SCITEGIC>MOL_PROPERTY
VdW
SciTegic.value.DoubleValue
0.312

@<SCITEGIC>MOL_PROPERTY
VdW6
SciTegic.value.DoubleValue
-3.061

@<SCITEGIC>MOL_PROPERTY
VdW12
SciTegic.value.DoubleValue
3.372

@<SCITEGIC>MOL_PROPERTY
Bond
SciTegic.value.DoubleValue
0.059

@<SCITEGIC>MOL_PROPERTY
Angle
SciTegic.value.DoubleValue
2.241

@<SCITEGIC>MOL_PROPERTY
Pdih
SciTegic.value.DoubleValue
3.522

@<SCITEGIC>MOL_PROPERTY
Idih
SciTegic.value.DoubleValue
0.000

@<SCITEGIC>MOL_PROPERTY
Tether
SciTegic.value.DoubleValue
0.000

@<TRIPOS>MOLECULE
guest-6_confgen4.mol2 : confsearch ligand conformer 107
          13          12           1
SMALL
USER_CHARGES
 
@<TRIPOS>ATOM
       1    C1      20.121307   20.446707   20.985424 C.2        1 MOL1         0.6021
       2    O1      19.030881   20.844132   20.626085 O.co2      1 MOL1        -0.6904
       3    O2      21.019679   21.184230   21.338823 O.co2      1 MOL1        -0.6904
       4    C2      20.385562   18.943363   20.956205 C.3        1 MOL1        -0.2102
       5    H1      21.469139   18.776269   20.991263 H          1 MOL1         0.0687
       6    H2      20.038768   18.569182   19.985582 H          1 MOL1         0.0687
       7    C3      19.686597   18.153940   22.092690 C.3        1 MOL1        -0.1974
       8    H3      18.607341   18.360793   22.074220 H          1 MOL1         0.0689
       9    H4      19.804795   17.077379   21.908519 H          1 MOL1         0.0689
      10    C4      20.258276   18.492714   23.484934 C.3        1 MOL1        -0.2987
      11    H5      20.116937   19.555641   23.721655 H          1 MOL1         0.0700
      12    H6      19.756124   17.903404   24.263171 H          1 MOL1         0.0700
      13    H7      21.332779   18.272255   23.532205 H          1 MOL1         0.0700
@<TRIPOS>BOND
    1     1     2    1
    2     1     3    2
    3     1     4    1
    4     4     5    1
    5     4     6    1
    6     4     7    1
    7     7     8    1
    8     7     9    1
    9     7    10    1
   10    10    11    1
   11    10    12    1
   12    10    13    1
@<TRIPOS>SUBSTRUCTURE
       1 MOL1            1 RESIDUE      1      MOL     
@<SCITEGIC>MOL_PROPERTY
VConf Rank
SciTegic.value.IntegerValue
107

@<SCITEGIC>MOL_PROPERTY
Conf_Id
SciTegic.value.IntegerValue
4

@<SCITEGIC>MOL_PROPERTY
Delta U+W
SciTegic.value.DoubleValue
0.281

@<SCITEGIC>MOL_PROPERTY
U+W
SciTegic.value.DoubleValue
-58.051

@<SCITEGIC>MOL_PROPERTY
Grad RMS
SciTegic.value.DoubleValue
0.000000

@<SCITEGIC>MOL_PROPERTY
U
SciTegic.value.DoubleValue
9.781

@<SCITEGIC>MOL_PROPERTY
W
SciTegic.value.DoubleValue
-67.832

@<SCITEGIC>MOL_PROPERTY
W(PB)
SciTegic.value.DoubleValue
-69.535

@<SCITEGIC>MOL_PROPERTY
W(SA)
SciTegic.value.DoubleValue
1.703

@<SCITEGIC>MOL_PROPERTY
Valence
SciTegic.value.DoubleValue
6.123

@<SCITEGIC>MOL_PROPERTY
Coulomb
SciTegic.value.DoubleValue
3.449

@<SCITEGIC>MOL_PROPERTY
VdW
SciTegic.value.DoubleValue
0.209

@<SCITEGIC>MOL_PROPERTY
VdW6
SciTegic.value.DoubleValue
-3.762

@<SCITEGIC>MOL_PROPERTY
VdW12
SciTegic.value.DoubleValue
3.972

@<SCITEGIC>MOL_PROPERTY
Bond
SciTegic.value.DoubleValue
0.078

@<SCITEGIC>MOL_PROPERTY
Angle
SciTegic.value.DoubleValue
2.428

@<SCITEGIC>MOL_PROPERTY
Pdih
SciTegic.value.DoubleValue
3.616

@<SCITEGIC>MOL_PROPERTY
Idih
SciTegic.value.DoubleValue
0.002

@<SCITEGIC>MOL_PROPERTY
Tether
SciTegic.value.DoubleValue
0.000

@<TRIPOS>MOLECULE
guest-6_confgen4.mol2 : confsearch ligand conformer 108
          13          12           1
SMALL
USER_CHARGES
 
@<TRIPOS>ATOM
       1    C1      19.972989   20.750160   21.879519 C.2        1 MOL1         0.6021
       2    O1      19.147348   21.037518   21.035926 O.co2      1 MOL1        -0.6904
       3    O2      20.111697   21.365720   22.917759 O.co2      1 MOL1        -0.6904
       4    C2      20.910510   19.576425   21.607259 C.3        1 MOL1        -0.2102
       5    H1      21.930144   19.914448   21.827429 H          1 MOL1         0.0687
       6    H2      20.878787   19.342464   20.536025 H          1 MOL1         0.0687
       7    C3      20.596923   18.307246   22.440436 C.3        1 MOL1        -0.1974
       8    H3      21.401676   17.573612   22.295437 H          1 MOL1         0.0689
       9    H4      20.590426   18.561585   23.509637 H          1 MOL1         0.0689
      10    C4      19.250906   17.662430   22.050080 C.3        1 MOL1        -0.2987
      11    H5      19.244155   17.379895   20.989175 H          1 MOL1         0.0700
      12    H6      19.069041   16.757145   22.643781 H          1 MOL1         0.0700
      13    H7      18.416409   18.354527   22.224554 H          1 MOL1         0.0700
@<TRIPOS>BOND
    1     1     2    1
    2     1     3    2
    3     1     4    1
    4     4     5    1
    5     4     6    1
    6     4     7    1
    7     7     8    1
    8     7     9    1
    9     7    10    1
   10    10    11    1
   11    10    12    1
   12    10    13    1
@<TRIPOS>SUBSTRUCTURE
       1 MOL1            1 RESIDUE      1      MOL     
@<SCITEGIC>MOL_PROPERTY
VConf Rank
SciTegic.value.IntegerValue
108

@<SCITEGIC>MOL_PROPERTY
Conf_Id
SciTegic.value.IntegerValue
36

@<SCITEGIC>MOL_PROPERTY
Delta U+W
SciTegic.value.DoubleValue
0.272

@<SCITEGIC>MOL_PROPERTY
U+W
SciTegic.value.DoubleValue
-58.060

@<SCITEGIC>MOL_PROPERTY
Grad RMS
SciTegic.value.DoubleValue
0.000000

@<SCITEGIC>MOL_PROPERTY
U
SciTegic.value.DoubleValue
9.781

@<SCITEGIC>MOL_PROPERTY
W
SciTegic.value.DoubleValue
-67.841

@<SCITEGIC>MOL_PROPERTY
W(PB)
SciTegic.value.DoubleValue
-69.537

@<SCITEGIC>MOL_PROPERTY
W(SA)
SciTegic.value.DoubleValue
1.696

@<SCITEGIC>MOL_PROPERTY
Valence
SciTegic.value.DoubleValue
6.123

@<SCITEGIC>MOL_PROPERTY
Coulomb
SciTegic.value.DoubleValue
3.449

@<SCITEGIC>MOL_PROPERTY
VdW
SciTegic.value.DoubleValue
0.209

@<SCITEGIC>MOL_PROPERTY
VdW6
SciTegic.value.DoubleValue
-3.762

@<SCITEGIC>MOL_PROPERTY
VdW12
SciTegic.value.DoubleValue
3.972

@<SCITEGIC>MOL_PROPERTY
Bond
SciTegic.value.DoubleValue
0.078

@<SCITEGIC>MOL_PROPERTY
Angle
SciTegic.value.DoubleValue
2.428

@<SCITEGIC>MOL_PROPERTY
Pdih
SciTegic.value.DoubleValue
3.616

@<SCITEGIC>MOL_PROPERTY
Idih
SciTegic.value.DoubleValue
0.002

@<SCITEGIC>MOL_PROPERTY
Tether
SciTegic.value.DoubleValue
0.000

@<TRIPOS>MOLECULE
guest-6_confgen4.mol2 : confsearch ligand conformer 109
          13          12           1
SMALL
USER_CHARGES
 
@<TRIPOS>ATOM
       1    C1      21.482668   19.410536   20.321510 C.2        1 MOL1         0.6021
       2    O1      20.882400   20.231847   19.656337 O.co2      1 MOL1        -0.6904
       3    O2      22.607868   19.038933   20.055746 O.co2      1 MOL1        -0.6904
       4    C2      20.817440   18.798159   21.555669 C.3        1 MOL1        -0.2102
       5    H1      21.467886   19.003226   22.414275 H          1 MOL1         0.0687
       6    H2      20.805196   17.710683   21.415732 H          1 MOL1         0.0687
       7    C3      19.381628   19.302517   21.855712 C.3        1 MOL1        -0.1974
       8    H3      19.395641   20.392831   21.992727 H          1 MOL1         0.0689
       9    H4      18.732144   19.098766   20.992920 H          1 MOL1         0.0689
      10    C4      18.793757   18.631967   23.113728 C.3        1 MOL1        -0.2987
      11    H5      19.408993   18.846829   23.997381 H          1 MOL1         0.0700
      12    H6      17.778546   19.000986   23.309760 H          1 MOL1         0.0700
      13    H7      18.740224   17.542363   22.989553 H          1 MOL1         0.0700
@<TRIPOS>BOND
    1     1     2    1
    2     1     3    2
    3     1     4    1
    4     4     5    1
    5     4     6    1
    6     4     7    1
    7     7     8    1
    8     7     9    1
    9     7    10    1
   10    10    11    1
   11    10    12    1
   12    10    13    1
@<TRIPOS>SUBSTRUCTURE
       1 MOL1            1 RESIDUE      1      MOL     
@<SCITEGIC>MOL_PROPERTY
VConf Rank
SciTegic.value.IntegerValue
109

@<SCITEGIC>MOL_PROPERTY
Conf_Id
SciTegic.value.IntegerValue
0

@<SCITEGIC>MOL_PROPERTY
Delta U+W
SciTegic.value.DoubleValue
0.000

@<SCITEGIC>MOL_PROPERTY
U+W
SciTegic.value.DoubleValue
-58.332

@<SCITEGIC>MOL_PROPERTY
Grad RMS
SciTegic.value.DoubleValue
0.000000

@<SCITEGIC>MOL_PROPERTY
U
SciTegic.value.DoubleValue
8.390

@<SCITEGIC>MOL_PROPERTY
W
SciTegic.value.DoubleValue
-66.722

@<SCITEGIC>MOL_PROPERTY
W(PB)
SciTegic.value.DoubleValue
-68.455

@<SCITEGIC>MOL_PROPERTY
W(SA)
SciTegic.value.DoubleValue
1.733

@<SCITEGIC>MOL_PROPERTY
Valence
SciTegic.value.DoubleValue
6.333

@<SCITEGIC>MOL_PROPERTY
Coulomb
SciTegic.value.DoubleValue
1.215

@<SCITEGIC>MOL_PROPERTY
VdW
SciTegic.value.DoubleValue
0.842

@<SCITEGIC>MOL_PROPERTY
VdW6
SciTegic.value.DoubleValue
-3.344

@<SCITEGIC>MOL_PROPERTY
VdW12
SciTegic.value.DoubleValue
4.186

@<SCITEGIC>MOL_PROPERTY
Bond
SciTegic.value.DoubleValue
0.091

@<SCITEGIC>MOL_PROPERTY
Angle
SciTegic.value.DoubleValue
2.713

@<SCITEGIC>MOL_PROPERTY
Pdih
SciTegic.value.DoubleValue
3.529

@<SCITEGIC>MOL_PROPERTY
Idih
SciTegic.value.DoubleValue
0.000

@<SCITEGIC>MOL_PROPERTY
Tether
SciTegic.value.DoubleValue
0.000

@<TRIPOS>MOLECULE
guest-6_confgen4.mol2 : confsearch ligand conformer 110
          13          12           1
SMALL
USER_CHARGES
 
@<TRIPOS>ATOM
       1    C1      20.955891   19.038884   23.709819 C.2        1 MOL1         0.6021
       2    O1      20.856772   18.018223   24.360809 O.co2      1 MOL1        -0.6904
       3    O2      21.170585   20.129262   24.200066 O.co2      1 MOL1        -0.6904
       4    C2      20.782754   18.949458   22.197362 C.3        1 MOL1        -0.2102
       5    H1      21.159644   17.973601   21.867700 H          1 MOL1         0.0687
       6    H2      21.418453   19.714480   21.735143 H          1 MOL1         0.0687
       7    C3      19.313807   19.133439   21.745485 C.3        1 MOL1        -0.1974
       8    H3      18.685173   18.368311   22.222161 H          1 MOL1         0.0689
       9    H4      18.944081   20.109556   22.089464 H          1 MOL1         0.0689
      10    C4      19.172554   19.037654   20.213113 C.3        1 MOL1        -0.2987
      11    H5      18.125125   19.170490   19.912267 H          1 MOL1         0.0700
      12    H6      19.769383   19.812694   19.714450 H          1 MOL1         0.0700
      13    H7      19.508451   18.058085   19.848183 H          1 MOL1         0.0700
@<TRIPOS>BOND
    1     1     2    1
    2     1     3    2
    3     1     4    1
    4     4     5    1
    5     4     6    1
    6     4     7    1
    7     7     8    1
    8     7     9    1
    9     7    10    1
   10    10    11    1
   11    10    12    1
   12    10    13    1
@<TRIPOS>SUBSTRUCTURE
       1 MOL1            1 RESIDUE      1      MOL     
@<SCITEGIC>MOL_PROPERTY
VConf Rank
SciTegic.value.IntegerValue
110

@<SCITEGIC>MOL_PROPERTY
Conf_Id
SciTegic.value.IntegerValue
1

@<SCITEGIC>MOL_PROPERTY
Delta U+W
SciTegic.value.DoubleValue
-1.339

@<SCITEGIC>MOL_PROPERTY
U+W
SciTegic.value.DoubleValue
-59.672

@<SCITEGIC>MOL_PROPERTY
Grad RMS
SciTegic.value.DoubleValue
0.000000

@<SCITEGIC>MOL_PROPERTY
U
SciTegic.value.DoubleValue
7.389

@<SCITEGIC>MOL_PROPERTY
W
SciTegic.value.DoubleValue
-67.061

@<SCITEGIC>MOL_PROPERTY
W(PB)
SciTegic.value.DoubleValue
-68.767

@<SCITEGIC>MOL_PROPERTY
W(SA)
SciTegic.value.DoubleValue
1.707

@<SCITEGIC>MOL_PROPERTY
Valence
SciTegic.value.DoubleValue
5.822

@<SCITEGIC>MOL_PROPERTY
Coulomb
SciTegic.value.DoubleValue
1.255

@<SCITEGIC>MOL_PROPERTY
VdW
SciTegic.value.DoubleValue
0.312

@<SCITEGIC>MOL_PROPERTY
VdW6
SciTegic.value.DoubleValue
-3.061

@<SCITEGIC>MOL_PROPERTY
VdW12
SciTegic.value.DoubleValue
3.372

@<SCITEGIC>MOL_PROPERTY
Bond
SciTegic.value.DoubleValue
0.059

@<SCITEGIC>MOL_PROPERTY
Angle
SciTegic.value.DoubleValue
2.241

@<SCITEGIC>MOL_PROPERTY
Pdih
SciTegic.value.DoubleValue
3.522

@<SCITEGIC>MOL_PROPERTY
Idih
SciTegic.value.DoubleValue
0.000

@<SCITEGIC>MOL_PROPERTY
Tether
SciTegic.value.DoubleValue
0.000

@<TRIPOS>MOLECULE
guest-6_confgen4.mol2 : confsearch ligand conformer 111
          13          12           1
SMALL
USER_CHARGES
 
@<TRIPOS>ATOM
       1    C1      19.971036   19.503584   23.699859 C.2        1 MOL1         0.6021
       2    O1      18.913743   19.253943   24.243834 O.co2      1 MOL1        -0.6904
       3    O2      21.047762   19.411479   24.254911 O.co2      1 MOL1        -0.6904
       4    C2      19.939349   19.992843   22.254055 C.3        1 MOL1        -0.2102
       5    H1      20.900346   20.468597   22.022904 H          1 MOL1         0.0687
       6    H2      19.174834   20.776349   22.190645 H          1 MOL1         0.0687
       7    C3      19.628930   18.884388   21.215639 C.3        1 MOL1        -0.1974
       8    H3      18.685277   18.386788   21.479905 H          1 MOL1         0.0689
       9    H4      19.477009   19.346401   20.230582 H          1 MOL1         0.0689
      10    C4      20.758423   17.838626   21.112905 C.3        1 MOL1        -0.2987
      11    H5      20.908179   17.323998   22.071320 H          1 MOL1         0.0700
      12    H6      20.516318   17.080776   20.356501 H          1 MOL1         0.0700
      13    H7      21.706976   18.312237   20.827717 H          1 MOL1         0.0700
@<TRIPOS>BOND
    1     1     2    1
    2     1     3    2
    3     1     4    1
    4     4     5    1
    5     4     6    1
    6     4     7    1
    7     7     8    1
    8     7     9    1
    9     7    10    1
   10    10    11    1
   11    10    12    1
   12    10    13    1
@<TRIPOS>SUBSTRUCTURE
       1 MOL1            1 RESIDUE      1      MOL     
@<SCITEGIC>MOL_PROPERTY
VConf Rank
SciTegic.value.IntegerValue
111

@<SCITEGIC>MOL_PROPERTY
Conf_Id
SciTegic.value.IntegerValue
4

@<SCITEGIC>MOL_PROPERTY
Delta U+W
SciTegic.value.DoubleValue
0.281

@<SCITEGIC>MOL_PROPERTY
U+W
SciTegic.value.DoubleValue
-58.051

@<SCITEGIC>MOL_PROPERTY
Grad RMS
SciTegic.value.DoubleValue
0.000000

@<SCITEGIC>MOL_PROPERTY
U
SciTegic.value.DoubleValue
9.781

@<SCITEGIC>MOL_PROPERTY
W
SciTegic.value.DoubleValue
-67.832

@<SCITEGIC>MOL_PROPERTY
W(PB)
SciTegic.value.DoubleValue
-69.535

@<SCITEGIC>MOL_PROPERTY
W(SA)
SciTegic.value.DoubleValue
1.703

@<SCITEGIC>MOL_PROPERTY
Valence
SciTegic.value.DoubleValue
6.123

@<SCITEGIC>MOL_PROPERTY
Coulomb
SciTegic.value.DoubleValue
3.449

@<SCITEGIC>MOL_PROPERTY
VdW
SciTegic.value.DoubleValue
0.209

@<SCITEGIC>MOL_PROPERTY
VdW6
SciTegic.value.DoubleValue
-3.762

@<SCITEGIC>MOL_PROPERTY
VdW12
SciTegic.value.DoubleValue
3.972

@<SCITEGIC>MOL_PROPERTY
Bond
SciTegic.value.DoubleValue
0.078

@<SCITEGIC>MOL_PROPERTY
Angle
SciTegic.value.DoubleValue
2.428

@<SCITEGIC>MOL_PROPERTY
Pdih
SciTegic.value.DoubleValue
3.616

@<SCITEGIC>MOL_PROPERTY
Idih
SciTegic.value.DoubleValue
0.002

@<SCITEGIC>MOL_PROPERTY
Tether
SciTegic.value.DoubleValue
0.000

@<TRIPOS>MOLECULE
guest-6_confgen4.mol2 : confsearch ligand conformer 112
          13          12           1
SMALL
USER_CHARGES
 
@<TRIPOS>ATOM
       1    C1      20.750912   20.140064   23.194635 C.2        1 MOL1         0.6021
       2    O1      21.891765   19.844407   23.489502 O.co2      1 MOL1        -0.6904
       3    O2      20.365896   21.286121   23.074575 O.co2      1 MOL1        -0.6904
       4    C2      19.737156   19.015417   22.999210 C.3        1 MOL1        -0.2102
       5    H1      18.841354   19.279108   23.574008 H          1 MOL1         0.0687
       6    H2      20.140349   18.097553   23.444461 H          1 MOL1         0.0687
       7    C3      19.345389   18.764044   21.520472 C.3        1 MOL1        -0.1974
       8    H3      18.509809   18.051679   21.485630 H          1 MOL1         0.0689
       9    H4      18.981775   19.699375   21.072296 H          1 MOL1         0.0689
      10    C4      20.517236   18.207395   20.685699 C.3        1 MOL1        -0.2987
      11    H5      20.881805   17.260021   21.103985 H          1 MOL1         0.0700
      12    H6      20.201397   18.022465   19.650739 H          1 MOL1         0.0700
      13    H7      21.356168   18.915525   20.661807 H          1 MOL1         0.0700
@<TRIPOS>BOND
    1     1     2    1
    2     1     3    2
    3     1     4    1
    4     4     5    1
    5     4     6    1
    6     4     7    1
    7     7     8    1
    8     7     9    1
    9     7    10    1
   10    10    11    1
   11    10    12    1
   12    10    13    1
@<TRIPOS>SUBSTRUCTURE
       1 MOL1            1 RESIDUE      1      MOL     
@<SCITEGIC>MOL_PROPERTY
VConf Rank
SciTegic.value.IntegerValue
112

@<SCITEGIC>MOL_PROPERTY
Conf_Id
SciTegic.value.IntegerValue
36

@<SCITEGIC>MOL_PROPERTY
Delta U+W
SciTegic.value.DoubleValue
0.272

@<SCITEGIC>MOL_PROPERTY
U+W
SciTegic.value.DoubleValue
-58.060

@<SCITEGIC>MOL_PROPERTY
Grad RMS
SciTegic.value.DoubleValue
0.000000

@<SCITEGIC>MOL_PROPERTY
U
SciTegic.value.DoubleValue
9.781

@<SCITEGIC>MOL_PROPERTY
W
SciTegic.value.DoubleValue
-67.841

@<SCITEGIC>MOL_PROPERTY
W(PB)
SciTegic.value.DoubleValue
-69.537

@<SCITEGIC>MOL_PROPERTY
W(SA)
SciTegic.value.DoubleValue
1.696

@<SCITEGIC>MOL_PROPERTY
Valence
SciTegic.value.DoubleValue
6.123

@<SCITEGIC>MOL_PROPERTY
Coulomb
SciTegic.value.DoubleValue
3.449

@<SCITEGIC>MOL_PROPERTY
VdW
SciTegic.value.DoubleValue
0.209

@<SCITEGIC>MOL_PROPERTY
VdW6
SciTegic.value.DoubleValue
-3.762

@<SCITEGIC>MOL_PROPERTY
VdW12
SciTegic.value.DoubleValue
3.972

@<SCITEGIC>MOL_PROPERTY
Bond
SciTegic.value.DoubleValue
0.078

@<SCITEGIC>MOL_PROPERTY
Angle
SciTegic.value.DoubleValue
2.428

@<SCITEGIC>MOL_PROPERTY
Pdih
SciTegic.value.DoubleValue
3.616

@<SCITEGIC>MOL_PROPERTY
Idih
SciTegic.value.DoubleValue
0.002

@<SCITEGIC>MOL_PROPERTY
Tether
SciTegic.value.DoubleValue
0.000

@<TRIPOS>MOLECULE
guest-6_confgen4.mol2 : confsearch ligand conformer 113
          13          12           1
SMALL
USER_CHARGES
 
@<TRIPOS>ATOM
       1    C1      20.874952   18.667185   23.746968 C.2        1 MOL1         0.6021
       2    O1      21.687682   17.805130   23.475565 O.co2      1 MOL1        -0.6904
       3    O2      20.724040   19.103788   24.870089 O.co2      1 MOL1        -0.6904
       4    C2      19.986425   19.248754   22.645615 C.3        1 MOL1        -0.2102
       5    H1      20.153762   20.332271   22.627522 H          1 MOL1         0.0687
       6    H2      18.944259   19.090693   22.947682 H          1 MOL1         0.0687
       7    C3      20.214457   18.661155   21.228334 C.3        1 MOL1        -0.1974
       8    H3      21.260111   18.818002   20.928731 H          1 MOL1         0.0689
       9    H4      20.049194   17.574875   21.249298 H          1 MOL1         0.0689
      10    C4      19.277233   19.305582   20.187104 C.3        1 MOL1        -0.2987
      11    H5      19.444934   20.388867   20.124707 H          1 MOL1         0.0700
      12    H6      19.453053   18.877545   19.191549 H          1 MOL1         0.0700
      13    H7      18.224291   19.135797   20.447889 H          1 MOL1         0.0700
@<TRIPOS>BOND
    1     1     2    1
    2     1     3    2
    3     1     4    1
    4     4     5    1
    5     4     6    1
    6     4     7    1
    7     7     8    1
    8     7     9    1
    9     7    10    1
   10    10    11    1
   11    10    12    1
   12    10    13    1
@<TRIPOS>SUBSTRUCTURE
       1 MOL1            1 RESIDUE      1      MOL     
@<SCITEGIC>MOL_PROPERTY
VConf Rank
SciTegic.value.IntegerValue
113

@<SCITEGIC>MOL_PROPERTY
Conf_Id
SciTegic.value.IntegerValue
0

@<SCITEGIC>MOL_PROPERTY
Delta U+W
SciTegic.value.DoubleValue
0.000

@<SCITEGIC>MOL_PROPERTY
U+W
SciTegic.value.DoubleValue
-58.332

@<SCITEGIC>MOL_PROPERTY
Grad RMS
SciTegic.value.DoubleValue
0.000000

@<SCITEGIC>MOL_PROPERTY
U
SciTegic.value.DoubleValue
8.390

@<SCITEGIC>MOL_PROPERTY
W
SciTegic.value.DoubleValue
-66.722

@<SCITEGIC>MOL_PROPERTY
W(PB)
SciTegic.value.DoubleValue
-68.455

@<SCITEGIC>MOL_PROPERTY
W(SA)
SciTegic.value.DoubleValue
1.733

@<SCITEGIC>MOL_PROPERTY
Valence
SciTegic.value.DoubleValue
6.333

@<SCITEGIC>MOL_PROPERTY
Coulomb
SciTegic.value.DoubleValue
1.215

@<SCITEGIC>MOL_PROPERTY
VdW
SciTegic.value.DoubleValue
0.842

@<SCITEGIC>MOL_PROPERTY
VdW6
SciTegic.value.DoubleValue
-3.344

@<SCITEGIC>MOL_PROPERTY
VdW12
SciTegic.value.DoubleValue
4.186

@<SCITEGIC>MOL_PROPERTY
Bond
SciTegic.value.DoubleValue
0.091

@<SCITEGIC>MOL_PROPERTY
Angle
SciTegic.value.DoubleValue
2.713

@<SCITEGIC>MOL_PROPERTY
Pdih
SciTegic.value.DoubleValue
3.529

@<SCITEGIC>MOL_PROPERTY
Idih
SciTegic.value.DoubleValue
0.000

@<SCITEGIC>MOL_PROPERTY
Tether
SciTegic.value.DoubleValue
0.000

@<TRIPOS>MOLECULE
guest-6_confgen4.mol2 : confsearch ligand conformer 114
          13          12           1
SMALL
USER_CHARGES
 
@<TRIPOS>ATOM
       1    C1      18.987124   17.305715   22.502393 C.2        1 MOL1         0.6021
       2    O1      18.237995   17.453812   23.446974 O.co2      1 MOL1        -0.6904
       3    O2      19.506360   16.245221   22.217599 O.co2      1 MOL1        -0.6904
       4    C2      19.307850   18.520877   21.638670 C.3        1 MOL1        -0.2102
       5    H1      18.425389   19.172089   21.624415 H          1 MOL1         0.0687
       6    H2      19.471337   18.175411   20.610593 H          1 MOL1         0.0687
       7    C3      20.542986   19.308460   22.138669 C.3        1 MOL1        -0.1974
       8    H3      20.371977   19.640780   23.172178 H          1 MOL1         0.0689
       9    H4      21.418133   18.643956   22.158041 H          1 MOL1         0.0689
      10    C4      20.840400   20.529447   21.245345 C.3        1 MOL1        -0.2987
      11    H5      21.718562   21.074587   21.615367 H          1 MOL1         0.0700
      12    H6      21.044363   20.219653   20.211913 H          1 MOL1         0.0700
      13    H7      19.990200   21.224130   21.233867 H          1 MOL1         0.0700
@<TRIPOS>BOND
    1     1     2    1
    2     1     3    2
    3     1     4    1
    4     4     5    1
    5     4     6    1
    6     4     7    1
    7     7     8    1
    8     7     9    1
    9     7    10    1
   10    10    11    1
   11    10    12    1
   12    10    13    1
@<TRIPOS>SUBSTRUCTURE
       1 MOL1            1 RESIDUE      1      MOL     
@<SCITEGIC>MOL_PROPERTY
VConf Rank
SciTegic.value.IntegerValue
114

@<SCITEGIC>MOL_PROPERTY
Conf_Id
SciTegic.value.IntegerValue
1

@<SCITEGIC>MOL_PROPERTY
Delta U+W
SciTegic.value.DoubleValue
-1.339

@<SCITEGIC>MOL_PROPERTY
U+W
SciTegic.value.DoubleValue
-59.672

@<SCITEGIC>MOL_PROPERTY
Grad RMS
SciTegic.value.DoubleValue
0.000000

@<SCITEGIC>MOL_PROPERTY
U
SciTegic.value.DoubleValue
7.389

@<SCITEGIC>MOL_PROPERTY
W
SciTegic.value.DoubleValue
-67.061

@<SCITEGIC>MOL_PROPERTY
W(PB)
SciTegic.value.DoubleValue
-68.767

@<SCITEGIC>MOL_PROPERTY
W(SA)
SciTegic.value.DoubleValue
1.707

@<SCITEGIC>MOL_PROPERTY
Valence
SciTegic.value.DoubleValue
5.822

@<SCITEGIC>MOL_PROPERTY
Coulomb
SciTegic.value.DoubleValue
1.255

@<SCITEGIC>MOL_PROPERTY
VdW
SciTegic.value.DoubleValue
0.312

@<SCITEGIC>MOL_PROPERTY
VdW6
SciTegic.value.DoubleValue
-3.061

@<SCITEGIC>MOL_PROPERTY
VdW12
SciTegic.value.DoubleValue
3.372

@<SCITEGIC>MOL_PROPERTY
Bond
SciTegic.value.DoubleValue
0.059

@<SCITEGIC>MOL_PROPERTY
Angle
SciTegic.value.DoubleValue
2.241

@<SCITEGIC>MOL_PROPERTY
Pdih
SciTegic.value.DoubleValue
3.522

@<SCITEGIC>MOL_PROPERTY
Idih
SciTegic.value.DoubleValue
0.000

@<SCITEGIC>MOL_PROPERTY
Tether
SciTegic.value.DoubleValue
0.000

@<TRIPOS>MOLECULE
guest-6_confgen4.mol2 : confsearch ligand conformer 115
          13          12           1
SMALL
USER_CHARGES
 
@<TRIPOS>ATOM
       1    C1      19.242168   18.051184   20.735660 C.2        1 MOL1         0.6021
       2    O1      18.246191   17.461006   21.104196 O.co2      1 MOL1        -0.6904
       3    O2      19.317611   18.640547   19.676008 O.co2      1 MOL1        -0.6904
       4    C2      20.473736   18.018620   21.637275 C.3        1 MOL1        -0.2102
       5    H1      21.351390   18.302787   21.043760 H          1 MOL1         0.0687
       6    H2      20.624676   16.977689   21.947220 H          1 MOL1         0.0687
       7    C3      20.364359   18.919993   22.893819 C.3        1 MOL1        -0.1974
       8    H3      19.459899   18.654720   23.459067 H          1 MOL1         0.0689
       9    H4      21.219135   18.721386   23.554718 H          1 MOL1         0.0689
      10    C4      20.337392   20.421909   22.542466 C.3        1 MOL1        -0.2987
      11    H5      19.468230   20.665395   21.917087 H          1 MOL1         0.0700
      12    H6      20.279571   21.031383   23.453671 H          1 MOL1         0.0700
      13    H7      21.243825   20.713389   21.995830 H          1 MOL1         0.0700
@<TRIPOS>BOND
    1     1     2    1
    2     1     3    2
    3     1     4    1
    4     4     5    1
    5     4     6    1
    6     4     7    1
    7     7     8    1
    8     7     9    1
    9     7    10    1
   10    10    11    1
   11    10    12    1
   12    10    13    1
@<TRIPOS>SUBSTRUCTURE
       1 MOL1            1 RESIDUE      1      MOL     
@<SCITEGIC>MOL_PROPERTY
VConf Rank
SciTegic.value.IntegerValue
115

@<SCITEGIC>MOL_PROPERTY
Conf_Id
SciTegic.value.IntegerValue
4

@<SCITEGIC>MOL_PROPERTY
Delta U+W
SciTegic.value.DoubleValue
0.281

@<SCITEGIC>MOL_PROPERTY
U+W
SciTegic.value.DoubleValue
-58.051

@<SCITEGIC>MOL_PROPERTY
Grad RMS
SciTegic.value.DoubleValue
0.000000

@<SCITEGIC>MOL_PROPERTY
U
SciTegic.value.DoubleValue
9.781

@<SCITEGIC>MOL_PROPERTY
W
SciTegic.value.DoubleValue
-67.832

@<SCITEGIC>MOL_PROPERTY
W(PB)
SciTegic.value.DoubleValue
-69.535

@<SCITEGIC>MOL_PROPERTY
W(SA)
SciTegic.value.DoubleValue
1.703

@<SCITEGIC>MOL_PROPERTY
Valence
SciTegic.value.DoubleValue
6.123

@<SCITEGIC>MOL_PROPERTY
Coulomb
SciTegic.value.DoubleValue
3.449

@<SCITEGIC>MOL_PROPERTY
VdW
SciTegic.value.DoubleValue
0.209

@<SCITEGIC>MOL_PROPERTY
VdW6
SciTegic.value.DoubleValue
-3.762

@<SCITEGIC>MOL_PROPERTY
VdW12
SciTegic.value.DoubleValue
3.972

@<SCITEGIC>MOL_PROPERTY
Bond
SciTegic.value.DoubleValue
0.078

@<SCITEGIC>MOL_PROPERTY
Angle
SciTegic.value.DoubleValue
2.428

@<SCITEGIC>MOL_PROPERTY
Pdih
SciTegic.value.DoubleValue
3.616

@<SCITEGIC>MOL_PROPERTY
Idih
SciTegic.value.DoubleValue
0.002

@<SCITEGIC>MOL_PROPERTY
Tether
SciTegic.value.DoubleValue
0.000

@<TRIPOS>MOLECULE
guest-6_confgen4.mol2 : confsearch ligand conformer 116
          13          12           1
SMALL
USER_CHARGES
 
@<TRIPOS>ATOM
       1    C1      19.350593   18.249579   20.545015 C.2        1 MOL1         0.6021
       2    O1      19.788189   17.130664   20.364892 O.co2      1 MOL1        -0.6904
       3    O2      18.191321   18.554988   20.347759 O.co2      1 MOL1        -0.6904
       4    C2      20.313607   19.339421   21.009313 C.3        1 MOL1        -0.2102
       5    H1      20.154538   20.212465   20.365203 H          1 MOL1         0.0687
       6    H2      21.341291   18.998761   20.832947 H          1 MOL1         0.0687
       7    C3      20.135636   19.753765   22.492547 C.3        1 MOL1        -0.1974
       8    H3      20.756652   20.636706   22.696577 H          1 MOL1         0.0689
       9    H4      19.092969   20.053747   22.667981 H          1 MOL1         0.0689
      10    C4      20.525220   18.626661   23.471212 C.3        1 MOL1        -0.2987
      11    H5      21.571566   18.326682   23.327807 H          1 MOL1         0.0700
      12    H6      20.406582   18.958823   24.510774 H          1 MOL1         0.0700
      13    H7      19.892846   17.740914   23.324991 H          1 MOL1         0.0700
@<TRIPOS>BOND
    1     1     2    1
    2     1     3    2
    3     1     4    1
    4     4     5    1
    5     4     6    1
    6     4     7    1
    7     7     8    1
    8     7     9    1
    9     7    10    1
   10    10    11    1
   11    10    12    1
   12    10    13    1
@<TRIPOS>SUBSTRUCTURE
       1 MOL1            1 RESIDUE      1      MOL     
@<SCITEGIC>MOL_PROPERTY
VConf Rank
SciTegic.value.IntegerValue
116

@<SCITEGIC>MOL_PROPERTY
Conf_Id
SciTegic.value.IntegerValue
36

@<SCITEGIC>MOL_PROPERTY
Delta U+W
SciTegic.value.DoubleValue
0.272

@<SCITEGIC>MOL_PROPERTY
U+W
SciTegic.value.DoubleValue
-58.060

@<SCITEGIC>MOL_PROPERTY
Grad RMS
SciTegic.value.DoubleValue
0.000000

@<SCITEGIC>MOL_PROPERTY
U
SciTegic.value.DoubleValue
9.781

@<SCITEGIC>MOL_PROPERTY
W
SciTegic.value.DoubleValue
-67.841

@<SCITEGIC>MOL_PROPERTY
W(PB)
SciTegic.value.DoubleValue
-69.537

@<SCITEGIC>MOL_PROPERTY
W(SA)
SciTegic.value.DoubleValue
1.696

@<SCITEGIC>MOL_PROPERTY
Valence
SciTegic.value.DoubleValue
6.123

@<SCITEGIC>MOL_PROPERTY
Coulomb
SciTegic.value.DoubleValue
3.449

@<SCITEGIC>MOL_PROPERTY
VdW
SciTegic.value.DoubleValue
0.209

@<SCITEGIC>MOL_PROPERTY
VdW6
SciTegic.value.DoubleValue
-3.762

@<SCITEGIC>MOL_PROPERTY
VdW12
SciTegic.value.DoubleValue
3.972

@<SCITEGIC>MOL_PROPERTY
Bond
SciTegic.value.DoubleValue
0.078

@<SCITEGIC>MOL_PROPERTY
Angle
SciTegic.value.DoubleValue
2.428

@<SCITEGIC>MOL_PROPERTY
Pdih
SciTegic.value.DoubleValue
3.616

@<SCITEGIC>MOL_PROPERTY
Idih
SciTegic.value.DoubleValue
0.002

@<SCITEGIC>MOL_PROPERTY
Tether
SciTegic.value.DoubleValue
0.000

@<TRIPOS>MOLECULE
guest-6_confgen4.mol2 : confsearch ligand conformer 117
          13          12           1
SMALL
USER_CHARGES
 
@<TRIPOS>ATOM
       1    C1      18.763459   20.715422   21.968966 C.2        1 MOL1         0.6021
       2    O1      19.402260   21.508638   21.305588 O.co2      1 MOL1        -0.6904
       3    O2      17.708978   20.996712   22.501641 O.co2      1 MOL1        -0.6904
       4    C2      19.285119   19.290002   22.160618 C.3        1 MOL1        -0.2102
       5    H1      18.511360   18.605634   21.792820 H          1 MOL1         0.0687
       6    H2      19.378645   19.117532   23.239434 H          1 MOL1         0.0687
       7    C3      20.634383   18.976749   21.462537 C.3        1 MOL1        -0.1974
       8    H3      20.539352   19.153004   20.381954 H          1 MOL1         0.0689
       9    H4      21.407696   19.665586   21.830293 H          1 MOL1         0.0689
      10    C4      21.079572   17.521395   21.710699 C.3        1 MOL1        -0.2987
      11    H5      20.336597   16.811771   21.323472 H          1 MOL1         0.0700
      12    H6      22.035114   17.318734   21.209574 H          1 MOL1         0.0700
      13    H7      21.211859   17.328466   22.783454 H          1 MOL1         0.0700
@<TRIPOS>BOND
    1     1     2    1
    2     1     3    2
    3     1     4    1
    4     4     5    1
    5     4     6    1
    6     4     7    1
    7     7     8    1
    8     7     9    1
    9     7    10    1
   10    10    11    1
   11    10    12    1
   12    10    13    1
@<TRIPOS>SUBSTRUCTURE
       1 MOL1            1 RESIDUE      1      MOL     
@<SCITEGIC>MOL_PROPERTY
VConf Rank
SciTegic.value.IntegerValue
117

@<SCITEGIC>MOL_PROPERTY
Conf_Id
SciTegic.value.IntegerValue
0

@<SCITEGIC>MOL_PROPERTY
Delta U+W
SciTegic.value.DoubleValue
0.000

@<SCITEGIC>MOL_PROPERTY
U+W
SciTegic.value.DoubleValue
-58.332

@<SCITEGIC>MOL_PROPERTY
Grad RMS
SciTegic.value.DoubleValue
0.000000

@<SCITEGIC>MOL_PROPERTY
U
SciTegic.value.DoubleValue
8.390

@<SCITEGIC>MOL_PROPERTY
W
SciTegic.value.DoubleValue
-66.722

@<SCITEGIC>MOL_PROPERTY
W(PB)
SciTegic.value.DoubleValue
-68.455

@<SCITEGIC>MOL_PROPERTY
W(SA)
SciTegic.value.DoubleValue
1.733

@<SCITEGIC>MOL_PROPERTY
Valence
SciTegic.value.DoubleValue
6.333

@<SCITEGIC>MOL_PROPERTY
Coulomb
SciTegic.value.DoubleValue
1.215

@<SCITEGIC>MOL_PROPERTY
VdW
SciTegic.value.DoubleValue
0.842

@<SCITEGIC>MOL_PROPERTY
VdW6
SciTegic.value.DoubleValue
-3.344

@<SCITEGIC>MOL_PROPERTY
VdW12
SciTegic.value.DoubleValue
4.186

@<SCITEGIC>MOL_PROPERTY
Bond
SciTegic.value.DoubleValue
0.091

@<SCITEGIC>MOL_PROPERTY
Angle
SciTegic.value.DoubleValue
2.713

@<SCITEGIC>MOL_PROPERTY
Pdih
SciTegic.value.DoubleValue
3.529

@<SCITEGIC>MOL_PROPERTY
Idih
SciTegic.value.DoubleValue
0.000

@<SCITEGIC>MOL_PROPERTY
Tether
SciTegic.value.DoubleValue
0.000

@<TRIPOS>MOLECULE
guest-6_confgen4.mol2 : confsearch ligand conformer 118
          13          12           1
SMALL
USER_CHARGES
 
@<TRIPOS>ATOM
       1    C1      21.812726   18.100010   22.335108 C.2        1 MOL1         0.6021
       2    O1      22.818643   18.611891   21.886255 O.co2      1 MOL1        -0.6904
       3    O2      21.740190   16.930349   22.654472 O.co2      1 MOL1        -0.6904
       4    C2      20.568341   18.968076   22.488294 C.3        1 MOL1        -0.2102
       5    H1      20.891542   19.990146   22.720526 H          1 MOL1         0.0687
       6    H2      20.002196   18.603455   23.354060 H          1 MOL1         0.0687
       7    C3      19.671686   18.966707   21.226606 C.3        1 MOL1        -0.1974
       8    H3      20.251806   19.324157   20.364334 H          1 MOL1         0.0689
       9    H4      19.362195   17.937237   20.998069 H          1 MOL1         0.0689
      10    C4      18.423619   19.852574   21.413306 C.3        1 MOL1        -0.2987
      11    H5      17.800923   19.838868   20.509246 H          1 MOL1         0.0700
      12    H6      17.811183   19.496556   22.252192 H          1 MOL1         0.0700
      13    H7      18.707625   20.894111   21.613554 H          1 MOL1         0.0700
@<TRIPOS>BOND
    1     1     2    1
    2     1     3    2
    3     1     4    1
    4     4     5    1
    5     4     6    1
    6     4     7    1
    7     7     8    1
    8     7     9    1
    9     7    10    1
   10    10    11    1
   11    10    12    1
   12    10    13    1
@<TRIPOS>SUBSTRUCTURE
       1 MOL1            1 RESIDUE      1      MOL     
@<SCITEGIC>MOL_PROPERTY
VConf Rank
SciTegic.value.IntegerValue
118

@<SCITEGIC>MOL_PROPERTY
Conf_Id
SciTegic.value.IntegerValue
1

@<SCITEGIC>MOL_PROPERTY
Delta U+W
SciTegic.value.DoubleValue
-1.339

@<SCITEGIC>MOL_PROPERTY
U+W
SciTegic.value.DoubleValue
-59.672

@<SCITEGIC>MOL_PROPERTY
Grad RMS
SciTegic.value.DoubleValue
0.000000

@<SCITEGIC>MOL_PROPERTY
U
SciTegic.value.DoubleValue
7.389

@<SCITEGIC>MOL_PROPERTY
W
SciTegic.value.DoubleValue
-67.061

@<SCITEGIC>MOL_PROPERTY
W(PB)
SciTegic.value.DoubleValue
-68.767

@<SCITEGIC>MOL_PROPERTY
W(SA)
SciTegic.value.DoubleValue
1.707

@<SCITEGIC>MOL_PROPERTY
Valence
SciTegic.value.DoubleValue
5.822

@<SCITEGIC>MOL_PROPERTY
Coulomb
SciTegic.value.DoubleValue
1.255

@<SCITEGIC>MOL_PROPERTY
VdW
SciTegic.value.DoubleValue
0.312

@<SCITEGIC>MOL_PROPERTY
VdW6
SciTegic.value.DoubleValue
-3.061

@<SCITEGIC>MOL_PROPERTY
VdW12
SciTegic.value.DoubleValue
3.372

@<SCITEGIC>MOL_PROPERTY
Bond
SciTegic.value.DoubleValue
0.059

@<SCITEGIC>MOL_PROPERTY
Angle
SciTegic.value.DoubleValue
2.241

@<SCITEGIC>MOL_PROPERTY
Pdih
SciTegic.value.DoubleValue
3.522

@<SCITEGIC>MOL_PROPERTY
Idih
SciTegic.value.DoubleValue
0.000

@<SCITEGIC>MOL_PROPERTY
Tether
SciTegic.value.DoubleValue
0.000

@<TRIPOS>MOLECULE
guest-6_confgen4.mol2 : confsearch ligand conformer 119
          13          12           1
SMALL
USER_CHARGES
 
@<TRIPOS>ATOM
       1    C1      20.424117   18.432508   20.313237 C.2        1 MOL1         0.6021
       2    O1      20.109913   17.287942   20.053734 O.co2      1 MOL1        -0.6904
       3    O2      20.249244   19.363665   19.552795 O.co2      1 MOL1        -0.6904
       4    C2      21.106862   18.706363   21.650992 C.3        1 MOL1        -0.2102
       5    H1      21.602918   19.683348   21.598878 H          1 MOL1         0.0687
       6    H2      21.897100   17.956248   21.774431 H          1 MOL1         0.0687
       7    C3      20.153199   18.656290   22.872204 C.3        1 MOL1        -0.1974
       8    H3      19.630849   17.689490   22.891464 H          1 MOL1         0.0689
       9    H4      20.746754   18.712746   23.794907 H          1 MOL1         0.0689
      10    C4      19.123318   19.804861   22.864505 C.3        1 MOL1        -0.2987
      11    H5      18.481307   19.753338   21.975126 H          1 MOL1         0.0700
      12    H6      18.477869   19.751639   23.750879 H          1 MOL1         0.0700
      13    H7      19.624735   20.781571   22.867623 H          1 MOL1         0.0700
@<TRIPOS>BOND
    1     1     2    1
    2     1     3    2
    3     1     4    1
    4     4     5    1
    5     4     6    1
    6     4     7    1
    7     7     8    1
    8     7     9    1
    9     7    10    1
   10    10    11    1
   11    10    12    1
   12    10    13    1
@<TRIPOS>SUBSTRUCTURE
       1 MOL1            1 RESIDUE      1      MOL     
@<SCITEGIC>MOL_PROPERTY
VConf Rank
SciTegic.value.IntegerValue
119

@<SCITEGIC>MOL_PROPERTY
Conf_Id
SciTegic.value.IntegerValue
4

@<SCITEGIC>MOL_PROPERTY
Delta U+W
SciTegic.value.DoubleValue
0.281

@<SCITEGIC>MOL_PROPERTY
U+W
SciTegic.value.DoubleValue
-58.051

@<SCITEGIC>MOL_PROPERTY
Grad RMS
SciTegic.value.DoubleValue
0.000000

@<SCITEGIC>MOL_PROPERTY
U
SciTegic.value.DoubleValue
9.781

@<SCITEGIC>MOL_PROPERTY
W
SciTegic.value.DoubleValue
-67.832

@<SCITEGIC>MOL_PROPERTY
W(PB)
SciTegic.value.DoubleValue
-69.535

@<SCITEGIC>MOL_PROPERTY
W(SA)
SciTegic.value.DoubleValue
1.703

@<SCITEGIC>MOL_PROPERTY
Valence
SciTegic.value.DoubleValue
6.123

@<SCITEGIC>MOL_PROPERTY
Coulomb
SciTegic.value.DoubleValue
3.449

@<SCITEGIC>MOL_PROPERTY
VdW
SciTegic.value.DoubleValue
0.209

@<SCITEGIC>MOL_PROPERTY
VdW6
SciTegic.value.DoubleValue
-3.762

@<SCITEGIC>MOL_PROPERTY
VdW12
SciTegic.value.DoubleValue
3.972

@<SCITEGIC>MOL_PROPERTY
Bond
SciTegic.value.DoubleValue
0.078

@<SCITEGIC>MOL_PROPERTY
Angle
SciTegic.value.DoubleValue
2.428

@<SCITEGIC>MOL_PROPERTY
Pdih
SciTegic.value.DoubleValue
3.616

@<SCITEGIC>MOL_PROPERTY
Idih
SciTegic.value.DoubleValue
0.002

@<SCITEGIC>MOL_PROPERTY
Tether
SciTegic.value.DoubleValue
0.000

@<TRIPOS>MOLECULE
guest-6_confgen4.mol2 : confsearch ligand conformer 120
          13          12           1
SMALL
USER_CHARGES
 
@<TRIPOS>ATOM
       1    C1      21.336294   19.885576   21.057518 C.2        1 MOL1         0.6021
       2    O1      20.796339   20.439952   20.121024 O.co2      1 MOL1        -0.6904
       3    O2      22.240104   20.382788   21.699396 O.co2      1 MOL1        -0.6904
       4    C2      20.881451   18.475759   21.426647 C.3        1 MOL1        -0.2102
       5    H1      21.781997   17.859830   21.536355 H          1 MOL1         0.0687
       6    H2      20.312882   18.058632   20.586397 H          1 MOL1         0.0687
       7    C3      20.043192   18.399859   22.728530 C.3        1 MOL1        -0.1974
       8    H3      19.889831   17.345660   22.996891 H          1 MOL1         0.0689
       9    H4      20.605042   18.857496   23.554856 H          1 MOL1         0.0689
      10    C4      18.670098   19.088829   22.587604 C.3        1 MOL1        -0.2987
      11    H5      18.082544   18.631516   21.780735 H          1 MOL1         0.0700
      12    H6      18.095316   18.999942   23.518636 H          1 MOL1         0.0700
      13    H7      18.785922   20.157336   22.362429 H          1 MOL1         0.0700
@<TRIPOS>BOND
    1     1     2    1
    2     1     3    2
    3     1     4    1
    4     4     5    1
    5     4     6    1
    6     4     7    1
    7     7     8    1
    8     7     9    1
    9     7    10    1
   10    10    11    1
   11    10    12    1
   12    10    13    1
@<TRIPOS>SUBSTRUCTURE
       1 MOL1            1 RESIDUE      1      MOL     
@<SCITEGIC>MOL_PROPERTY
VConf Rank
SciTegic.value.IntegerValue
120

@<SCITEGIC>MOL_PROPERTY
Conf_Id
SciTegic.value.IntegerValue
36

@<SCITEGIC>MOL_PROPERTY
Delta U+W
SciTegic.value.DoubleValue
0.272

@<SCITEGIC>MOL_PROPERTY
U+W
SciTegic.value.DoubleValue
-58.060

@<SCITEGIC>MOL_PROPERTY
Grad RMS
SciTegic.value.DoubleValue
0.000000

@<SCITEGIC>MOL_PROPERTY
U
SciTegic.value.DoubleValue
9.781

@<SCITEGIC>MOL_PROPERTY
W
SciTegic.value.DoubleValue
-67.841

@<SCITEGIC>MOL_PROPERTY
W(PB)
SciTegic.value.DoubleValue
-69.537

@<SCITEGIC>MOL_PROPERTY
W(SA)
SciTegic.value.DoubleValue
1.696

@<SCITEGIC>MOL_PROPERTY
Valence
SciTegic.value.DoubleValue
6.123

@<SCITEGIC>MOL_PROPERTY
Coulomb
SciTegic.value.DoubleValue
3.449

@<SCITEGIC>MOL_PROPERTY
VdW
SciTegic.value.DoubleValue
0.209

@<SCITEGIC>MOL_PROPERTY
VdW6
SciTegic.value.DoubleValue
-3.762

@<SCITEGIC>MOL_PROPERTY
VdW12
SciTegic.value.DoubleValue
3.972

@<SCITEGIC>MOL_PROPERTY
Bond
SciTegic.value.DoubleValue
0.078

@<SCITEGIC>MOL_PROPERTY
Angle
SciTegic.value.DoubleValue
2.428

@<SCITEGIC>MOL_PROPERTY
Pdih
SciTegic.value.DoubleValue
3.616

@<SCITEGIC>MOL_PROPERTY
Idih
SciTegic.value.DoubleValue
0.002

@<SCITEGIC>MOL_PROPERTY
Tether
SciTegic.value.DoubleValue
0.000

@<TRIPOS>MOLECULE
guest-6_confgen4.mol2 : confsearch ligand conformer 121
          13          12           1
SMALL
USER_CHARGES
 
@<TRIPOS>ATOM
       1    C1      22.142981   19.198253   21.707779 C.2        1 MOL1         0.6021
       2    O1      22.270085   19.476585   20.531469 O.co2      1 MOL1        -0.6904
       3    O2      23.083605   19.100630   22.469679 O.co2      1 MOL1        -0.6904
       4    C2      20.747438   18.953586   22.285082 C.3        1 MOL1        -0.2102
       5    H1      20.606029   19.660460   23.111321 H          1 MOL1         0.0687
       6    H2      20.744747   17.947275   22.720592 H          1 MOL1         0.0687
       7    C3      19.577616   19.089112   21.275574 C.3        1 MOL1        -0.1974
       8    H3      19.583864   20.097269   20.838155 H          1 MOL1         0.0689
       9    H4      19.722790   18.382024   20.446897 H          1 MOL1         0.0689
      10    C4      18.213898   18.825837   21.945497 C.3        1 MOL1        -0.2987
      11    H5      18.030974   19.540736   22.758505 H          1 MOL1         0.0700
      12    H6      17.399317   18.926148   21.216352 H          1 MOL1         0.0700
      13    H7      18.171048   17.811729   22.364150 H          1 MOL1         0.0700
@<TRIPOS>BOND
    1     1     2    1
    2     1     3    2
    3     1     4    1
    4     4     5    1
    5     4     6    1
    6     4     7    1
    7     7     8    1
    8     7     9    1
    9     7    10    1
   10    10    11    1
   11    10    12    1
   12    10    13    1
@<TRIPOS>SUBSTRUCTURE
       1 MOL1            1 RESIDUE      1      MOL     
@<SCITEGIC>MOL_PROPERTY
VConf Rank
SciTegic.value.IntegerValue
121

@<SCITEGIC>MOL_PROPERTY
Conf_Id
SciTegic.value.IntegerValue
0

@<SCITEGIC>MOL_PROPERTY
Delta U+W
SciTegic.value.DoubleValue
0.000

@<SCITEGIC>MOL_PROPERTY
U+W
SciTegic.value.DoubleValue
-58.332

@<SCITEGIC>MOL_PROPERTY
Grad RMS
SciTegic.value.DoubleValue
0.000000

@<SCITEGIC>MOL_PROPERTY
U
SciTegic.value.DoubleValue
8.390

@<SCITEGIC>MOL_PROPERTY
W
SciTegic.value.DoubleValue
-66.722

@<SCITEGIC>MOL_PROPERTY
W(PB)
SciTegic.value.DoubleValue
-68.455

@<SCITEGIC>MOL_PROPERTY
W(SA)
SciTegic.value.DoubleValue
1.733

@<SCITEGIC>MOL_PROPERTY
Valence
SciTegic.value.DoubleValue
6.333

@<SCITEGIC>MOL_PROPERTY
Coulomb
SciTegic.value.DoubleValue
1.215

@<SCITEGIC>MOL_PROPERTY
VdW
SciTegic.value.DoubleValue
0.842

@<SCITEGIC>MOL_PROPERTY
VdW6
SciTegic.value.DoubleValue
-3.344

@<SCITEGIC>MOL_PROPERTY
VdW12
SciTegic.value.DoubleValue
4.186

@<SCITEGIC>MOL_PROPERTY
Bond
SciTegic.value.DoubleValue
0.091

@<SCITEGIC>MOL_PROPERTY
Angle
SciTegic.value.DoubleValue
2.713

@<SCITEGIC>MOL_PROPERTY
Pdih
SciTegic.value.DoubleValue
3.529

@<SCITEGIC>MOL_PROPERTY
Idih
SciTegic.value.DoubleValue
0.000

@<SCITEGIC>MOL_PROPERTY
Tether
SciTegic.value.DoubleValue
0.000

@<TRIPOS>MOLECULE
guest-6_confgen4.mol2 : confsearch ligand conformer 122
          13          12           1
SMALL
USER_CHARGES
 
@<TRIPOS>ATOM
       1    C1      18.608969   19.384566   20.271391 C.2        1 MOL1         0.6021
       2    O1      18.527931   18.513990   19.428248 O.co2      1 MOL1        -0.6904
       3    O2      18.311136   20.544592   20.068916 O.co2      1 MOL1        -0.6904
       4    C2      19.130553   19.004343   21.653013 C.3        1 MOL1        -0.2102
       5    H1      18.818535   17.974250   21.864135 H          1 MOL1         0.0687
       6    H2      18.639735   19.648796   22.392470 H          1 MOL1         0.0687
       7    C3      20.668516   19.130412   21.773944 C.3        1 MOL1        -0.1974
       8    H3      21.149069   18.488526   21.022364 H          1 MOL1         0.0689
       9    H4      20.970213   20.163401   21.550927 H          1 MOL1         0.0689
      10    C4      21.163647   18.739305   23.180773 C.3        1 MOL1        -0.2987
      11    H5      22.255306   18.835004   23.246986 H          1 MOL1         0.0700
      12    H6      20.719403   19.387340   23.947750 H          1 MOL1         0.0700
      13    H7      20.899663   17.699613   23.415106 H          1 MOL1         0.0700
@<TRIPOS>BOND
    1     1     2    1
    2     1     3    2
    3     1     4    1
    4     4     5    1
    5     4     6    1
    6     4     7    1
    7     7     8    1
    8     7     9    1
    9     7    10    1
   10    10    11    1
   11    10    12    1
   12    10    13    1
@<TRIPOS>SUBSTRUCTURE
       1 MOL1            1 RESIDUE      1      MOL     
@<SCITEGIC>MOL_PROPERTY
VConf Rank
SciTegic.value.IntegerValue
122

@<SCITEGIC>MOL_PROPERTY
Conf_Id
SciTegic.value.IntegerValue
1

@<SCITEGIC>MOL_PROPERTY
Delta U+W
SciTegic.value.DoubleValue
-1.339

@<SCITEGIC>MOL_PROPERTY
U+W
SciTegic.value.DoubleValue
-59.672

@<SCITEGIC>MOL_PROPERTY
Grad RMS
SciTegic.value.DoubleValue
0.000000

@<SCITEGIC>MOL_PROPERTY
U
SciTegic.value.DoubleValue
7.389

@<SCITEGIC>MOL_PROPERTY
W
SciTegic.value.DoubleValue
-67.061

@<SCITEGIC>MOL_PROPERTY
W(PB)
SciTegic.value.DoubleValue
-68.767

@<SCITEGIC>MOL_PROPERTY
W(SA)
SciTegic.value.DoubleValue
1.707

@<SCITEGIC>MOL_PROPERTY
Valence
SciTegic.value.DoubleValue
5.822

@<SCITEGIC>MOL_PROPERTY
Coulomb
SciTegic.value.DoubleValue
1.255

@<SCITEGIC>MOL_PROPERTY
VdW
SciTegic.value.DoubleValue
0.312

@<SCITEGIC>MOL_PROPERTY
VdW6
SciTegic.value.DoubleValue
-3.061

@<SCITEGIC>MOL_PROPERTY
VdW12
SciTegic.value.DoubleValue
3.372

@<SCITEGIC>MOL_PROPERTY
Bond
SciTegic.value.DoubleValue
0.059

@<SCITEGIC>MOL_PROPERTY
Angle
SciTegic.value.DoubleValue
2.241

@<SCITEGIC>MOL_PROPERTY
Pdih
SciTegic.value.DoubleValue
3.522

@<SCITEGIC>MOL_PROPERTY
Idih
SciTegic.value.DoubleValue
0.000

@<SCITEGIC>MOL_PROPERTY
Tether
SciTegic.value.DoubleValue
0.000

@<TRIPOS>MOLECULE
guest-6_confgen4.mol2 : confsearch ligand conformer 123
          13          12           1
SMALL
USER_CHARGES
 
@<TRIPOS>ATOM
       1    C1      18.718518   19.748040   21.207726 C.2        1 MOL1         0.6021
       2    O1      18.975582   20.610597   20.391630 O.co2      1 MOL1        -0.6904
       3    O2      17.828875   18.933432   21.063316 O.co2      1 MOL1        -0.6904
       4    C2      19.534440   19.710643   22.497532 C.3        1 MOL1        -0.2102
       5    H1      18.990675   19.113916   23.240179 H          1 MOL1         0.0687
       6    H2      19.579301   20.735107   22.885922 H          1 MOL1         0.0687
       7    C3      20.973843   19.162251   22.322245 C.3        1 MOL1        -0.1974
       8    H3      21.495825   19.740585   21.547012 H          1 MOL1         0.0689
       9    H4      21.532016   19.311249   23.256651 H          1 MOL1         0.0689
      10    C4      20.994218   17.663638   21.956630 C.3        1 MOL1        -0.2987
      11    H5      20.481850   17.483214   21.002296 H          1 MOL1         0.0700
      12    H6      22.026550   17.303148   21.859496 H          1 MOL1         0.0700
      13    H7      20.496490   17.064187   22.730140 H          1 MOL1         0.0700
@<TRIPOS>BOND
    1     1     2    1
    2     1     3    2
    3     1     4    1
    4     4     5    1
    5     4     6    1
    6     4     7    1
    7     7     8    1
    8     7     9    1
    9     7    10    1
   10    10    11    1
   11    10    12    1
   12    10    13    1
@<TRIPOS>SUBSTRUCTURE
       1 MOL1            1 RESIDUE      1      MOL     
@<SCITEGIC>MOL_PROPERTY
VConf Rank
SciTegic.value.IntegerValue
123

@<SCITEGIC>MOL_PROPERTY
Conf_Id
SciTegic.value.IntegerValue
4

@<SCITEGIC>MOL_PROPERTY
Delta U+W
SciTegic.value.DoubleValue
0.281

@<SCITEGIC>MOL_PROPERTY
U+W
SciTegic.value.DoubleValue
-58.051

@<SCITEGIC>MOL_PROPERTY
Grad RMS
SciTegic.value.DoubleValue
0.000000

@<SCITEGIC>MOL_PROPERTY
U
SciTegic.value.DoubleValue
9.781

@<SCITEGIC>MOL_PROPERTY
W
SciTegic.value.DoubleValue
-67.832

@<SCITEGIC>MOL_PROPERTY
W(PB)
SciTegic.value.DoubleValue
-69.535

@<SCITEGIC>MOL_PROPERTY
W(SA)
SciTegic.value.DoubleValue
1.703

@<SCITEGIC>MOL_PROPERTY
Valence
SciTegic.value.DoubleValue
6.123

@<SCITEGIC>MOL_PROPERTY
Coulomb
SciTegic.value.DoubleValue
3.449

@<SCITEGIC>MOL_PROPERTY
VdW
SciTegic.value.DoubleValue
0.209

@<SCITEGIC>MOL_PROPERTY
VdW6
SciTegic.value.DoubleValue
-3.762

@<SCITEGIC>MOL_PROPERTY
VdW12
SciTegic.value.DoubleValue
3.972

@<SCITEGIC>MOL_PROPERTY
Bond
SciTegic.value.DoubleValue
0.078

@<SCITEGIC>MOL_PROPERTY
Angle
SciTegic.value.DoubleValue
2.428

@<SCITEGIC>MOL_PROPERTY
Pdih
SciTegic.value.DoubleValue
3.616

@<SCITEGIC>MOL_PROPERTY
Idih
SciTegic.value.DoubleValue
0.002

@<SCITEGIC>MOL_PROPERTY
Tether
SciTegic.value.DoubleValue
0.000

@<TRIPOS>MOLECULE
guest-6_confgen4.mol2 : confsearch ligand conformer 124
          13          12           1
SMALL
USER_CHARGES
 
@<TRIPOS>ATOM
       1    C1      21.727243   18.247479   22.311101 C.2        1 MOL1         0.6021
       2    O1      22.502543   19.117282   22.654989 O.co2      1 MOL1        -0.6904
       3    O2      21.727559   17.126607   22.779870 O.co2      1 MOL1        -0.6904
       4    C2      20.722298   18.566163   21.206904 C.3        1 MOL1        -0.2102
       5    H1      20.764372   17.746369   20.479886 H          1 MOL1         0.0687
       6    H2      21.051649   19.471658   20.682601 H          1 MOL1         0.0687
       7    C3      19.264657   18.738471   21.705832 C.3        1 MOL1        -0.1974
       8    H3      18.594014   18.813351   20.838940 H          1 MOL1         0.0689
       9    H4      18.959098   17.842977   22.264979 H          1 MOL1         0.0689
      10    C4      19.087291   19.990349   22.589727 C.3        1 MOL1        -0.2987
      11    H5      19.366350   20.900108   22.042138 H          1 MOL1         0.0700
      12    H6      18.042108   20.093404   22.909209 H          1 MOL1         0.0700
      13    H7      19.711830   19.928958   23.490842 H          1 MOL1         0.0700
@<TRIPOS>BOND
    1     1     2    1
    2     1     3    2
    3     1     4    1
    4     4     5    1
    5     4     6    1
    6     4     7    1
    7     7     8    1
    8     7     9    1
    9     7    10    1
   10    10    11    1
   11    10    12    1
   12    10    13    1
@<TRIPOS>SUBSTRUCTURE
       1 MOL1            1 RESIDUE      1      MOL     
@<SCITEGIC>MOL_PROPERTY
VConf Rank
SciTegic.value.IntegerValue
124

@<SCITEGIC>MOL_PROPERTY
Conf_Id
SciTegic.value.IntegerValue
36

@<SCITEGIC>MOL_PROPERTY
Delta U+W
SciTegic.value.DoubleValue
0.272

@<SCITEGIC>MOL_PROPERTY
U+W
SciTegic.value.DoubleValue
-58.060

@<SCITEGIC>MOL_PROPERTY
Grad RMS
SciTegic.value.DoubleValue
0.000000

@<SCITEGIC>MOL_PROPERTY
U
SciTegic.value.DoubleValue
9.781

@<SCITEGIC>MOL_PROPERTY
W
SciTegic.value.DoubleValue
-67.841

@<SCITEGIC>MOL_PROPERTY
W(PB)
SciTegic.value.DoubleValue
-69.537

@<SCITEGIC>MOL_PROPERTY
W(SA)
SciTegic.value.DoubleValue
1.696

@<SCITEGIC>MOL_PROPERTY
Valence
SciTegic.value.DoubleValue
6.123

@<SCITEGIC>MOL_PROPERTY
Coulomb
SciTegic.value.DoubleValue
3.449

@<SCITEGIC>MOL_PROPERTY
VdW
SciTegic.value.DoubleValue
0.209

@<SCITEGIC>MOL_PROPERTY
VdW6
SciTegic.value.DoubleValue
-3.762

@<SCITEGIC>MOL_PROPERTY
VdW12
SciTegic.value.DoubleValue
3.972

@<SCITEGIC>MOL_PROPERTY
Bond
SciTegic.value.DoubleValue
0.078

@<SCITEGIC>MOL_PROPERTY
Angle
SciTegic.value.DoubleValue
2.428

@<SCITEGIC>MOL_PROPERTY
Pdih
SciTegic.value.DoubleValue
3.616

@<SCITEGIC>MOL_PROPERTY
Idih
SciTegic.value.DoubleValue
0.002

@<SCITEGIC>MOL_PROPERTY
Tether
SciTegic.value.DoubleValue
0.000

@<TRIPOS>MOLECULE
guest-6_confgen4.mol2 : confsearch ligand conformer 125
          13          12           1
SMALL
USER_CHARGES
 
@<TRIPOS>ATOM
       1    C1      18.582186   20.494206   22.313049 C.2        1 MOL1         0.6021
       2    O1      18.710647   20.526239   23.521271 O.co2      1 MOL1        -0.6904
       3    O2      17.793880   21.196508   21.712931 O.co2      1 MOL1        -0.6904
       4    C2      19.437835   19.535912   21.482253 C.3        1 MOL1        -0.2102
       5    H1      19.989360   20.138970   20.751173 H          1 MOL1         0.0687
       6    H2      18.753694   18.892816   20.915935 H          1 MOL1         0.0687
       7    C3      20.429602   18.659436   22.291045 C.3        1 MOL1        -0.1974
       8    H3      21.112392   19.305773   22.860080 H          1 MOL1         0.0689
       9    H4      19.875211   18.058136   23.025104 H          1 MOL1         0.0689
      10    C4      21.246252   17.728136   21.372569 C.3        1 MOL1        -0.2987
      11    H5      21.834413   18.307310   20.648589 H          1 MOL1         0.0700
      12    H6      21.941640   17.116511   21.962150 H          1 MOL1         0.0700
      13    H7      20.587280   17.049692   20.814901 H          1 MOL1         0.0700
@<TRIPOS>BOND
    1     1     2    1
    2     1     3    2
    3     1     4    1
    4     4     5    1
    5     4     6    1
    6     4     7    1
    7     7     8    1
    8     7     9    1
    9     7    10    1
   10    10    11    1
   11    10    12    1
   12    10    13    1
@<TRIPOS>SUBSTRUCTURE
       1 MOL1            1 RESIDUE      1      MOL     
@<SCITEGIC>MOL_PROPERTY
VConf Rank
SciTegic.value.IntegerValue
125

@<SCITEGIC>MOL_PROPERTY
Conf_Id
SciTegic.value.IntegerValue
0

@<SCITEGIC>MOL_PROPERTY
Delta U+W
SciTegic.value.DoubleValue
0.000

@<SCITEGIC>MOL_PROPERTY
U+W
SciTegic.value.DoubleValue
-58.332

@<SCITEGIC>MOL_PROPERTY
Grad RMS
SciTegic.value.DoubleValue
0.000000

@<SCITEGIC>MOL_PROPERTY
U
SciTegic.value.DoubleValue
8.390

@<SCITEGIC>MOL_PROPERTY
W
SciTegic.value.DoubleValue
-66.722

@<SCITEGIC>MOL_PROPERTY
W(PB)
SciTegic.value.DoubleValue
-68.455

@<SCITEGIC>MOL_PROPERTY
W(SA)
SciTegic.value.DoubleValue
1.733

@<SCITEGIC>MOL_PROPERTY
Valence
SciTegic.value.DoubleValue
6.333

@<SCITEGIC>MOL_PROPERTY
Coulomb
SciTegic.value.DoubleValue
1.215

@<SCITEGIC>MOL_PROPERTY
VdW
SciTegic.value.DoubleValue
0.842

@<SCITEGIC>MOL_PROPERTY
VdW6
SciTegic.value.DoubleValue
-3.344

@<SCITEGIC>MOL_PROPERTY
VdW12
SciTegic.value.DoubleValue
4.186

@<SCITEGIC>MOL_PROPERTY
Bond
SciTegic.value.DoubleValue
0.091

@<SCITEGIC>MOL_PROPERTY
Angle
SciTegic.value.DoubleValue
2.713

@<SCITEGIC>MOL_PROPERTY
Pdih
SciTegic.value.DoubleValue
3.529

@<SCITEGIC>MOL_PROPERTY
Idih
SciTegic.value.DoubleValue
0.000

@<SCITEGIC>MOL_PROPERTY
Tether
SciTegic.value.DoubleValue
0.000

@<TRIPOS>MOLECULE
guest-6_confgen4.mol2 : confsearch ligand conformer 126
          13          12           1
SMALL
USER_CHARGES
 
@<TRIPOS>ATOM
       1    C1      20.617654   18.063364   20.067734 C.2        1 MOL1         0.6021
       2    O1      21.596924   17.352210   20.170942 O.co2      1 MOL1        -0.6904
       3    O2      20.263663   18.570263   19.022218 O.co2      1 MOL1        -0.6904
       4    C2      19.799289   18.350524   21.322053 C.3        1 MOL1        -0.2102
       5    H1      19.850123   17.468611   21.972179 H          1 MOL1         0.0687
       6    H2      18.750631   18.473069   21.024869 H          1 MOL1         0.0687
       7    C3      20.286168   19.604950   22.087047 C.3        1 MOL1        -0.1974
       8    H3      21.339934   19.475095   22.370837 H          1 MOL1         0.0689
       9    H4      20.240113   20.479748   21.423397 H          1 MOL1         0.0689
      10    C4      19.439447   19.867651   23.348531 C.3        1 MOL1        -0.2987
      11    H5      19.799427   20.760091   23.876951 H          1 MOL1         0.0700
      12    H6      18.385503   20.030451   23.087277 H          1 MOL1         0.0700
      13    H7      19.493798   19.018111   24.041988 H          1 MOL1         0.0700
@<TRIPOS>BOND
    1     1     2    1
    2     1     3    2
    3     1     4    1
    4     4     5    1
    5     4     6    1
    6     4     7    1
    7     7     8    1
    8     7     9    1
    9     7    10    1
   10    10    11    1
   11    10    12    1
   12    10    13    1
@<TRIPOS>SUBSTRUCTURE
       1 MOL1            1 RESIDUE      1      MOL     
@<SCITEGIC>MOL_PROPERTY
VConf Rank
SciTegic.value.IntegerValue
126

@<SCITEGIC>MOL_PROPERTY
Conf_Id
SciTegic.value.IntegerValue
1

@<SCITEGIC>MOL_PROPERTY
Delta U+W
SciTegic.value.DoubleValue
-1.339

@<SCITEGIC>MOL_PROPERTY
U+W
SciTegic.value.DoubleValue
-59.672

@<SCITEGIC>MOL_PROPERTY
Grad RMS
SciTegic.value.DoubleValue
0.000000

@<SCITEGIC>MOL_PROPERTY
U
SciTegic.value.DoubleValue
7.389

@<SCITEGIC>MOL_PROPERTY
W
SciTegic.value.DoubleValue
-67.061

@<SCITEGIC>MOL_PROPERTY
W(PB)
SciTegic.value.DoubleValue
-68.767

@<SCITEGIC>MOL_PROPERTY
W(SA)
SciTegic.value.DoubleValue
1.707

@<SCITEGIC>MOL_PROPERTY
Valence
SciTegic.value.DoubleValue
5.822

@<SCITEGIC>MOL_PROPERTY
Coulomb
SciTegic.value.DoubleValue
1.255

@<SCITEGIC>MOL_PROPERTY
VdW
SciTegic.value.DoubleValue
0.312

@<SCITEGIC>MOL_PROPERTY
VdW6
SciTegic.value.DoubleValue
-3.061

@<SCITEGIC>MOL_PROPERTY
VdW12
SciTegic.value.DoubleValue
3.372

@<SCITEGIC>MOL_PROPERTY
Bond
SciTegic.value.DoubleValue
0.059

@<SCITEGIC>MOL_PROPERTY
Angle
SciTegic.value.DoubleValue
2.241

@<SCITEGIC>MOL_PROPERTY
Pdih
SciTegic.value.DoubleValue
3.522

@<SCITEGIC>MOL_PROPERTY
Idih
SciTegic.value.DoubleValue
0.000

@<SCITEGIC>MOL_PROPERTY
Tether
SciTegic.value.DoubleValue
0.000

@<TRIPOS>MOLECULE
guest-6_confgen4.mol2 : confsearch ligand conformer 127
          13          12           1
SMALL
USER_CHARGES
 
@<TRIPOS>ATOM
       1    C1      19.897224   17.208882   22.252597 C.2        1 MOL1         0.6021
       2    O1      20.744751   16.653061   22.922567 O.co2      1 MOL1        -0.6904
       3    O2      18.710927   16.959289   22.332007 O.co2      1 MOL1        -0.6904
       4    C2      20.353233   18.249538   21.232882 C.3        1 MOL1        -0.2102
       5    H1      19.543441   18.412733   20.511153 H          1 MOL1         0.0687
       6    H2      21.191639   17.815429   20.675199 H          1 MOL1         0.0687
       7    C3      20.792576   19.599125   21.856525 C.3        1 MOL1        -0.1974
       8    H3      21.574772   19.419874   22.607499 H          1 MOL1         0.0689
       9    H4      21.242872   20.226873   21.075474 H          1 MOL1         0.0689
      10    C4      19.616836   20.362321   22.500804 C.3        1 MOL1        -0.2987
      11    H5      19.169524   19.781084   23.318058 H          1 MOL1         0.0700
      12    H6      19.957793   21.320275   22.914528 H          1 MOL1         0.0700
      13    H7      18.832597   20.571525   21.761483 H          1 MOL1         0.0700
@<TRIPOS>BOND
    1     1     2    1
    2     1     3    2
    3     1     4    1
    4     4     5    1
    5     4     6    1
    6     4     7    1
    7     7     8    1
    8     7     9    1
    9     7    10    1
   10    10    11    1
   11    10    12    1
   12    10    13    1
@<TRIPOS>SUBSTRUCTURE
       1 MOL1            1 RESIDUE      1      MOL     
@<SCITEGIC>MOL_PROPERTY
VConf Rank
SciTegic.value.IntegerValue
127

@<SCITEGIC>MOL_PROPERTY
Conf_Id
SciTegic.value.IntegerValue
4

@<SCITEGIC>MOL_PROPERTY
Delta U+W
SciTegic.value.DoubleValue
0.281

@<SCITEGIC>MOL_PROPERTY
U+W
SciTegic.value.DoubleValue
-58.051

@<SCITEGIC>MOL_PROPERTY
Grad RMS
SciTegic.value.DoubleValue
0.000000

@<SCITEGIC>MOL_PROPERTY
U
SciTegic.value.DoubleValue
9.781

@<SCITEGIC>MOL_PROPERTY
W
SciTegic.value.DoubleValue
-67.832

@<SCITEGIC>MOL_PROPERTY
W(PB)
SciTegic.value.DoubleValue
-69.535

@<SCITEGIC>MOL_PROPERTY
W(SA)
SciTegic.value.DoubleValue
1.703

@<SCITEGIC>MOL_PROPERTY
Valence
SciTegic.value.DoubleValue
6.123

@<SCITEGIC>MOL_PROPERTY
Coulomb
SciTegic.value.DoubleValue
3.449

@<SCITEGIC>MOL_PROPERTY
VdW
SciTegic.value.DoubleValue
0.209

@<SCITEGIC>MOL_PROPERTY
VdW6
SciTegic.value.DoubleValue
-3.762

@<SCITEGIC>MOL_PROPERTY
VdW12
SciTegic.value.DoubleValue
3.972

@<SCITEGIC>MOL_PROPERTY
Bond
SciTegic.value.DoubleValue
0.078

@<SCITEGIC>MOL_PROPERTY
Angle
SciTegic.value.DoubleValue
2.428

@<SCITEGIC>MOL_PROPERTY
Pdih
SciTegic.value.DoubleValue
3.616

@<SCITEGIC>MOL_PROPERTY
Idih
SciTegic.value.DoubleValue
0.002

@<SCITEGIC>MOL_PROPERTY
Tether
SciTegic.value.DoubleValue
0.000

@<TRIPOS>MOLECULE
guest-6_confgen4.mol2 : confsearch ligand conformer 128
          13          12           1
SMALL
USER_CHARGES
 
@<TRIPOS>ATOM
       1    C1      21.198585   18.976056   23.425294 C.2        1 MOL1         0.6021
       2    O1      21.871253   17.964439   23.432680 O.co2      1 MOL1        -0.6904
       3    O2      21.619533   20.062620   23.769212 O.co2      1 MOL1        -0.6904
       4    C2      19.737213   18.872728   22.995829 C.3        1 MOL1        -0.2102
       5    H1      19.137380   19.399130   23.747818 H          1 MOL1         0.0687
       6    H2      19.434487   17.818943   23.030198 H          1 MOL1         0.0687
       7    C3      19.444108   19.466969   21.594293 C.3        1 MOL1        -0.1974
       8    H3      18.357755   19.487709   21.432184 H          1 MOL1         0.0689
       9    H4      19.788765   20.509942   21.557681 H          1 MOL1         0.0689
      10    C4      20.107508   18.658891   20.459905 C.3        1 MOL1        -0.2987
      11    H5      19.759542   17.617598   20.464492 H          1 MOL1         0.0700
      12    H6      19.864385   19.093897   19.481766 H          1 MOL1         0.0700
      13    H7      21.200495   18.654253   20.565663 H          1 MOL1         0.0700
@<TRIPOS>BOND
    1     1     2    1
    2     1     3    2
    3     1     4    1
    4     4     5    1
    5     4     6    1
    6     4     7    1
    7     7     8    1
    8     7     9    1
    9     7    10    1
   10    10    11    1
   11    10    12    1
   12    10    13    1
@<TRIPOS>SUBSTRUCTURE
       1 MOL1            1 RESIDUE      1      MOL     
@<SCITEGIC>MOL_PROPERTY
VConf Rank
SciTegic.value.IntegerValue
128

@<SCITEGIC>MOL_PROPERTY
Conf_Id
SciTegic.value.IntegerValue
36

@<SCITEGIC>MOL_PROPERTY
Delta U+W
SciTegic.value.DoubleValue
0.272

@<SCITEGIC>MOL_PROPERTY
U+W
SciTegic.value.DoubleValue
-58.060

@<SCITEGIC>MOL_PROPERTY
Grad RMS
SciTegic.value.DoubleValue
0.000000

@<SCITEGIC>MOL_PROPERTY
U
SciTegic.value.DoubleValue
9.781

@<SCITEGIC>MOL_PROPERTY
W
SciTegic.value.DoubleValue
-67.841

@<SCITEGIC>MOL_PROPERTY
W(PB)
SciTegic.value.DoubleValue
-69.537

@<SCITEGIC>MOL_PROPERTY
W(SA)
SciTegic.value.DoubleValue
1.696

@<SCITEGIC>MOL_PROPERTY
Valence
SciTegic.value.DoubleValue
6.123

@<SCITEGIC>MOL_PROPERTY
Coulomb
SciTegic.value.DoubleValue
3.449

@<SCITEGIC>MOL_PROPERTY
VdW
SciTegic.value.DoubleValue
0.209

@<SCITEGIC>MOL_PROPERTY
VdW6
SciTegic.value.DoubleValue
-3.762

@<SCITEGIC>MOL_PROPERTY
VdW12
SciTegic.value.DoubleValue
3.972

@<SCITEGIC>MOL_PROPERTY
Bond
SciTegic.value.DoubleValue
0.078

@<SCITEGIC>MOL_PROPERTY
Angle
SciTegic.value.DoubleValue
2.428

@<SCITEGIC>MOL_PROPERTY
Pdih
SciTegic.value.DoubleValue
3.616

@<SCITEGIC>MOL_PROPERTY
Idih
SciTegic.value.DoubleValue
0.002

@<SCITEGIC>MOL_PROPERTY
Tether
SciTegic.value.DoubleValue
0.000

@<TRIPOS>MOLECULE
guest-6_confgen4.mol2 : confsearch ligand conformer 129
          13          12           1
SMALL
USER_CHARGES
 
@<TRIPOS>ATOM
       1    C1      19.723512   19.740946   19.843419 C.2        1 MOL1         0.6021
       2    O1      20.726762   19.318975   19.302346 O.co2      1 MOL1        -0.6904
       3    O2      18.881817   20.393299   19.259654 O.co2      1 MOL1        -0.6904
       4    C2      19.481323   19.454359   21.326623 C.3        1 MOL1        -0.2102
       5    H1      18.517280   18.938204   21.407515 H          1 MOL1         0.0687
       6    H2      19.370782   20.420487   21.833293 H          1 MOL1         0.0687
       7    C3      20.582211   18.618346   22.030247 C.3        1 MOL1        -0.1974
       8    H3      20.693419   17.651792   21.519208 H          1 MOL1         0.0689
       9    H4      21.547994   19.135864   21.945445 H          1 MOL1         0.0689
      10    C4      20.253203   18.380548   23.517876 C.3        1 MOL1        -0.2987
      11    H5      19.306018   17.836416   23.628704 H          1 MOL1         0.0700
      12    H6      21.042664   17.787988   23.998378 H          1 MOL1         0.0700
      13    H7      20.167405   19.332419   24.058343 H          1 MOL1         0.0700
@<TRIPOS>BOND
    1     1     2    1
    2     1     3    2
    3     1     4    1
    4     4     5    1
    5     4     6    1
    6     4     7    1
    7     7     8    1
    8     7     9    1
    9     7    10    1
   10    10    11    1
   11    10    12    1
   12    10    13    1
@<TRIPOS>SUBSTRUCTURE
       1 MOL1            1 RESIDUE      1      MOL     
@<SCITEGIC>MOL_PROPERTY
VConf Rank
SciTegic.value.IntegerValue
129

@<SCITEGIC>MOL_PROPERTY
Conf_Id
SciTegic.value.IntegerValue
0

@<SCITEGIC>MOL_PROPERTY
Delta U+W
SciTegic.value.DoubleValue
0.000

@<SCITEGIC>MOL_PROPERTY
U+W
SciTegic.value.DoubleValue
-58.332

@<SCITEGIC>MOL_PROPERTY
Grad RMS
SciTegic.value.DoubleValue
0.000000

@<SCITEGIC>MOL_PROPERTY
U
SciTegic.value.DoubleValue
8.390

@<SCITEGIC>MOL_PROPERTY
W
SciTegic.value.DoubleValue
-66.722

@<SCITEGIC>MOL_PROPERTY
W(PB)
SciTegic.value.DoubleValue
-68.455

@<SCITEGIC>MOL_PROPERTY
W(SA)
SciTegic.value.DoubleValue
1.733

@<SCITEGIC>MOL_PROPERTY
Valence
SciTegic.value.DoubleValue
6.333

@<SCITEGIC>MOL_PROPERTY
Coulomb
SciTegic.value.DoubleValue
1.215

@<SCITEGIC>MOL_PROPERTY
VdW
SciTegic.value.DoubleValue
0.842

@<SCITEGIC>MOL_PROPERTY
VdW6
SciTegic.value.DoubleValue
-3.344

@<SCITEGIC>MOL_PROPERTY
VdW12
SciTegic.value.DoubleValue
4.186

@<SCITEGIC>MOL_PROPERTY
Bond
SciTegic.value.DoubleValue
0.091

@<SCITEGIC>MOL_PROPERTY
Angle
SciTegic.value.DoubleValue
2.713

@<SCITEGIC>MOL_PROPERTY
Pdih
SciTegic.value.DoubleValue
3.529

@<SCITEGIC>MOL_PROPERTY
Idih
SciTegic.value.DoubleValue
0.000

@<SCITEGIC>MOL_PROPERTY
Tether
SciTegic.value.DoubleValue
0.000

@<TRIPOS>MOLECULE
guest-6_confgen4.mol2 : confsearch ligand conformer 130
          13          12           1
SMALL
USER_CHARGES
 
@<TRIPOS>ATOM
       1    C1      21.401780   17.764352   20.915819 C.2        1 MOL1         0.6021
       2    O1      21.391299   17.741191   19.701440 O.co2      1 MOL1        -0.6904
       3    O2      21.821798   16.853393   21.600727 O.co2      1 MOL1        -0.6904
       4    C2      20.840034   18.995586   21.618672 C.3        1 MOL1        -0.2102
       5    H1      21.040215   19.870027   20.987563 H          1 MOL1         0.0687
       6    H2      21.395248   19.137905   22.553820 H          1 MOL1         0.0687
       7    C3      19.324002   18.885413   21.910831 C.3        1 MOL1        -0.1974
       8    H3      18.779291   18.733231   20.968519 H          1 MOL1         0.0689
       9    H4      19.134413   18.001058   22.535167 H          1 MOL1         0.0689
      10    C4      18.787350   20.144436   22.620871 C.3        1 MOL1        -0.2987
      11    H5      17.711957   20.047649   22.819426 H          1 MOL1         0.0700
      12    H6      19.296583   20.301064   23.580926 H          1 MOL1         0.0700
      13    H7      18.938704   21.038833   22.002242 H          1 MOL1         0.0700
@<TRIPOS>BOND
    1     1     2    1
    2     1     3    2
    3     1     4    1
    4     4     5    1
    5     4     6    1
    6     4     7    1
    7     7     8    1
    8     7     9    1
    9     7    10    1
   10    10    11    1
   11    10    12    1
   12    10    13    1
@<TRIPOS>SUBSTRUCTURE
       1 MOL1            1 RESIDUE      1      MOL     
@<SCITEGIC>MOL_PROPERTY
VConf Rank
SciTegic.value.IntegerValue
130

@<SCITEGIC>MOL_PROPERTY
Conf_Id
SciTegic.value.IntegerValue
1

@<SCITEGIC>MOL_PROPERTY
Delta U+W
SciTegic.value.DoubleValue
-1.339

@<SCITEGIC>MOL_PROPERTY
U+W
SciTegic.value.DoubleValue
-59.672

@<SCITEGIC>MOL_PROPERTY
Grad RMS
SciTegic.value.DoubleValue
0.000000

@<SCITEGIC>MOL_PROPERTY
U
SciTegic.value.DoubleValue
7.389

@<SCITEGIC>MOL_PROPERTY
W
SciTegic.value.DoubleValue
-67.061

@<SCITEGIC>MOL_PROPERTY
W(PB)
SciTegic.value.DoubleValue
-68.767

@<SCITEGIC>MOL_PROPERTY
W(SA)
SciTegic.value.DoubleValue
1.707

@<SCITEGIC>MOL_PROPERTY
Valence
SciTegic.value.DoubleValue
5.822

@<SCITEGIC>MOL_PROPERTY
Coulomb
SciTegic.value.DoubleValue
1.255

@<SCITEGIC>MOL_PROPERTY
VdW
SciTegic.value.DoubleValue
0.312

@<SCITEGIC>MOL_PROPERTY
VdW6
SciTegic.value.DoubleValue
-3.061

@<SCITEGIC>MOL_PROPERTY
VdW12
SciTegic.value.DoubleValue
3.372

@<SCITEGIC>MOL_PROPERTY
Bond
SciTegic.value.DoubleValue
0.059

@<SCITEGIC>MOL_PROPERTY
Angle
SciTegic.value.DoubleValue
2.241

@<SCITEGIC>MOL_PROPERTY
Pdih
SciTegic.value.DoubleValue
3.522

@<SCITEGIC>MOL_PROPERTY
Idih
SciTegic.value.DoubleValue
0.000

@<SCITEGIC>MOL_PROPERTY
Tether
SciTegic.value.DoubleValue
0.000

@<TRIPOS>MOLECULE
guest-6_confgen4.mol2 : confsearch ligand conformer 131
          13          12           1
SMALL
USER_CHARGES
 
@<TRIPOS>ATOM
       1    C1      20.238089   18.911366   23.784395 C.2        1 MOL1         0.6021
       2    O1      20.773573   17.927169   24.254193 O.co2      1 MOL1        -0.6904
       3    O2      20.402758   20.034333   24.217678 O.co2      1 MOL1        -0.6904
       4    C2      19.280735   18.719443   22.610782 C.3        1 MOL1        -0.2102
       5    H1      18.654408   19.615214   22.518061 H          1 MOL1         0.0687
       6    H2      18.610970   17.890010   22.867382 H          1 MOL1         0.0687
       7    C3      19.982733   18.416903   21.262076 C.3        1 MOL1        -0.1974
       8    H3      20.639115   17.542914   21.377089 H          1 MOL1         0.0689
       9    H4      19.224626   18.146045   20.514558 H          1 MOL1         0.0689
      10    C4      20.799537   19.616752   20.739463 C.3        1 MOL1        -0.2987
      11    H5      21.597538   19.887610   21.443493 H          1 MOL1         0.0700
      12    H6      21.266453   19.376389   19.775456 H          1 MOL1         0.0700
      13    H7      20.157649   20.495861   20.596150 H          1 MOL1         0.0700
@<TRIPOS>BOND
    1     1     2    1
    2     1     3    2
    3     1     4    1
    4     4     5    1
    5     4     6    1
    6     4     7    1
    7     7     8    1
    8     7     9    1
    9     7    10    1
   10    10    11    1
   11    10    12    1
   12    10    13    1
@<TRIPOS>SUBSTRUCTURE
       1 MOL1            1 RESIDUE      1      MOL     
@<SCITEGIC>MOL_PROPERTY
VConf Rank
SciTegic.value.IntegerValue
131

@<SCITEGIC>MOL_PROPERTY
Conf_Id
SciTegic.value.IntegerValue
4

@<SCITEGIC>MOL_PROPERTY
Delta U+W
SciTegic.value.DoubleValue
0.281

@<SCITEGIC>MOL_PROPERTY
U+W
SciTegic.value.DoubleValue
-58.051

@<SCITEGIC>MOL_PROPERTY
Grad RMS
SciTegic.value.DoubleValue
0.000000

@<SCITEGIC>MOL_PROPERTY
U
SciTegic.value.DoubleValue
9.781

@<SCITEGIC>MOL_PROPERTY
W
SciTegic.value.DoubleValue
-67.832

@<SCITEGIC>MOL_PROPERTY
W(PB)
SciTegic.value.DoubleValue
-69.535

@<SCITEGIC>MOL_PROPERTY
W(SA)
SciTegic.value.DoubleValue
1.703

@<SCITEGIC>MOL_PROPERTY
Valence
SciTegic.value.DoubleValue
6.123

@<SCITEGIC>MOL_PROPERTY
Coulomb
SciTegic.value.DoubleValue
3.449

@<SCITEGIC>MOL_PROPERTY
VdW
SciTegic.value.DoubleValue
0.209

@<SCITEGIC>MOL_PROPERTY
VdW6
SciTegic.value.DoubleValue
-3.762

@<SCITEGIC>MOL_PROPERTY
VdW12
SciTegic.value.DoubleValue
3.972

@<SCITEGIC>MOL_PROPERTY
Bond
SciTegic.value.DoubleValue
0.078

@<SCITEGIC>MOL_PROPERTY
Angle
SciTegic.value.DoubleValue
2.428

@<SCITEGIC>MOL_PROPERTY
Pdih
SciTegic.value.DoubleValue
3.616

@<SCITEGIC>MOL_PROPERTY
Idih
SciTegic.value.DoubleValue
0.002

@<SCITEGIC>MOL_PROPERTY
Tether
SciTegic.value.DoubleValue
0.000

@<TRIPOS>MOLECULE
guest-6_confgen4.mol2 : confsearch ligand conformer 132
          13          12           1
SMALL
USER_CHARGES
 
@<TRIPOS>ATOM
       1    C1      20.071269   20.382716   23.095374 C.2        1 MOL1         0.6021
       2    O1      18.969877   20.470801   23.600431 O.co2      1 MOL1        -0.6904
       3    O2      21.101938   20.630266   23.689122 O.co2      1 MOL1        -0.6904
       4    C2      20.165943   19.974315   21.627392 C.3        1 MOL1        -0.2102
       5    H1      20.841002   20.683414   21.133570 H          1 MOL1         0.0687
       6    H2      19.179970   20.100035   21.163346 H          1 MOL1         0.0687
       7    C3      20.681526   18.529682   21.402565 C.3        1 MOL1        -0.1974
       8    H3      20.860843   18.374399   20.329903 H          1 MOL1         0.0689
       9    H4      21.650026   18.402333   21.906263 H          1 MOL1         0.0689
      10    C4      19.687713   17.462955   21.906905 C.3        1 MOL1        -0.2987
      11    H5      18.718751   17.558277   21.399543 H          1 MOL1         0.0700
      12    H6      20.073613   16.453305   21.715116 H          1 MOL1         0.0700
      13    H7      19.518540   17.560678   22.987487 H          1 MOL1         0.0700
@<TRIPOS>BOND
    1     1     2    1
    2     1     3    2
    3     1     4    1
    4     4     5    1
    5     4     6    1
    6     4     7    1
    7     7     8    1
    8     7     9    1
    9     7    10    1
   10    10    11    1
   11    10    12    1
   12    10    13    1
@<TRIPOS>SUBSTRUCTURE
       1 MOL1            1 RESIDUE      1      MOL     
@<SCITEGIC>MOL_PROPERTY
VConf Rank
SciTegic.value.IntegerValue
132

@<SCITEGIC>MOL_PROPERTY
Conf_Id
SciTegic.value.IntegerValue
36

@<SCITEGIC>MOL_PROPERTY
Delta U+W
SciTegic.value.DoubleValue
0.272

@<SCITEGIC>MOL_PROPERTY
U+W
SciTegic.value.DoubleValue
-58.060

@<SCITEGIC>MOL_PROPERTY
Grad RMS
SciTegic.value.DoubleValue
0.000000

@<SCITEGIC>MOL_PROPERTY
U
SciTegic.value.DoubleValue
9.781

@<SCITEGIC>MOL_PROPERTY
W
SciTegic.value.DoubleValue
-67.841

@<SCITEGIC>MOL_PROPERTY
W(PB)
SciTegic.value.DoubleValue
-69.537

@<SCITEGIC>MOL_PROPERTY
W(SA)
SciTegic.value.DoubleValue
1.696

@<SCITEGIC>MOL_PROPERTY
Valence
SciTegic.value.DoubleValue
6.123

@<SCITEGIC>MOL_PROPERTY
Coulomb
SciTegic.value.DoubleValue
3.449

@<SCITEGIC>MOL_PROPERTY
VdW
SciTegic.value.DoubleValue
0.209

@<SCITEGIC>MOL_PROPERTY
VdW6
SciTegic.value.DoubleValue
-3.762

@<SCITEGIC>MOL_PROPERTY
VdW12
SciTegic.value.DoubleValue
3.972

@<SCITEGIC>MOL_PROPERTY
Bond
SciTegic.value.DoubleValue
0.078

@<SCITEGIC>MOL_PROPERTY
Angle
SciTegic.value.DoubleValue
2.428

@<SCITEGIC>MOL_PROPERTY
Pdih
SciTegic.value.DoubleValue
3.616

@<SCITEGIC>MOL_PROPERTY
Idih
SciTegic.value.DoubleValue
0.002

@<SCITEGIC>MOL_PROPERTY
Tether
SciTegic.value.DoubleValue
0.000

@<TRIPOS>MOLECULE
guest-6_confgen4.mol2 : confsearch ligand conformer 133
          13          12           1
SMALL
USER_CHARGES
 
@<TRIPOS>ATOM
       1    C1      18.830792   17.471113   20.933530 C.2        1 MOL1         0.6021
       2    O1      19.457548   17.277214   19.910344 O.co2      1 MOL1        -0.6904
       3    O2      17.817141   16.863657   21.213360 O.co2      1 MOL1        -0.6904
       4    C2      19.314967   18.521879   21.934603 C.3        1 MOL1        -0.2102
       5    H1      19.462152   18.015368   22.895916 H          1 MOL1         0.0687
       6    H2      18.499954   19.242130   22.073634 H          1 MOL1         0.0687
       7    C3      20.612597   19.271938   21.535200 C.3        1 MOL1        -0.1974
       8    H3      21.427326   18.548128   21.393530 H          1 MOL1         0.0689
       9    H4      20.463972   19.776342   20.570191 H          1 MOL1         0.0689
      10    C4      21.022527   20.308048   22.601159 C.3        1 MOL1        -0.2987
      11    H5      21.207408   19.823858   23.569096 H          1 MOL1         0.0700
      12    H6      21.941725   20.828069   22.301310 H          1 MOL1         0.0700
      13    H7      20.236283   21.061901   22.739176 H          1 MOL1         0.0700
@<TRIPOS>BOND
    1     1     2    1
    2     1     3    2
    3     1     4    1
    4     4     5    1
    5     4     6    1
    6     4     7    1
    7     7     8    1
    8     7     9    1
    9     7    10    1
   10    10    11    1
   11    10    12    1
   12    10    13    1
@<TRIPOS>SUBSTRUCTURE
       1 MOL1            1 RESIDUE      1      MOL     
@<SCITEGIC>MOL_PROPERTY
VConf Rank
SciTegic.value.IntegerValue
133

@<SCITEGIC>MOL_PROPERTY
Conf_Id
SciTegic.value.IntegerValue
0

@<SCITEGIC>MOL_PROPERTY
Delta U+W
SciTegic.value.DoubleValue
0.000

@<SCITEGIC>MOL_PROPERTY
U+W
SciTegic.value.DoubleValue
-58.332

@<SCITEGIC>MOL_PROPERTY
Grad RMS
SciTegic.value.DoubleValue
0.000000

@<SCITEGIC>MOL_PROPERTY
U
SciTegic.value.DoubleValue
8.390

@<SCITEGIC>MOL_PROPERTY
W
SciTegic.value.DoubleValue
-66.722

@<SCITEGIC>MOL_PROPERTY
W(PB)
SciTegic.value.DoubleValue
-68.455

@<SCITEGIC>MOL_PROPERTY
W(SA)
SciTegic.value.DoubleValue
1.733

@<SCITEGIC>MOL_PROPERTY
Valence
SciTegic.value.DoubleValue
6.333

@<SCITEGIC>MOL_PROPERTY
Coulomb
SciTegic.value.DoubleValue
1.215

@<SCITEGIC>MOL_PROPERTY
VdW
SciTegic.value.DoubleValue
0.842

@<SCITEGIC>MOL_PROPERTY
VdW6
SciTegic.value.DoubleValue
-3.344

@<SCITEGIC>MOL_PROPERTY
VdW12
SciTegic.value.DoubleValue
4.186

@<SCITEGIC>MOL_PROPERTY
Bond
SciTegic.value.DoubleValue
0.091

@<SCITEGIC>MOL_PROPERTY
Angle
SciTegic.value.DoubleValue
2.713

@<SCITEGIC>MOL_PROPERTY
Pdih
SciTegic.value.DoubleValue
3.529

@<SCITEGIC>MOL_PROPERTY
Idih
SciTegic.value.DoubleValue
0.000

@<SCITEGIC>MOL_PROPERTY
Tether
SciTegic.value.DoubleValue
0.000

@<TRIPOS>MOLECULE
guest-6_confgen4.mol2 : confsearch ligand conformer 134
          13          12           1
SMALL
USER_CHARGES
 
@<TRIPOS>ATOM
       1    C1      18.566137   17.677340   21.071188 C.2        1 MOL1         0.6021
       2    O1      17.591321   17.479032   21.768160 O.co2      1 MOL1        -0.6904
       3    O2      18.973915   16.884289   20.246477 O.co2      1 MOL1        -0.6904
       4    C2      19.330230   18.984247   21.254639 C.3        1 MOL1        -0.2102
       5    H1      18.611780   19.762756   21.538845 H          1 MOL1         0.0687
       6    H2      19.751932   19.272304   20.283965 H          1 MOL1         0.0687
       7    C3      20.453643   18.883601   22.314669 C.3        1 MOL1        -0.1974
       8    H3      20.021112   18.584987   23.279847 H          1 MOL1         0.0689
       9    H4      21.161534   18.094543   22.024667 H          1 MOL1         0.0689
      10    C4      21.206149   20.219594   22.476366 C.3        1 MOL1        -0.2987
      11    H5      21.997961   20.128512   23.231349 H          1 MOL1         0.0700
      12    H6      21.673062   20.524374   21.530504 H          1 MOL1         0.0700
      13    H7      20.523898   21.018557   22.795347 H          1 MOL1         0.0700
@<TRIPOS>BOND
    1     1     2    1
    2     1     3    2
    3     1     4    1
    4     4     5    1
    5     4     6    1
    6     4     7    1
    7     7     8    1
    8     7     9    1
    9     7    10    1
   10    10    11    1
   11    10    12    1
   12    10    13    1
@<TRIPOS>SUBSTRUCTURE
       1 MOL1            1 RESIDUE      1      MOL     
@<SCITEGIC>MOL_PROPERTY
VConf Rank
SciTegic.value.IntegerValue
134

@<SCITEGIC>MOL_PROPERTY
Conf_Id
SciTegic.value.IntegerValue
1

@<SCITEGIC>MOL_PROPERTY
Delta U+W
SciTegic.value.DoubleValue
-1.339

@<SCITEGIC>MOL_PROPERTY
U+W
SciTegic.value.DoubleValue
-59.672

@<SCITEGIC>MOL_PROPERTY
Grad RMS
SciTegic.value.DoubleValue
0.000000

@<SCITEGIC>MOL_PROPERTY
U
SciTegic.value.DoubleValue
7.389

@<SCITEGIC>MOL_PROPERTY
W
SciTegic.value.DoubleValue
-67.061

@<SCITEGIC>MOL_PROPERTY
W(PB)
SciTegic.value.DoubleValue
-68.767

@<SCITEGIC>MOL_PROPERTY
W(SA)
SciTegic.value.DoubleValue
1.707

@<SCITEGIC>MOL_PROPERTY
Valence
SciTegic.value.DoubleValue
5.822

@<SCITEGIC>MOL_PROPERTY
Coulomb
SciTegic.value.DoubleValue
1.255

@<SCITEGIC>MOL_PROPERTY
VdW
SciTegic.value.DoubleValue
0.312

@<SCITEGIC>MOL_PROPERTY
VdW6
SciTegic.value.DoubleValue
-3.061

@<SCITEGIC>MOL_PROPERTY
VdW12
SciTegic.value.DoubleValue
3.372

@<SCITEGIC>MOL_PROPERTY
Bond
SciTegic.value.DoubleValue
0.059

@<SCITEGIC>MOL_PROPERTY
Angle
SciTegic.value.DoubleValue
2.241

@<SCITEGIC>MOL_PROPERTY
Pdih
SciTegic.value.DoubleValue
3.522

@<SCITEGIC>MOL_PROPERTY
Idih
SciTegic.value.DoubleValue
0.000

@<SCITEGIC>MOL_PROPERTY
Tether
SciTegic.value.DoubleValue
0.000

@<TRIPOS>MOLECULE
guest-6_confgen4.mol2 : confsearch ligand conformer 135
          13          12           1
SMALL
USER_CHARGES
 
@<TRIPOS>ATOM
       1    C1      18.702278   17.918904   21.703802 C.2        1 MOL1         0.6021
       2    O1      18.678803   16.868891   22.314555 O.co2      1 MOL1        -0.6904
       3    O2      17.719173   18.608433   21.519517 O.co2      1 MOL1        -0.6904
       4    C2      20.031223   18.375500   21.107015 C.3        1 MOL1        -0.2102
       5    H1      19.830263   19.135531   20.341996 H          1 MOL1         0.0687
       6    H2      20.470577   17.514171   20.589843 H          1 MOL1         0.0687
       7    C3      21.040884   18.921033   22.149281 C.3        1 MOL1        -0.1974
       8    H3      21.203409   18.167862   22.933017 H          1 MOL1         0.0689
       9    H4      22.011329   19.082062   21.660221 H          1 MOL1         0.0689
      10    C4      20.572686   20.244944   22.788013 C.3        1 MOL1        -0.2987
      11    H5      19.624318   20.110394   23.324971 H          1 MOL1         0.0700
      12    H6      21.317829   20.613279   23.505081 H          1 MOL1         0.0700
      13    H7      20.425413   21.019004   22.023465 H          1 MOL1         0.0700
@<TRIPOS>BOND
    1     1     2    1
    2     1     3    2
    3     1     4    1
    4     4     5    1
    5     4     6    1
    6     4     7    1
    7     7     8    1
    8     7     9    1
    9     7    10    1
   10    10    11    1
   11    10    12    1
   12    10    13    1
@<TRIPOS>SUBSTRUCTURE
       1 MOL1            1 RESIDUE      1      MOL     
@<SCITEGIC>MOL_PROPERTY
VConf Rank
SciTegic.value.IntegerValue
135

@<SCITEGIC>MOL_PROPERTY
Conf_Id
SciTegic.value.IntegerValue
4

@<SCITEGIC>MOL_PROPERTY
Delta U+W
SciTegic.value.DoubleValue
0.281

@<SCITEGIC>MOL_PROPERTY
U+W
SciTegic.value.DoubleValue
-58.051

@<SCITEGIC>MOL_PROPERTY
Grad RMS
SciTegic.value.DoubleValue
0.000000

@<SCITEGIC>MOL_PROPERTY
U
SciTegic.value.DoubleValue
9.781

@<SCITEGIC>MOL_PROPERTY
W
SciTegic.value.DoubleValue
-67.832

@<SCITEGIC>MOL_PROPERTY
W(PB)
SciTegic.value.DoubleValue
-69.535

@<SCITEGIC>MOL_PROPERTY
W(SA)
SciTegic.value.DoubleValue
1.703

@<SCITEGIC>MOL_PROPERTY
Valence
SciTegic.value.DoubleValue
6.123

@<SCITEGIC>MOL_PROPERTY
Coulomb
SciTegic.value.DoubleValue
3.449

@<SCITEGIC>MOL_PROPERTY
VdW
SciTegic.value.DoubleValue
0.209

@<SCITEGIC>MOL_PROPERTY
VdW6
SciTegic.value.DoubleValue
-3.762

@<SCITEGIC>MOL_PROPERTY
VdW12
SciTegic.value.DoubleValue
3.972

@<SCITEGIC>MOL_PROPERTY
Bond
SciTegic.value.DoubleValue
0.078

@<SCITEGIC>MOL_PROPERTY
Angle
SciTegic.value.DoubleValue
2.428

@<SCITEGIC>MOL_PROPERTY
Pdih
SciTegic.value.DoubleValue
3.616

@<SCITEGIC>MOL_PROPERTY
Idih
SciTegic.value.DoubleValue
0.002

@<SCITEGIC>MOL_PROPERTY
Tether
SciTegic.value.DoubleValue
0.000

@<TRIPOS>MOLECULE
guest-6_confgen4.mol2 : confsearch ligand conformer 136
          13          12           1
SMALL
USER_CHARGES
 
@<TRIPOS>ATOM
       1    C1      19.379613   18.260908   23.468821 C.2        1 MOL1         0.6021
       2    O1      20.235041   17.698701   24.123093 O.co2      1 MOL1        -0.6904
       3    O2      18.465112   18.890520   23.962152 O.co2      1 MOL1        -0.6904
       4    C2      19.433969   18.141709   21.947782 C.3        1 MOL1        -0.2102
       5    H1      18.428843   17.868500   21.605053 H          1 MOL1         0.0687
       6    H2      20.096070   17.307827   21.684058 H          1 MOL1         0.0687
       7    C3      19.890989   19.435227   21.225784 C.3        1 MOL1        -0.1974
       8    H3      19.756569   19.309534   20.142730 H          1 MOL1         0.0689
       9    H4      19.246899   20.272637   21.528793 H          1 MOL1         0.0689
      10    C4      21.366392   19.782109   21.513513 C.3        1 MOL1        -0.2987
      11    H5      22.030093   18.966665   21.197376 H          1 MOL1         0.0700
      12    H6      21.662823   20.690279   20.972725 H          1 MOL1         0.0700
      13    H7      21.528598   19.958558   22.585139 H          1 MOL1         0.0700
@<TRIPOS>BOND
    1     1     2    1
    2     1     3    2
    3     1     4    1
    4     4     5    1
    5     4     6    1
    6     4     7    1
    7     7     8    1
    8     7     9    1
    9     7    10    1
   10    10    11    1
   11    10    12    1
   12    10    13    1
@<TRIPOS>SUBSTRUCTURE
       1 MOL1            1 RESIDUE      1      MOL     
@<SCITEGIC>MOL_PROPERTY
VConf Rank
SciTegic.value.IntegerValue
136

@<SCITEGIC>MOL_PROPERTY
Conf_Id
SciTegic.value.IntegerValue
36

@<SCITEGIC>MOL_PROPERTY
Delta U+W
SciTegic.value.DoubleValue
0.272

@<SCITEGIC>MOL_PROPERTY
U+W
SciTegic.value.DoubleValue
-58.060

@<SCITEGIC>MOL_PROPERTY
Grad RMS
SciTegic.value.DoubleValue
0.000000

@<SCITEGIC>MOL_PROPERTY
U
SciTegic.value.DoubleValue
9.781

@<SCITEGIC>MOL_PROPERTY
W
SciTegic.value.DoubleValue
-67.841

@<SCITEGIC>MOL_PROPERTY
W(PB)
SciTegic.value.DoubleValue
-69.537

@<SCITEGIC>MOL_PROPERTY
W(SA)
SciTegic.value.DoubleValue
1.696

@<SCITEGIC>MOL_PROPERTY
Valence
SciTegic.value.DoubleValue
6.123

@<SCITEGIC>MOL_PROPERTY
Coulomb
SciTegic.value.DoubleValue
3.449

@<SCITEGIC>MOL_PROPERTY
VdW
SciTegic.value.DoubleValue
0.209

@<SCITEGIC>MOL_PROPERTY
VdW6
SciTegic.value.DoubleValue
-3.762

@<SCITEGIC>MOL_PROPERTY
VdW12
SciTegic.value.DoubleValue
3.972

@<SCITEGIC>MOL_PROPERTY
Bond
SciTegic.value.DoubleValue
0.078

@<SCITEGIC>MOL_PROPERTY
Angle
SciTegic.value.DoubleValue
2.428

@<SCITEGIC>MOL_PROPERTY
Pdih
SciTegic.value.DoubleValue
3.616

@<SCITEGIC>MOL_PROPERTY
Idih
SciTegic.value.DoubleValue
0.002

@<SCITEGIC>MOL_PROPERTY
Tether
SciTegic.value.DoubleValue
0.000

@<TRIPOS>MOLECULE
guest-6_confgen4.mol2 : confsearch ligand conformer 137
          13          12           1
SMALL
USER_CHARGES
 
@<TRIPOS>ATOM
       1    C1      18.600113   17.654836   20.976719 C.2        1 MOL1         0.6021
       2    O1      17.585843   18.314591   21.092080 O.co2      1 MOL1        -0.6904
       3    O2      18.614108   16.543548   20.487189 O.co2      1 MOL1        -0.6904
       4    C2      19.935844   18.222256   21.461012 C.3        1 MOL1        -0.2102
       5    H1      20.621130   18.223274   20.605021 H          1 MOL1         0.0687
       6    H2      20.343395   17.518629   22.196641 H          1 MOL1         0.0687
       7    C3      19.869224   19.643551   22.078618 C.3        1 MOL1        -0.1974
       8    H3      19.457846   20.346540   21.340831 H          1 MOL1         0.0689
       9    H4      19.179705   19.641050   22.934371 H          1 MOL1         0.0689
      10    C4      21.258526   20.131018   22.536929 C.3        1 MOL1        -0.2987
      11    H5      21.958843   20.172135   21.692305 H          1 MOL1         0.0700
      12    H6      21.191331   21.137279   22.970729 H          1 MOL1         0.0700
      13    H7      21.678484   19.460938   23.298605 H          1 MOL1         0.0700
@<TRIPOS>BOND
    1     1     2    1
    2     1     3    2
    3     1     4    1
    4     4     5    1
    5     4     6    1
    6     4     7    1
    7     7     8    1
    8     7     9    1
    9     7    10    1
   10    10    11    1
   11    10    12    1
   12    10    13    1
@<TRIPOS>SUBSTRUCTURE
       1 MOL1            1 RESIDUE      1      MOL     
@<SCITEGIC>MOL_PROPERTY
VConf Rank
SciTegic.value.IntegerValue
137

@<SCITEGIC>MOL_PROPERTY
Conf_Id
SciTegic.value.IntegerValue
0

@<SCITEGIC>MOL_PROPERTY
Delta U+W
SciTegic.value.DoubleValue
0.000

@<SCITEGIC>MOL_PROPERTY
U+W
SciTegic.value.DoubleValue
-58.332

@<SCITEGIC>MOL_PROPERTY
Grad RMS
SciTegic.value.DoubleValue
0.000000

@<SCITEGIC>MOL_PROPERTY
U
SciTegic.value.DoubleValue
8.390

@<SCITEGIC>MOL_PROPERTY
W
SciTegic.value.DoubleValue
-66.722

@<SCITEGIC>MOL_PROPERTY
W(PB)
SciTegic.value.DoubleValue
-68.455

@<SCITEGIC>MOL_PROPERTY
W(SA)
SciTegic.value.DoubleValue
1.733

@<SCITEGIC>MOL_PROPERTY
Valence
SciTegic.value.DoubleValue
6.333

@<SCITEGIC>MOL_PROPERTY
Coulomb
SciTegic.value.DoubleValue
1.215

@<SCITEGIC>MOL_PROPERTY
VdW
SciTegic.value.DoubleValue
0.842

@<SCITEGIC>MOL_PROPERTY
VdW6
SciTegic.value.DoubleValue
-3.344

@<SCITEGIC>MOL_PROPERTY
VdW12
SciTegic.value.DoubleValue
4.186

@<SCITEGIC>MOL_PROPERTY
Bond
SciTegic.value.DoubleValue
0.091

@<SCITEGIC>MOL_PROPERTY
Angle
SciTegic.value.DoubleValue
2.713

@<SCITEGIC>MOL_PROPERTY
Pdih
SciTegic.value.DoubleValue
3.529

@<SCITEGIC>MOL_PROPERTY
Idih
SciTegic.value.DoubleValue
0.000

@<SCITEGIC>MOL_PROPERTY
Tether
SciTegic.value.DoubleValue
0.000

@<TRIPOS>MOLECULE
guest-6_confgen4.mol2 : confsearch ligand conformer 138
          13          12           1
SMALL
USER_CHARGES
 
@<TRIPOS>ATOM
       1    C1      21.709510   20.244777   21.610631 C.2        1 MOL1         0.6021
       2    O1      22.036891   20.891881   22.585023 O.co2      1 MOL1        -0.6904
       3    O2      22.004957   20.549477   20.472550 O.co2      1 MOL1        -0.6904
       4    C2      20.866207   18.992654   21.826331 C.3        1 MOL1        -0.2102
       5    H1      21.152645   18.549607   22.787934 H          1 MOL1         0.0687
       6    H2      21.126330   18.267232   21.045871 H          1 MOL1         0.0687
       7    C3      19.344951   19.277416   21.803146 C.3        1 MOL1        -0.1974
       8    H3      19.097751   20.012296   22.582033 H          1 MOL1         0.0689
       9    H4      19.071418   19.729742   20.839609 H          1 MOL1         0.0689
      10    C4      18.521153   17.992926   22.023900 C.3        1 MOL1        -0.2987
      11    H5      17.446144   18.214799   22.004149 H          1 MOL1         0.0700
      12    H6      18.729103   17.253287   21.239523 H          1 MOL1         0.0700
      13    H7      18.755615   17.538042   22.995324 H          1 MOL1         0.0700
@<TRIPOS>BOND
    1     1     2    1
    2     1     3    2
    3     1     4    1
    4     4     5    1
    5     4     6    1
    6     4     7    1
    7     7     8    1
    8     7     9    1
    9     7    10    1
   10    10    11    1
   11    10    12    1
   12    10    13    1
@<TRIPOS>SUBSTRUCTURE
       1 MOL1            1 RESIDUE      1      MOL     
@<SCITEGIC>MOL_PROPERTY
VConf Rank
SciTegic.value.IntegerValue
138

@<SCITEGIC>MOL_PROPERTY
Conf_Id
SciTegic.value.IntegerValue
1

@<SCITEGIC>MOL_PROPERTY
Delta U+W
SciTegic.value.DoubleValue
-1.339

@<SCITEGIC>MOL_PROPERTY
U+W
SciTegic.value.DoubleValue
-59.672

@<SCITEGIC>MOL_PROPERTY
Grad RMS
SciTegic.value.DoubleValue
0.000000

@<SCITEGIC>MOL_PROPERTY
U
SciTegic.value.DoubleValue
7.389

@<SCITEGIC>MOL_PROPERTY
W
SciTegic.value.DoubleValue
-67.061

@<SCITEGIC>MOL_PROPERTY
W(PB)
SciTegic.value.DoubleValue
-68.767

@<SCITEGIC>MOL_PROPERTY
W(SA)
SciTegic.value.DoubleValue
1.707

@<SCITEGIC>MOL_PROPERTY
Valence
SciTegic.value.DoubleValue
5.822

@<SCITEGIC>MOL_PROPERTY
Coulomb
SciTegic.value.DoubleValue
1.255

@<SCITEGIC>MOL_PROPERTY
VdW
SciTegic.value.DoubleValue
0.312

@<SCITEGIC>MOL_PROPERTY
VdW6
SciTegic.value.DoubleValue
-3.061

@<SCITEGIC>MOL_PROPERTY
VdW12
SciTegic.value.DoubleValue
3.372

@<SCITEGIC>MOL_PROPERTY
Bond
SciTegic.value.DoubleValue
0.059

@<SCITEGIC>MOL_PROPERTY
Angle
SciTegic.value.DoubleValue
2.241

@<SCITEGIC>MOL_PROPERTY
Pdih
SciTegic.value.DoubleValue
3.522

@<SCITEGIC>MOL_PROPERTY
Idih
SciTegic.value.DoubleValue
0.000

@<SCITEGIC>MOL_PROPERTY
Tether
SciTegic.value.DoubleValue
0.000

@<TRIPOS>MOLECULE
guest-6_confgen4.mol2 : confsearch ligand conformer 139
          13          12           1
SMALL
USER_CHARGES
 
@<TRIPOS>ATOM
       1    C1      18.810790   18.871822   23.210970 C.2        1 MOL1         0.6021
       2    O1      17.868276   19.618377   23.036557 O.co2      1 MOL1        -0.6904
       3    O2      18.694601   17.725379   23.595775 O.co2      1 MOL1        -0.6904
       4    C2      20.215958   19.416714   22.967408 C.3        1 MOL1        -0.2102
       5    H1      20.939341   18.757078   23.462266 H          1 MOL1         0.0687
       6    H2      20.280670   20.389975   23.468369 H          1 MOL1         0.0687
       7    C3      20.581706   19.582287   21.470026 C.3        1 MOL1        -0.1974
       8    H3      19.828269   20.210760   20.974771 H          1 MOL1         0.0689
       9    H4      21.539059   20.115180   21.390184 H          1 MOL1         0.0689
      10    C4      20.695287   18.229639   20.736971 C.3        1 MOL1        -0.2987
      11    H5      19.740511   17.687639   20.758562 H          1 MOL1         0.0700
      12    H6      20.974170   18.381363   19.686114 H          1 MOL1         0.0700
      13    H7      21.459546   17.593794   21.202804 H          1 MOL1         0.0700
@<TRIPOS>BOND
    1     1     2    1
    2     1     3    2
    3     1     4    1
    4     4     5    1
    5     4     6    1
    6     4     7    1
    7     7     8    1
    8     7     9    1
    9     7    10    1
   10    10    11    1
   11    10    12    1
   12    10    13    1
@<TRIPOS>SUBSTRUCTURE
       1 MOL1            1 RESIDUE      1      MOL     
@<SCITEGIC>MOL_PROPERTY
VConf Rank
SciTegic.value.IntegerValue
139

@<SCITEGIC>MOL_PROPERTY
Conf_Id
SciTegic.value.IntegerValue
4

@<SCITEGIC>MOL_PROPERTY
Delta U+W
SciTegic.value.DoubleValue
0.281

@<SCITEGIC>MOL_PROPERTY
U+W
SciTegic.value.DoubleValue
-58.051

@<SCITEGIC>MOL_PROPERTY
Grad RMS
SciTegic.value.DoubleValue
0.000000

@<SCITEGIC>MOL_PROPERTY
U
SciTegic.value.DoubleValue
9.781

@<SCITEGIC>MOL_PROPERTY
W
SciTegic.value.DoubleValue
-67.832

@<SCITEGIC>MOL_PROPERTY
W(PB)
SciTegic.value.DoubleValue
-69.535

@<SCITEGIC>MOL_PROPERTY
W(SA)
SciTegic.value.DoubleValue
1.703

@<SCITEGIC>MOL_PROPERTY
Valence
SciTegic.value.DoubleValue
6.123

@<SCITEGIC>MOL_PROPERTY
Coulomb
SciTegic.value.DoubleValue
3.449

@<SCITEGIC>MOL_PROPERTY
VdW
SciTegic.value.DoubleValue
0.209

@<SCITEGIC>MOL_PROPERTY
VdW6
SciTegic.value.DoubleValue
-3.762

@<SCITEGIC>MOL_PROPERTY
VdW12
SciTegic.value.DoubleValue
3.972

@<SCITEGIC>MOL_PROPERTY
Bond
SciTegic.value.DoubleValue
0.078

@<SCITEGIC>MOL_PROPERTY
Angle
SciTegic.value.DoubleValue
2.428

@<SCITEGIC>MOL_PROPERTY
Pdih
SciTegic.value.DoubleValue
3.616

@<SCITEGIC>MOL_PROPERTY
Idih
SciTegic.value.DoubleValue
0.002

@<SCITEGIC>MOL_PROPERTY
Tether
SciTegic.value.DoubleValue
0.000

@<TRIPOS>MOLECULE
guest-6_confgen4.mol2 : confsearch ligand conformer 140
          13          12           1
SMALL
USER_CHARGES
 
@<TRIPOS>ATOM
       1    C1      21.504968   19.925540   22.602774 C.2        1 MOL1         0.6021
       2    O1      21.155628   20.589172   23.558525 O.co2      1 MOL1        -0.6904
       3    O2      22.595460   19.396736   22.517390 O.co2      1 MOL1        -0.6904
       4    C2      20.538332   19.776359   21.430560 C.3        1 MOL1        -0.2102
       5    H1      21.100536   19.990541   20.513805 H          1 MOL1         0.0687
       6    H2      19.762941   20.547772   21.514093 H          1 MOL1         0.0687
       7    C3      19.886620   18.374087   21.319928 C.3        1 MOL1        -0.1974
       8    H3      19.331184   18.308944   20.374350 H          1 MOL1         0.0689
       9    H4      20.671622   17.605985   21.278547 H          1 MOL1         0.0689
      10    C4      18.926499   18.075316   22.489899 C.3        1 MOL1        -0.2987
      11    H5      18.120508   18.819392   22.535935 H          1 MOL1         0.0700
      12    H6      18.468052   17.084986   22.370866 H          1 MOL1         0.0700
      13    H7      19.458660   18.088343   23.450347 H          1 MOL1         0.0700
@<TRIPOS>BOND
    1     1     2    1
    2     1     3    2
    3     1     4    1
    4     4     5    1
    5     4     6    1
    6     4     7    1
    7     7     8    1
    8     7     9    1
    9     7    10    1
   10    10    11    1
   11    10    12    1
   12    10    13    1
@<TRIPOS>SUBSTRUCTURE
       1 MOL1            1 RESIDUE      1      MOL     
@<SCITEGIC>MOL_PROPERTY
VConf Rank
SciTegic.value.IntegerValue
140

@<SCITEGIC>MOL_PROPERTY
Conf_Id
SciTegic.value.IntegerValue
36

@<SCITEGIC>MOL_PROPERTY
Delta U+W
SciTegic.value.DoubleValue
0.272

@<SCITEGIC>MOL_PROPERTY
U+W
SciTegic.value.DoubleValue
-58.060

@<SCITEGIC>MOL_PROPERTY
Grad RMS
SciTegic.value.DoubleValue
0.000000

@<SCITEGIC>MOL_PROPERTY
U
SciTegic.value.DoubleValue
9.781

@<SCITEGIC>MOL_PROPERTY
W
SciTegic.value.DoubleValue
-67.841

@<SCITEGIC>MOL_PROPERTY
W(PB)
SciTegic.value.DoubleValue
-69.537

@<SCITEGIC>MOL_PROPERTY
W(SA)
SciTegic.value.DoubleValue
1.696

@<SCITEGIC>MOL_PROPERTY
Valence
SciTegic.value.DoubleValue
6.123

@<SCITEGIC>MOL_PROPERTY
Coulomb
SciTegic.value.DoubleValue
3.449

@<SCITEGIC>MOL_PROPERTY
VdW
SciTegic.value.DoubleValue
0.209

@<SCITEGIC>MOL_PROPERTY
VdW6
SciTegic.value.DoubleValue
-3.762

@<SCITEGIC>MOL_PROPERTY
VdW12
SciTegic.value.DoubleValue
3.972

@<SCITEGIC>MOL_PROPERTY
Bond
SciTegic.value.DoubleValue
0.078

@<SCITEGIC>MOL_PROPERTY
Angle
SciTegic.value.DoubleValue
2.428

@<SCITEGIC>MOL_PROPERTY
Pdih
SciTegic.value.DoubleValue
3.616

@<SCITEGIC>MOL_PROPERTY
Idih
SciTegic.value.DoubleValue
0.002

@<SCITEGIC>MOL_PROPERTY
Tether
SciTegic.value.DoubleValue
0.000

@<TRIPOS>MOLECULE
guest-6_confgen4.mol2 : confsearch ligand conformer 141
          13          12           1
SMALL
USER_CHARGES
 
@<TRIPOS>ATOM
       1    C1      20.179325   16.874186   21.792049 C.2        1 MOL1         0.6021
       2    O1      19.003824   16.573412   21.720897 O.co2      1 MOL1        -0.6904
       3    O2      21.071589   16.051149   21.827678 O.co2      1 MOL1        -0.6904
       4    C2      20.585704   18.348346   21.840938 C.3        1 MOL1        -0.2102
       5    H1      21.265120   18.529074   20.999469 H          1 MOL1         0.0687
       6    H2      21.166215   18.497986   22.759062 H          1 MOL1         0.0687
       7    C3      19.413253   19.362749   21.792951 C.3        1 MOL1        -0.1974
       8    H3      18.831089   19.209184   20.873572 H          1 MOL1         0.0689
       9    H4      18.732014   19.178010   22.635293 H          1 MOL1         0.0689
      10    C4      19.917551   20.818972   21.847087 C.3        1 MOL1        -0.2987
      11    H5      20.576963   21.038288   20.997028 H          1 MOL1         0.0700
      12    H6      19.074605   21.521452   21.812146 H          1 MOL1         0.0700
      13    H7      20.477139   21.006837   22.772880 H          1 MOL1         0.0700
@<TRIPOS>BOND
    1     1     2    1
    2     1     3    2
    3     1     4    1
    4     4     5    1
    5     4     6    1
    6     4     7    1
    7     7     8    1
    8     7     9    1
    9     7    10    1
   10    10    11    1
   11    10    12    1
   12    10    13    1
@<TRIPOS>SUBSTRUCTURE
       1 MOL1            1 RESIDUE      1      MOL     
@<SCITEGIC>MOL_PROPERTY
VConf Rank
SciTegic.value.IntegerValue
141

@<SCITEGIC>MOL_PROPERTY
Conf_Id
SciTegic.value.IntegerValue
0

@<SCITEGIC>MOL_PROPERTY
Delta U+W
SciTegic.value.DoubleValue
0.000

@<SCITEGIC>MOL_PROPERTY
U+W
SciTegic.value.DoubleValue
-58.332

@<SCITEGIC>MOL_PROPERTY
Grad RMS
SciTegic.value.DoubleValue
0.000000

@<SCITEGIC>MOL_PROPERTY
U
SciTegic.value.DoubleValue
8.390

@<SCITEGIC>MOL_PROPERTY
W
SciTegic.value.DoubleValue
-66.722

@<SCITEGIC>MOL_PROPERTY
W(PB)
SciTegic.value.DoubleValue
-68.455

@<SCITEGIC>MOL_PROPERTY
W(SA)
SciTegic.value.DoubleValue
1.733

@<SCITEGIC>MOL_PROPERTY
Valence
SciTegic.value.DoubleValue
6.333

@<SCITEGIC>MOL_PROPERTY
Coulomb
SciTegic.value.DoubleValue
1.215

@<SCITEGIC>MOL_PROPERTY
VdW
SciTegic.value.DoubleValue
0.842

@<SCITEGIC>MOL_PROPERTY
VdW6
SciTegic.value.DoubleValue
-3.344

@<SCITEGIC>MOL_PROPERTY
VdW12
SciTegic.value.DoubleValue
4.186

@<SCITEGIC>MOL_PROPERTY
Bond
SciTegic.value.DoubleValue
0.091

@<SCITEGIC>MOL_PROPERTY
Angle
SciTegic.value.DoubleValue
2.713

@<SCITEGIC>MOL_PROPERTY
Pdih
SciTegic.value.DoubleValue
3.529

@<SCITEGIC>MOL_PROPERTY
Idih
SciTegic.value.DoubleValue
0.000

@<SCITEGIC>MOL_PROPERTY
Tether
SciTegic.value.DoubleValue
0.000

@<TRIPOS>MOLECULE
guest-6_confgen4.mol2 : confsearch ligand conformer 142
          13          12           1
SMALL
USER_CHARGES
 
@<TRIPOS>ATOM
       1    C1      20.982022   20.135527   20.324076 C.2        1 MOL1         0.6021
       2    O1      22.156538   20.373299   20.522411 O.co2      1 MOL1        -0.6904
       3    O2      20.275186   20.805058   19.597803 O.co2      1 MOL1        -0.6904
       4    C2      20.356476   18.943309   21.040182 C.3        1 MOL1        -0.2102
       5    H1      21.126965   18.171130   21.154666 H          1 MOL1         0.0687
       6    H2      19.575501   18.527173   20.392165 H          1 MOL1         0.0687
       7    C3      19.762317   19.311758   22.421149 C.3        1 MOL1        -0.1974
       8    H3      20.550963   19.736472   23.057919 H          1 MOL1         0.0689
       9    H4      18.999131   20.092477   22.295258 H          1 MOL1         0.0689
      10    C4      19.138442   18.086339   23.118587 C.3        1 MOL1        -0.2987
      11    H5      18.722893   18.367159   24.095173 H          1 MOL1         0.0700
      12    H6      18.326248   17.661572   22.514047 H          1 MOL1         0.0700
      13    H7      19.889993   17.302865   23.282587 H          1 MOL1         0.0700
@<TRIPOS>BOND
    1     1     2    1
    2     1     3    2
    3     1     4    1
    4     4     5    1
    5     4     6    1
    6     4     7    1
    7     7     8    1
    8     7     9    1
    9     7    10    1
   10    10    11    1
   11    10    12    1
   12    10    13    1
@<TRIPOS>SUBSTRUCTURE
       1 MOL1            1 RESIDUE      1      MOL     
@<SCITEGIC>MOL_PROPERTY
VConf Rank
SciTegic.value.IntegerValue
142

@<SCITEGIC>MOL_PROPERTY
Conf_Id
SciTegic.value.IntegerValue
1

@<SCITEGIC>MOL_PROPERTY
Delta U+W
SciTegic.value.DoubleValue
-1.339

@<SCITEGIC>MOL_PROPERTY
U+W
SciTegic.value.DoubleValue
-59.672

@<SCITEGIC>MOL_PROPERTY
Grad RMS
SciTegic.value.DoubleValue
0.000000

@<SCITEGIC>MOL_PROPERTY
U
SciTegic.value.DoubleValue
7.389

@<SCITEGIC>MOL_PROPERTY
W
SciTegic.value.DoubleValue
-67.061

@<SCITEGIC>MOL_PROPERTY
W(PB)
SciTegic.value.DoubleValue
-68.767

@<SCITEGIC>MOL_PROPERTY
W(SA)
SciTegic.value.DoubleValue
1.707

@<SCITEGIC>MOL_PROPERTY
Valence
SciTegic.value.DoubleValue
5.822

@<SCITEGIC>MOL_PROPERTY
Coulomb
SciTegic.value.DoubleValue
1.255

@<SCITEGIC>MOL_PROPERTY
VdW
SciTegic.value.DoubleValue
0.312

@<SCITEGIC>MOL_PROPERTY
VdW6
SciTegic.value.DoubleValue
-3.061

@<SCITEGIC>MOL_PROPERTY
VdW12
SciTegic.value.DoubleValue
3.372

@<SCITEGIC>MOL_PROPERTY
Bond
SciTegic.value.DoubleValue
0.059

@<SCITEGIC>MOL_PROPERTY
Angle
SciTegic.value.DoubleValue
2.241

@<SCITEGIC>MOL_PROPERTY
Pdih
SciTegic.value.DoubleValue
3.522

@<SCITEGIC>MOL_PROPERTY
Idih
SciTegic.value.DoubleValue
0.000

@<SCITEGIC>MOL_PROPERTY
Tether
SciTegic.value.DoubleValue
0.000

@<TRIPOS>MOLECULE
guest-6_confgen4.mol2 : confsearch ligand conformer 143
          13          12           1
SMALL
USER_CHARGES
 
@<TRIPOS>ATOM
       1    C1      19.616116   20.532060   22.707117 C.2        1 MOL1         0.6021
       2    O1      19.283584   21.393237   21.917247 O.co2      1 MOL1        -0.6904
       3    O2      19.045964   20.334370   23.761513 O.co2      1 MOL1        -0.6904
       4    C2      20.836629   19.678801   22.370925 C.3        1 MOL1        -0.2102
       5    H1      21.189927   19.193608   23.289106 H          1 MOL1         0.0687
       6    H2      21.632392   20.359845   22.046386 H          1 MOL1         0.0687
       7    C3      20.585079   18.617613   21.269135 C.3        1 MOL1        -0.1974
       8    H3      20.192463   19.109156   20.367935 H          1 MOL1         0.0689
       9    H4      21.542215   18.158367   20.986542 H          1 MOL1         0.0689
      10    C4      19.611030   17.511896   21.725802 C.3        1 MOL1        -0.2987
      11    H5      18.626985   17.930888   21.974655 H          1 MOL1         0.0700
      12    H6      19.470429   16.767791   20.931046 H          1 MOL1         0.0700
      13    H7      19.995371   16.992375   22.613367 H          1 MOL1         0.0700
@<TRIPOS>BOND
    1     1     2    1
    2     1     3    2
    3     1     4    1
    4     4     5    1
    5     4     6    1
    6     4     7    1
    7     7     8    1
    8     7     9    1
    9     7    10    1
   10    10    11    1
   11    10    12    1
   12    10    13    1
@<TRIPOS>SUBSTRUCTURE
       1 MOL1            1 RESIDUE      1      MOL     
@<SCITEGIC>MOL_PROPERTY
VConf Rank
SciTegic.value.IntegerValue
143

@<SCITEGIC>MOL_PROPERTY
Conf_Id
SciTegic.value.IntegerValue
4

@<SCITEGIC>MOL_PROPERTY
Delta U+W
SciTegic.value.DoubleValue
0.281

@<SCITEGIC>MOL_PROPERTY
U+W
SciTegic.value.DoubleValue
-58.051

@<SCITEGIC>MOL_PROPERTY
Grad RMS
SciTegic.value.DoubleValue
0.000000

@<SCITEGIC>MOL_PROPERTY
U
SciTegic.value.DoubleValue
9.781

@<SCITEGIC>MOL_PROPERTY
W
SciTegic.value.DoubleValue
-67.832

@<SCITEGIC>MOL_PROPERTY
W(PB)
SciTegic.value.DoubleValue
-69.535

@<SCITEGIC>MOL_PROPERTY
W(SA)
SciTegic.value.DoubleValue
1.703

@<SCITEGIC>MOL_PROPERTY
Valence
SciTegic.value.DoubleValue
6.123

@<SCITEGIC>MOL_PROPERTY
Coulomb
SciTegic.value.DoubleValue
3.449

@<SCITEGIC>MOL_PROPERTY
VdW
SciTegic.value.DoubleValue
0.209

@<SCITEGIC>MOL_PROPERTY
VdW6
SciTegic.value.DoubleValue
-3.762

@<SCITEGIC>MOL_PROPERTY
VdW12
SciTegic.value.DoubleValue
3.972

@<SCITEGIC>MOL_PROPERTY
Bond
SciTegic.value.DoubleValue
0.078

@<SCITEGIC>MOL_PROPERTY
Angle
SciTegic.value.DoubleValue
2.428

@<SCITEGIC>MOL_PROPERTY
Pdih
SciTegic.value.DoubleValue
3.616

@<SCITEGIC>MOL_PROPERTY
Idih
SciTegic.value.DoubleValue
0.002

@<SCITEGIC>MOL_PROPERTY
Tether
SciTegic.value.DoubleValue
0.000

@<TRIPOS>MOLECULE
guest-6_confgen4.mol2 : confsearch ligand conformer 144
          13          12           1
SMALL
USER_CHARGES
 
@<TRIPOS>ATOM
       1    C1      19.088235   17.673180   22.686648 C.2        1 MOL1         0.6021
       2    O1      18.003969   18.131241   22.987402 O.co2      1 MOL1        -0.6904
       3    O2      19.238912   16.563922   22.214482 O.co2      1 MOL1        -0.6904
       4    C2      20.331501   18.519805   22.947873 C.3        1 MOL1        -0.2102
       5    H1      21.061186   17.880310   23.458749 H          1 MOL1         0.0687
       6    H2      20.069231   19.322720   23.647751 H          1 MOL1         0.0687
       7    C3      20.974068   19.115206   21.668833 C.3        1 MOL1        -0.1974
       8    H3      21.936047   19.576619   21.930685 H          1 MOL1         0.0689
       9    H4      21.194819   18.306808   20.957719 H          1 MOL1         0.0689
      10    C4      20.075500   20.171995   20.993779 C.3        1 MOL1        -0.2987
      11    H5      19.860601   21.000987   21.680789 H          1 MOL1         0.0700
      12    H6      20.567396   20.586820   20.104366 H          1 MOL1         0.0700
      13    H7      19.119545   19.733561   20.677942 H          1 MOL1         0.0700
@<TRIPOS>BOND
    1     1     2    1
    2     1     3    2
    3     1     4    1
    4     4     5    1
    5     4     6    1
    6     4     7    1
    7     7     8    1
    8     7     9    1
    9     7    10    1
   10    10    11    1
   11    10    12    1
   12    10    13    1
@<TRIPOS>SUBSTRUCTURE
       1 MOL1            1 RESIDUE      1      MOL     
@<SCITEGIC>MOL_PROPERTY
VConf Rank
SciTegic.value.IntegerValue
144

@<SCITEGIC>MOL_PROPERTY
Conf_Id
SciTegic.value.IntegerValue
36

@<SCITEGIC>MOL_PROPERTY
Delta U+W
SciTegic.value.DoubleValue
0.272

@<SCITEGIC>MOL_PROPERTY
U+W
SciTegic.value.DoubleValue
-58.060

@<SCITEGIC>MOL_PROPERTY
Grad RMS
SciTegic.value.DoubleValue
0.000000

@<SCITEGIC>MOL_PROPERTY
U
SciTegic.value.DoubleValue
9.781

@<SCITEGIC>MOL_PROPERTY
W
SciTegic.value.DoubleValue
-67.841

@<SCITEGIC>MOL_PROPERTY
W(PB)
SciTegic.value.DoubleValue
-69.537

@<SCITEGIC>MOL_PROPERTY
W(SA)
SciTegic.value.DoubleValue
1.696

@<SCITEGIC>MOL_PROPERTY
Valence
SciTegic.value.DoubleValue
6.123

@<SCITEGIC>MOL_PROPERTY
Coulomb
SciTegic.value.DoubleValue
3.449

@<SCITEGIC>MOL_PROPERTY
VdW
SciTegic.value.DoubleValue
0.209

@<SCITEGIC>MOL_PROPERTY
VdW6
SciTegic.value.DoubleValue
-3.762

@<SCITEGIC>MOL_PROPERTY
VdW12
SciTegic.value.DoubleValue
3.972

@<SCITEGIC>MOL_PROPERTY
Bond
SciTegic.value.DoubleValue
0.078

@<SCITEGIC>MOL_PROPERTY
Angle
SciTegic.value.DoubleValue
2.428

@<SCITEGIC>MOL_PROPERTY
Pdih
SciTegic.value.DoubleValue
3.616

@<SCITEGIC>MOL_PROPERTY
Idih
SciTegic.value.DoubleValue
0.002

@<SCITEGIC>MOL_PROPERTY
Tether
SciTegic.value.DoubleValue
0.000

@<TRIPOS>MOLECULE
guest-6_confgen4.mol2 : confsearch ligand conformer 145
          13          12           1
SMALL
USER_CHARGES
 
@<TRIPOS>ATOM
       1    C1      20.352538   19.017426   23.927627 C.2        1 MOL1         0.6021
       2    O1      19.964474   17.901850   24.214377 O.co2      1 MOL1        -0.6904
       3    O2      20.781897   19.800232   24.750830 O.co2      1 MOL1        -0.6904
       4    C2      20.310709   19.486603   22.472015 C.3        1 MOL1        -0.2102
       5    H1      21.331651   19.769814   22.189514 H          1 MOL1         0.0687
       6    H2      19.704448   20.399683   22.439293 H          1 MOL1         0.0687
       7    C3      19.755122   18.453903   21.456727 C.3        1 MOL1        -0.1974
       8    H3      20.362275   17.538594   21.493184 H          1 MOL1         0.0689
       9    H4      18.733088   18.169176   21.743313 H          1 MOL1         0.0689
      10    C4      19.751067   19.013421   20.019801 C.3        1 MOL1        -0.2987
      11    H5      20.767159   19.276966   19.697893 H          1 MOL1         0.0700
      12    H6      19.355037   18.269329   19.316420 H          1 MOL1         0.0700
      13    H7      19.124927   19.912647   19.950056 H          1 MOL1         0.0700
@<TRIPOS>BOND
    1     1     2    1
    2     1     3    2
    3     1     4    1
    4     4     5    1
    5     4     6    1
    6     4     7    1
    7     7     8    1
    8     7     9    1
    9     7    10    1
   10    10    11    1
   11    10    12    1
   12    10    13    1
@<TRIPOS>SUBSTRUCTURE
       1 MOL1            1 RESIDUE      1      MOL     
@<SCITEGIC>MOL_PROPERTY
VConf Rank
SciTegic.value.IntegerValue
145

@<SCITEGIC>MOL_PROPERTY
Conf_Id
SciTegic.value.IntegerValue
0

@<SCITEGIC>MOL_PROPERTY
Delta U+W
SciTegic.value.DoubleValue
0.000

@<SCITEGIC>MOL_PROPERTY
U+W
SciTegic.value.DoubleValue
-58.332

@<SCITEGIC>MOL_PROPERTY
Grad RMS
SciTegic.value.DoubleValue
0.000000

@<SCITEGIC>MOL_PROPERTY
U
SciTegic.value.DoubleValue
8.390

@<SCITEGIC>MOL_PROPERTY
W
SciTegic.value.DoubleValue
-66.722

@<SCITEGIC>MOL_PROPERTY
W(PB)
SciTegic.value.DoubleValue
-68.455

@<SCITEGIC>MOL_PROPERTY
W(SA)
SciTegic.value.DoubleValue
1.733

@<SCITEGIC>MOL_PROPERTY
Valence
SciTegic.value.DoubleValue
6.333

@<SCITEGIC>MOL_PROPERTY
Coulomb
SciTegic.value.DoubleValue
1.215

@<SCITEGIC>MOL_PROPERTY
VdW
SciTegic.value.DoubleValue
0.842

@<SCITEGIC>MOL_PROPERTY
VdW6
SciTegic.value.DoubleValue
-3.344

@<SCITEGIC>MOL_PROPERTY
VdW12
SciTegic.value.DoubleValue
4.186

@<SCITEGIC>MOL_PROPERTY
Bond
SciTegic.value.DoubleValue
0.091

@<SCITEGIC>MOL_PROPERTY
Angle
SciTegic.value.DoubleValue
2.713

@<SCITEGIC>MOL_PROPERTY
Pdih
SciTegic.value.DoubleValue
3.529

@<SCITEGIC>MOL_PROPERTY
Idih
SciTegic.value.DoubleValue
0.000

@<SCITEGIC>MOL_PROPERTY
Tether
SciTegic.value.DoubleValue
0.000

@<TRIPOS>MOLECULE
guest-6_confgen4.mol2 : confsearch ligand conformer 146
          13          12           1
SMALL
USER_CHARGES
 
@<TRIPOS>ATOM
       1    C1      19.451402   17.010036   21.604340 C.2        1 MOL1         0.6021
       2    O1      18.425677   16.664650   22.155664 O.co2      1 MOL1        -0.6904
       3    O2      20.354335   16.246245   21.327403 O.co2      1 MOL1        -0.6904
       4    C2      19.622776   18.485263   21.258167 C.3        1 MOL1        -0.2102
       5    H1      18.633633   18.898707   21.026479 H          1 MOL1         0.0687
       6    H2      20.224105   18.553661   20.343430 H          1 MOL1         0.0687
       7    C3      20.287435   19.299253   22.394608 C.3        1 MOL1        -0.1974
       8    H3      19.681979   19.215365   23.307958 H          1 MOL1         0.0689
       9    H4      21.272787   18.870337   22.624686 H          1 MOL1         0.0689
      10    C4      20.446182   20.784931   22.014013 C.3        1 MOL1        -0.2987
      11    H5      20.918773   21.345145   22.831374 H          1 MOL1         0.0700
      12    H6      21.073299   20.896436   21.119672 H          1 MOL1         0.0700
      13    H7      19.470290   21.244108   21.808228 H          1 MOL1         0.0700
@<TRIPOS>BOND
    1     1     2    1
    2     1     3    2
    3     1     4    1
    4     4     5    1
    5     4     6    1
    6     4     7    1
    7     7     8    1
    8     7     9    1
    9     7    10    1
   10    10    11    1
   11    10    12    1
   12    10    13    1
@<TRIPOS>SUBSTRUCTURE
       1 MOL1            1 RESIDUE      1      MOL     
@<SCITEGIC>MOL_PROPERTY
VConf Rank
SciTegic.value.IntegerValue
146

@<SCITEGIC>MOL_PROPERTY
Conf_Id
SciTegic.value.IntegerValue
1

@<SCITEGIC>MOL_PROPERTY
Delta U+W
SciTegic.value.DoubleValue
-1.339

@<SCITEGIC>MOL_PROPERTY
U+W
SciTegic.value.DoubleValue
-59.672

@<SCITEGIC>MOL_PROPERTY
Grad RMS
SciTegic.value.DoubleValue
0.000000

@<SCITEGIC>MOL_PROPERTY
U
SciTegic.value.DoubleValue
7.389

@<SCITEGIC>MOL_PROPERTY
W
SciTegic.value.DoubleValue
-67.061

@<SCITEGIC>MOL_PROPERTY
W(PB)
SciTegic.value.DoubleValue
-68.767

@<SCITEGIC>MOL_PROPERTY
W(SA)
SciTegic.value.DoubleValue
1.707

@<SCITEGIC>MOL_PROPERTY
Valence
SciTegic.value.DoubleValue
5.822

@<SCITEGIC>MOL_PROPERTY
Coulomb
SciTegic.value.DoubleValue
1.255

@<SCITEGIC>MOL_PROPERTY
VdW
SciTegic.value.DoubleValue
0.312

@<SCITEGIC>MOL_PROPERTY
VdW6
SciTegic.value.DoubleValue
-3.061

@<SCITEGIC>MOL_PROPERTY
VdW12
SciTegic.value.DoubleValue
3.372

@<SCITEGIC>MOL_PROPERTY
Bond
SciTegic.value.DoubleValue
0.059

@<SCITEGIC>MOL_PROPERTY
Angle
SciTegic.value.DoubleValue
2.241

@<SCITEGIC>MOL_PROPERTY
Pdih
SciTegic.value.DoubleValue
3.522

@<SCITEGIC>MOL_PROPERTY
Idih
SciTegic.value.DoubleValue
0.000

@<SCITEGIC>MOL_PROPERTY
Tether
SciTegic.value.DoubleValue
0.000

@<TRIPOS>MOLECULE
guest-6_confgen4.mol2 : confsearch ligand conformer 147
          13          12           1
SMALL
USER_CHARGES
 
@<TRIPOS>ATOM
       1    C1      18.993303   18.216220   20.828760 C.2        1 MOL1         0.6021
       2    O1      19.274933   18.346479   19.654104 O.co2      1 MOL1        -0.6904
       3    O2      18.543368   17.190706   21.299699 O.co2      1 MOL1        -0.6904
       4    C2      19.182064   19.417206   21.752194 C.3        1 MOL1        -0.2102
       5    H1      18.600798   19.251451   22.667586 H          1 MOL1         0.0687
       6    H2      18.741938   20.287497   21.250925 H          1 MOL1         0.0687
       7    C3      20.660834   19.719353   22.106149 C.3        1 MOL1        -0.1974
       8    H3      21.242386   19.842757   21.181762 H          1 MOL1         0.0689
       9    H4      20.714137   20.676515   22.642688 H          1 MOL1         0.0689
      10    C4      21.296298   18.616802   22.978213 C.3        1 MOL1        -0.2987
      11    H5      21.300256   17.652039   22.453766 H          1 MOL1         0.0700
      12    H6      22.334983   18.870731   23.226710 H          1 MOL1         0.0700
      13    H7      20.742886   18.492250   23.918220 H          1 MOL1         0.0700
@<TRIPOS>BOND
    1     1     2    1
    2     1     3    2
    3     1     4    1
    4     4     5    1
    5     4     6    1
    6     4     7    1
    7     7     8    1
    8     7     9    1
    9     7    10    1
   10    10    11    1
   11    10    12    1
   12    10    13    1
@<TRIPOS>SUBSTRUCTURE
       1 MOL1            1 RESIDUE      1      MOL     
@<SCITEGIC>MOL_PROPERTY
VConf Rank
SciTegic.value.IntegerValue
147

@<SCITEGIC>MOL_PROPERTY
Conf_Id
SciTegic.value.IntegerValue
4

@<SCITEGIC>MOL_PROPERTY
Delta U+W
SciTegic.value.DoubleValue
0.281

@<SCITEGIC>MOL_PROPERTY
U+W
SciTegic.value.DoubleValue
-58.051

@<SCITEGIC>MOL_PROPERTY
Grad RMS
SciTegic.value.DoubleValue
0.000000

@<SCITEGIC>MOL_PROPERTY
U
SciTegic.value.DoubleValue
9.781

@<SCITEGIC>MOL_PROPERTY
W
SciTegic.value.DoubleValue
-67.832

@<SCITEGIC>MOL_PROPERTY
W(PB)
SciTegic.value.DoubleValue
-69.535

@<SCITEGIC>MOL_PROPERTY
W(SA)
SciTegic.value.DoubleValue
1.703

@<SCITEGIC>MOL_PROPERTY
Valence
SciTegic.value.DoubleValue
6.123

@<SCITEGIC>MOL_PROPERTY
Coulomb
SciTegic.value.DoubleValue
3.449

@<SCITEGIC>MOL_PROPERTY
VdW
SciTegic.value.DoubleValue
0.209

@<SCITEGIC>MOL_PROPERTY
VdW6
SciTegic.value.DoubleValue
-3.762

@<SCITEGIC>MOL_PROPERTY
VdW12
SciTegic.value.DoubleValue
3.972

@<SCITEGIC>MOL_PROPERTY
Bond
SciTegic.value.DoubleValue
0.078

@<SCITEGIC>MOL_PROPERTY
Angle
SciTegic.value.DoubleValue
2.428

@<SCITEGIC>MOL_PROPERTY
Pdih
SciTegic.value.DoubleValue
3.616

@<SCITEGIC>MOL_PROPERTY
Idih
SciTegic.value.DoubleValue
0.002

@<SCITEGIC>MOL_PROPERTY
Tether
SciTegic.value.DoubleValue
0.000

@<TRIPOS>MOLECULE
guest-6_confgen4.mol2 : confsearch ligand conformer 148
          13          12           1
SMALL
USER_CHARGES
 
@<TRIPOS>ATOM
       1    C1      18.785971   20.071075   21.525277 C.2        1 MOL1         0.6021
       2    O1      18.457668   19.846083   20.377453 O.co2      1 MOL1        -0.6904
       3    O2      17.997200   20.360495   22.402873 O.co2      1 MOL1        -0.6904
       4    C2      20.270541   20.023371   21.878124 C.3        1 MOL1        -0.2102
       5    H1      20.501515   20.933605   22.444262 H          1 MOL1         0.0687
       6    H2      20.853960   20.070805   20.950408 H          1 MOL1         0.0687
       7    C3      20.686168   18.781144   22.707258 C.3        1 MOL1        -0.1974
       8    H3      21.725339   18.903164   23.042080 H          1 MOL1         0.0689
       9    H4      20.067517   18.720199   23.613613 H          1 MOL1         0.0689
      10    C4      20.565999   17.468821   21.905202 C.3        1 MOL1        -0.2987
      11    H5      21.194504   17.499806   21.005528 H          1 MOL1         0.0700
      12    H6      20.885894   16.612917   22.513636 H          1 MOL1         0.0700
      13    H7      19.528735   17.291689   21.591304 H          1 MOL1         0.0700
@<TRIPOS>BOND
    1     1     2    1
    2     1     3    2
    3     1     4    1
    4     4     5    1
    5     4     6    1
    6     4     7    1
    7     7     8    1
    8     7     9    1
    9     7    10    1
   10    10    11    1
   11    10    12    1
   12    10    13    1
@<TRIPOS>SUBSTRUCTURE
       1 MOL1            1 RESIDUE      1      MOL     
@<SCITEGIC>MOL_PROPERTY
VConf Rank
SciTegic.value.IntegerValue
148

@<SCITEGIC>MOL_PROPERTY
Conf_Id
SciTegic.value.IntegerValue
36

@<SCITEGIC>MOL_PROPERTY
Delta U+W
SciTegic.value.DoubleValue
0.272

@<SCITEGIC>MOL_PROPERTY
U+W
SciTegic.value.DoubleValue
-58.060

@<SCITEGIC>MOL_PROPERTY
Grad RMS
SciTegic.value.DoubleValue
0.000000

@<SCITEGIC>MOL_PROPERTY
U
SciTegic.value.DoubleValue
9.781

@<SCITEGIC>MOL_PROPERTY
W
SciTegic.value.DoubleValue
-67.841

@<SCITEGIC>MOL_PROPERTY
W(PB)
SciTegic.value.DoubleValue
-69.537

@<SCITEGIC>MOL_PROPERTY
W(SA)
SciTegic.value.DoubleValue
1.696

@<SCITEGIC>MOL_PROPERTY
Valence
SciTegic.value.DoubleValue
6.123

@<SCITEGIC>MOL_PROPERTY
Coulomb
SciTegic.value.DoubleValue
3.449

@<SCITEGIC>MOL_PROPERTY
VdW
SciTegic.value.DoubleValue
0.209

@<SCITEGIC>MOL_PROPERTY
VdW6
SciTegic.value.DoubleValue
-3.762

@<SCITEGIC>MOL_PROPERTY
VdW12
SciTegic.value.DoubleValue
3.972

@<SCITEGIC>MOL_PROPERTY
Bond
SciTegic.value.DoubleValue
0.078

@<SCITEGIC>MOL_PROPERTY
Angle
SciTegic.value.DoubleValue
2.428

@<SCITEGIC>MOL_PROPERTY
Pdih
SciTegic.value.DoubleValue
3.616

@<SCITEGIC>MOL_PROPERTY
Idih
SciTegic.value.DoubleValue
0.002

@<SCITEGIC>MOL_PROPERTY
Tether
SciTegic.value.DoubleValue
0.000

@<TRIPOS>MOLECULE
guest-6_confgen4.mol2 : confsearch ligand conformer 149
          13          12           1
SMALL
USER_CHARGES
 
@<TRIPOS>ATOM
       1    C1      21.273367   18.625454   20.134887 C.2        1 MOL1         0.6021
       2    O1      21.136018   17.422398   20.029441 O.co2      1 MOL1        -0.6904
       3    O2      21.975792   19.278706   19.390134 O.co2      1 MOL1        -0.6904
       4    C2      20.541537   19.380090   21.246476 C.3        1 MOL1        -0.2102
       5    H1      19.926022   20.151519   20.768587 H          1 MOL1         0.0687
       6    H2      21.299917   19.900079   21.843810 H          1 MOL1         0.0687
       7    C3      19.656708   18.505121   22.172469 C.3        1 MOL1        -0.1974
       8    H3      18.899270   17.982668   21.571565 H          1 MOL1         0.0689
       9    H4      20.274844   17.730862   22.648058 H          1 MOL1         0.0689
      10    C4      18.960834   19.349337   23.259159 C.3        1 MOL1        -0.2987
      11    H5      18.311740   20.111784   22.808744 H          1 MOL1         0.0700
      12    H6      18.339968   18.713631   23.903876 H          1 MOL1         0.0700
      13    H7      19.698374   19.857996   23.893844 H          1 MOL1         0.0700
@<TRIPOS>BOND
    1     1     2    1
    2     1     3    2
    3     1     4    1
    4     4     5    1
    5     4     6    1
    6     4     7    1
    7     7     8    1
    8     7     9    1
    9     7    10    1
   10    10    11    1
   11    10    12    1
   12    10    13    1
@<TRIPOS>SUBSTRUCTURE
       1 MOL1            1 RESIDUE      1      MOL     
@<SCITEGIC>MOL_PROPERTY
VConf Rank
SciTegic.value.IntegerValue
149

@<SCITEGIC>MOL_PROPERTY
Conf_Id
SciTegic.value.IntegerValue
0

@<SCITEGIC>MOL_PROPERTY
Delta U+W
SciTegic.value.DoubleValue
0.000

@<SCITEGIC>MOL_PROPERTY
U+W
SciTegic.value.DoubleValue
-58.332

@<SCITEGIC>MOL_PROPERTY
Grad RMS
SciTegic.value.DoubleValue
0.000000

@<SCITEGIC>MOL_PROPERTY
U
SciTegic.value.DoubleValue
8.390

@<SCITEGIC>MOL_PROPERTY
W
SciTegic.value.DoubleValue
-66.722

@<SCITEGIC>MOL_PROPERTY
W(PB)
SciTegic.value.DoubleValue
-68.455

@<SCITEGIC>MOL_PROPERTY
W(SA)
SciTegic.value.DoubleValue
1.733

@<SCITEGIC>MOL_PROPERTY
Valence
SciTegic.value.DoubleValue
6.333

@<SCITEGIC>MOL_PROPERTY
Coulomb
SciTegic.value.DoubleValue
1.215

@<SCITEGIC>MOL_PROPERTY
VdW
SciTegic.value.DoubleValue
0.842

@<SCITEGIC>MOL_PROPERTY
VdW6
SciTegic.value.DoubleValue
-3.344

@<SCITEGIC>MOL_PROPERTY
VdW12
SciTegic.value.DoubleValue
4.186

@<SCITEGIC>MOL_PROPERTY
Bond
SciTegic.value.DoubleValue
0.091

@<SCITEGIC>MOL_PROPERTY
Angle
SciTegic.value.DoubleValue
2.713

@<SCITEGIC>MOL_PROPERTY
Pdih
SciTegic.value.DoubleValue
3.529

@<SCITEGIC>MOL_PROPERTY
Idih
SciTegic.value.DoubleValue
0.000

@<SCITEGIC>MOL_PROPERTY
Tether
SciTegic.value.DoubleValue
0.000

@<TRIPOS>MOLECULE
guest-6_confgen4.mol2 : confsearch ligand conformer 150
          13          12           1
SMALL
USER_CHARGES
 
@<TRIPOS>ATOM
       1    C1      18.168309   19.892297   22.477408 C.2        1 MOL1         0.6021
       2    O1      17.306611   19.110348   22.825823 O.co2      1 MOL1        -0.6904
       3    O2      17.933766   21.015344   22.078514 O.co2      1 MOL1        -0.6904
       4    C2      19.621580   19.432751   22.525567 C.3        1 MOL1        -0.2102
       5    H1      19.731103   18.734080   23.363948 H          1 MOL1         0.0687
       6    H2      20.248289   20.305055   22.747693 H          1 MOL1         0.0687
       7    C3      20.087458   18.763328   21.210014 C.3        1 MOL1        -0.1974
       8    H3      19.446702   17.897316   20.992580 H          1 MOL1         0.0689
       9    H4      19.964106   19.468621   20.376246 H          1 MOL1         0.0689
      10    C4      21.559078   18.310472   21.290916 C.3        1 MOL1        -0.2987
      11    H5      21.870801   17.838732   20.349879 H          1 MOL1         0.0700
      12    H6      22.223132   19.164587   21.478202 H          1 MOL1         0.0700
      13    H7      21.701739   17.581206   22.099233 H          1 MOL1         0.0700
@<TRIPOS>BOND
    1     1     2    1
    2     1     3    2
    3     1     4    1
    4     4     5    1
    5     4     6    1
    6     4     7    1
    7     7     8    1
    8     7     9    1
    9     7    10    1
   10    10    11    1
   11    10    12    1
   12    10    13    1
@<TRIPOS>SUBSTRUCTURE
       1 MOL1            1 RESIDUE      1      MOL     
@<SCITEGIC>MOL_PROPERTY
VConf Rank
SciTegic.value.IntegerValue
150

@<SCITEGIC>MOL_PROPERTY
Conf_Id
SciTegic.value.IntegerValue
1

@<SCITEGIC>MOL_PROPERTY
Delta U+W
SciTegic.value.DoubleValue
-1.339

@<SCITEGIC>MOL_PROPERTY
U+W
SciTegic.value.DoubleValue
-59.672

@<SCITEGIC>MOL_PROPERTY
Grad RMS
SciTegic.value.DoubleValue
0.000000

@<SCITEGIC>MOL_PROPERTY
U
SciTegic.value.DoubleValue
7.389

@<SCITEGIC>MOL_PROPERTY
W
SciTegic.value.DoubleValue
-67.061

@<SCITEGIC>MOL_PROPERTY
W(PB)
SciTegic.value.DoubleValue
-68.767

@<SCITEGIC>MOL_PROPERTY
W(SA)
SciTegic.value.DoubleValue
1.707

@<SCITEGIC>MOL_PROPERTY
Valence
SciTegic.value.DoubleValue
5.822

@<SCITEGIC>MOL_PROPERTY
Coulomb
SciTegic.value.DoubleValue
1.255

@<SCITEGIC>MOL_PROPERTY
VdW
SciTegic.value.DoubleValue
0.312

@<SCITEGIC>MOL_PROPERTY
VdW6
SciTegic.value.DoubleValue
-3.061

@<SCITEGIC>MOL_PROPERTY
VdW12
SciTegic.value.DoubleValue
3.372

@<SCITEGIC>MOL_PROPERTY
Bond
SciTegic.value.DoubleValue
0.059

@<SCITEGIC>MOL_PROPERTY
Angle
SciTegic.value.DoubleValue
2.241

@<SCITEGIC>MOL_PROPERTY
Pdih
SciTegic.value.DoubleValue
3.522

@<SCITEGIC>MOL_PROPERTY
Idih
SciTegic.value.DoubleValue
0.000

@<SCITEGIC>MOL_PROPERTY
Tether
SciTegic.value.DoubleValue
0.000

@<TRIPOS>MOLECULE
guest-6_confgen4.mol2 : confsearch ligand conformer 151
          13          12           1
SMALL
USER_CHARGES
 
@<TRIPOS>ATOM
       1    C1      18.709495   17.870747   22.052755 C.2        1 MOL1         0.6021
       2    O1      18.898279   16.736078   21.661621 O.co2      1 MOL1        -0.6904
       3    O2      18.022844   18.140743   23.017906 O.co2      1 MOL1        -0.6904
       4    C2      19.340194   19.017768   21.267077 C.3        1 MOL1        -0.2102
       5    H1      18.830530   19.950801   21.537225 H          1 MOL1         0.0687
       6    H2      19.132749   18.839706   20.205170 H          1 MOL1         0.0687
       7    C3      20.869257   19.164832   21.476071 C.3        1 MOL1        -0.1974
       8    H3      21.365624   18.212514   21.242337 H          1 MOL1         0.0689
       9    H4      21.259796   19.906820   20.766278 H          1 MOL1         0.0689
      10    C4      21.229664   19.601792   22.911028 C.3        1 MOL1        -0.2987
      11    H5      20.892398   18.859096   23.646203 H          1 MOL1         0.0700
      12    H6      22.316136   19.715493   23.019412 H          1 MOL1         0.0700
      13    H7      20.761218   20.563616   23.157691 H          1 MOL1         0.0700
@<TRIPOS>BOND
    1     1     2    1
    2     1     3    2
    3     1     4    1
    4     4     5    1
    5     4     6    1
    6     4     7    1
    7     7     8    1
    8     7     9    1
    9     7    10    1
   10    10    11    1
   11    10    12    1
   12    10    13    1
@<TRIPOS>SUBSTRUCTURE
       1 MOL1            1 RESIDUE      1      MOL     
@<SCITEGIC>MOL_PROPERTY
VConf Rank
SciTegic.value.IntegerValue
151

@<SCITEGIC>MOL_PROPERTY
Conf_Id
SciTegic.value.IntegerValue
4

@<SCITEGIC>MOL_PROPERTY
Delta U+W
SciTegic.value.DoubleValue
0.281

@<SCITEGIC>MOL_PROPERTY
U+W
SciTegic.value.DoubleValue
-58.051

@<SCITEGIC>MOL_PROPERTY
Grad RMS
SciTegic.value.DoubleValue
0.000000

@<SCITEGIC>MOL_PROPERTY
U
SciTegic.value.DoubleValue
9.781

@<SCITEGIC>MOL_PROPERTY
W
SciTegic.value.DoubleValue
-67.832

@<SCITEGIC>MOL_PROPERTY
W(PB)
SciTegic.value.DoubleValue
-69.535

@<SCITEGIC>MOL_PROPERTY
W(SA)
SciTegic.value.DoubleValue
1.703

@<SCITEGIC>MOL_PROPERTY
Valence
SciTegic.value.DoubleValue
6.123

@<SCITEGIC>MOL_PROPERTY
Coulomb
SciTegic.value.DoubleValue
3.449

@<SCITEGIC>MOL_PROPERTY
VdW
SciTegic.value.DoubleValue
0.209

@<SCITEGIC>MOL_PROPERTY
VdW6
SciTegic.value.DoubleValue
-3.762

@<SCITEGIC>MOL_PROPERTY
VdW12
SciTegic.value.DoubleValue
3.972

@<SCITEGIC>MOL_PROPERTY
Bond
SciTegic.value.DoubleValue
0.078

@<SCITEGIC>MOL_PROPERTY
Angle
SciTegic.value.DoubleValue
2.428

@<SCITEGIC>MOL_PROPERTY
Pdih
SciTegic.value.DoubleValue
3.616

@<SCITEGIC>MOL_PROPERTY
Idih
SciTegic.value.DoubleValue
0.002

@<SCITEGIC>MOL_PROPERTY
Tether
SciTegic.value.DoubleValue
0.000

@<TRIPOS>MOLECULE
guest-6_confgen4.mol2 : confsearch ligand conformer 152
          13          12           1
SMALL
USER_CHARGES
 
@<TRIPOS>ATOM
       1    C1      21.478174   19.210048   20.856790 C.2        1 MOL1         0.6021
       2    O1      22.046750   20.251722   21.116678 O.co2      1 MOL1        -0.6904
       3    O2      22.055566   18.204340   20.494481 O.co2      1 MOL1        -0.6904
       4    C2      19.955204   19.170354   20.955337 C.3        1 MOL1        -0.2102
       5    H1      19.579626   18.712359   20.032532 H          1 MOL1         0.0687
       6    H2      19.577320   20.199978   20.974460 H          1 MOL1         0.0687
       7    C3      19.418686   18.381953   22.177593 C.3        1 MOL1        -0.1974
       8    H3      18.328895   18.276425   22.087638 H          1 MOL1         0.0689
       9    H4      19.835935   17.365201   22.171311 H          1 MOL1         0.0689
      10    C4      19.749207   19.072507   23.516927 C.3        1 MOL1        -0.2987
      11    H5      19.321968   20.083219   23.553260 H          1 MOL1         0.0700
      12    H6      19.339012   18.499939   24.358950 H          1 MOL1         0.0700
      13    H7      20.834668   19.155128   23.661061 H          1 MOL1         0.0700
@<TRIPOS>BOND
    1     1     2    1
    2     1     3    2
    3     1     4    1
    4     4     5    1
    5     4     6    1
    6     4     7    1
    7     7     8    1
    8     7     9    1
    9     7    10    1
   10    10    11    1
   11    10    12    1
   12    10    13    1
@<TRIPOS>SUBSTRUCTURE
       1 MOL1            1 RESIDUE      1      MOL     
@<SCITEGIC>MOL_PROPERTY
VConf Rank
SciTegic.value.IntegerValue
152

@<SCITEGIC>MOL_PROPERTY
Conf_Id
SciTegic.value.IntegerValue
36

@<SCITEGIC>MOL_PROPERTY
Delta U+W
SciTegic.value.DoubleValue
0.272

@<SCITEGIC>MOL_PROPERTY
U+W
SciTegic.value.DoubleValue
-58.060

@<SCITEGIC>MOL_PROPERTY
Grad RMS
SciTegic.value.DoubleValue
0.000000

@<SCITEGIC>MOL_PROPERTY
U
SciTegic.value.DoubleValue
9.781

@<SCITEGIC>MOL_PROPERTY
W
SciTegic.value.DoubleValue
-67.841

@<SCITEGIC>MOL_PROPERTY
W(PB)
SciTegic.value.DoubleValue
-69.537

@<SCITEGIC>MOL_PROPERTY
W(SA)
SciTegic.value.DoubleValue
1.696

@<SCITEGIC>MOL_PROPERTY
Valence
SciTegic.value.DoubleValue
6.123

@<SCITEGIC>MOL_PROPERTY
Coulomb
SciTegic.value.DoubleValue
3.449

@<SCITEGIC>MOL_PROPERTY
VdW
SciTegic.value.DoubleValue
0.209

@<SCITEGIC>MOL_PROPERTY
VdW6
SciTegic.value.DoubleValue
-3.762

@<SCITEGIC>MOL_PROPERTY
VdW12
SciTegic.value.DoubleValue
3.972

@<SCITEGIC>MOL_PROPERTY
Bond
SciTegic.value.DoubleValue
0.078

@<SCITEGIC>MOL_PROPERTY
Angle
SciTegic.value.DoubleValue
2.428

@<SCITEGIC>MOL_PROPERTY
Pdih
SciTegic.value.DoubleValue
3.616

@<SCITEGIC>MOL_PROPERTY
Idih
SciTegic.value.DoubleValue
0.002

@<SCITEGIC>MOL_PROPERTY
Tether
SciTegic.value.DoubleValue
0.000

@<TRIPOS>MOLECULE
guest-6_confgen4.mol2 : confsearch ligand conformer 153
          13          12           1
SMALL
USER_CHARGES
 
@<TRIPOS>ATOM
       1    C1      19.409851   20.884161   21.030386 C.2        1 MOL1         0.6021
       2    O1      19.178011   20.568694   19.879708 O.co2      1 MOL1        -0.6904
       3    O2      19.273674   22.017163   21.445786 O.co2      1 MOL1        -0.6904
       4    C2      19.897148   19.828759   22.025047 C.3        1 MOL1        -0.2102
       5    H1      19.187935   19.814265   22.861196 H          1 MOL1         0.0687
       6    H2      20.857470   20.174640   22.425654 H          1 MOL1         0.0687
       7    C3      20.056173   18.396990   21.449979 C.3        1 MOL1        -0.1974
       8    H3      19.093438   18.053405   21.046437 H          1 MOL1         0.0689
       9    H4      20.764975   18.414233   20.610302 H          1 MOL1         0.0689
      10    C4      20.550086   17.404420   22.521748 C.3        1 MOL1        -0.2987
      11    H5      19.842106   17.345648   23.358906 H          1 MOL1         0.0700
      12    H6      20.656478   16.397848   22.096600 H          1 MOL1         0.0700
      13    H7      21.527046   17.709416   22.919302 H          1 MOL1         0.0700
@<TRIPOS>BOND
    1     1     2    1
    2     1     3    2
    3     1     4    1
    4     4     5    1
    5     4     6    1
    6     4     7    1
    7     7     8    1
    8     7     9    1
    9     7    10    1
   10    10    11    1
   11    10    12    1
   12    10    13    1
@<TRIPOS>SUBSTRUCTURE
       1 MOL1            1 RESIDUE      1      MOL     
@<SCITEGIC>MOL_PROPERTY
VConf Rank
SciTegic.value.IntegerValue
153

@<SCITEGIC>MOL_PROPERTY
Conf_Id
SciTegic.value.IntegerValue
0

@<SCITEGIC>MOL_PROPERTY
Delta U+W
SciTegic.value.DoubleValue
0.000

@<SCITEGIC>MOL_PROPERTY
U+W
SciTegic.value.DoubleValue
-58.332

@<SCITEGIC>MOL_PROPERTY
Grad RMS
SciTegic.value.DoubleValue
0.000000

@<SCITEGIC>MOL_PROPERTY
U
SciTegic.value.DoubleValue
8.390

@<SCITEGIC>MOL_PROPERTY
W
SciTegic.value.DoubleValue
-66.722

@<SCITEGIC>MOL_PROPERTY
W(PB)
SciTegic.value.DoubleValue
-68.455

@<SCITEGIC>MOL_PROPERTY
W(SA)
SciTegic.value.DoubleValue
1.733

@<SCITEGIC>MOL_PROPERTY
Valence
SciTegic.value.DoubleValue
6.333

@<SCITEGIC>MOL_PROPERTY
Coulomb
SciTegic.value.DoubleValue
1.215

@<SCITEGIC>MOL_PROPERTY
VdW
SciTegic.value.DoubleValue
0.842

@<SCITEGIC>MOL_PROPERTY
VdW6
SciTegic.value.DoubleValue
-3.344

@<SCITEGIC>MOL_PROPERTY
VdW12
SciTegic.value.DoubleValue
4.186

@<SCITEGIC>MOL_PROPERTY
Bond
SciTegic.value.DoubleValue
0.091

@<SCITEGIC>MOL_PROPERTY
Angle
SciTegic.value.DoubleValue
2.713

@<SCITEGIC>MOL_PROPERTY
Pdih
SciTegic.value.DoubleValue
3.529

@<SCITEGIC>MOL_PROPERTY
Idih
SciTegic.value.DoubleValue
0.000

@<SCITEGIC>MOL_PROPERTY
Tether
SciTegic.value.DoubleValue
0.000

@<TRIPOS>MOLECULE
guest-6_confgen4.mol2 : confsearch ligand conformer 154
          13          12           1
SMALL
USER_CHARGES
 
@<TRIPOS>ATOM
       1    C1      19.544121   18.609771   23.851214 C.2        1 MOL1         0.6021
       2    O1      20.480079   18.258690   24.541204 O.co2      1 MOL1        -0.6904
       3    O2      18.388066   18.327422   24.094480 O.co2      1 MOL1        -0.6904
       4    C2      19.837947   19.433487   22.601951 C.3        1 MOL1        -0.2102
       5    H1      20.718386   20.056001   22.802756 H          1 MOL1         0.0687
       6    H2      18.993192   20.112696   22.434375 H          1 MOL1         0.0687
       7    C3      20.077509   18.561410   21.345790 C.3        1 MOL1        -0.1974
       8    H3      20.919026   17.878615   21.528715 H          1 MOL1         0.0689
       9    H4      19.193470   17.935427   21.160197 H          1 MOL1         0.0689
      10    C4      20.371644   19.422940   20.101386 C.3        1 MOL1        -0.2987
      11    H5      20.538553   18.787539   19.221802 H          1 MOL1         0.0700
      12    H6      19.530937   20.093713   19.880408 H          1 MOL1         0.0700
      13    H7      21.269744   20.036425   20.251746 H          1 MOL1         0.0700
@<TRIPOS>BOND
    1     1     2    1
    2     1     3    2
    3     1     4    1
    4     4     5    1
    5     4     6    1
    6     4     7    1
    7     7     8    1
    8     7     9    1
    9     7    10    1
   10    10    11    1
   11    10    12    1
   12    10    13    1
@<TRIPOS>SUBSTRUCTURE
       1 MOL1            1 RESIDUE      1      MOL     
@<SCITEGIC>MOL_PROPERTY
VConf Rank
SciTegic.value.IntegerValue
154

@<SCITEGIC>MOL_PROPERTY
Conf_Id
SciTegic.value.IntegerValue
1

@<SCITEGIC>MOL_PROPERTY
Delta U+W
SciTegic.value.DoubleValue
-1.339

@<SCITEGIC>MOL_PROPERTY
U+W
SciTegic.value.DoubleValue
-59.672

@<SCITEGIC>MOL_PROPERTY
Grad RMS
SciTegic.value.DoubleValue
0.000000

@<SCITEGIC>MOL_PROPERTY
U
SciTegic.value.DoubleValue
7.389

@<SCITEGIC>MOL_PROPERTY
W
SciTegic.value.DoubleValue
-67.061

@<SCITEGIC>MOL_PROPERTY
W(PB)
SciTegic.value.DoubleValue
-68.767

@<SCITEGIC>MOL_PROPERTY
W(SA)
SciTegic.value.DoubleValue
1.707

@<SCITEGIC>MOL_PROPERTY
Valence
SciTegic.value.DoubleValue
5.822

@<SCITEGIC>MOL_PROPERTY
Coulomb
SciTegic.value.DoubleValue
1.255

@<SCITEGIC>MOL_PROPERTY
VdW
SciTegic.value.DoubleValue
0.312

@<SCITEGIC>MOL_PROPERTY
VdW6
SciTegic.value.DoubleValue
-3.061

@<SCITEGIC>MOL_PROPERTY
VdW12
SciTegic.value.DoubleValue
3.372

@<SCITEGIC>MOL_PROPERTY
Bond
SciTegic.value.DoubleValue
0.059

@<SCITEGIC>MOL_PROPERTY
Angle
SciTegic.value.DoubleValue
2.241

@<SCITEGIC>MOL_PROPERTY
Pdih
SciTegic.value.DoubleValue
3.522

@<SCITEGIC>MOL_PROPERTY
Idih
SciTegic.value.DoubleValue
0.000

@<SCITEGIC>MOL_PROPERTY
Tether
SciTegic.value.DoubleValue
0.000

@<TRIPOS>MOLECULE
guest-6_confgen4.mol2 : confsearch ligand conformer 155
          13          12           1
SMALL
USER_CHARGES
 
@<TRIPOS>ATOM
       1    C1      21.711029   19.642288   22.487857 C.2        1 MOL1         0.6021
       2    O1      22.518568   19.809709   21.595696 O.co2      1 MOL1        -0.6904
       3    O2      21.554983   20.423529   23.405036 O.co2      1 MOL1        -0.6904
       4    C2      20.875072   18.364922   22.472380 C.3        1 MOL1        -0.2102
       5    H1      20.450349   18.210750   23.471944 H          1 MOL1         0.0687
       6    H2      21.559392   17.528491   22.286708 H          1 MOL1         0.0687
       7    C3      19.749164   18.356187   21.406737 C.3        1 MOL1        -0.1974
       8    H3      20.180051   18.552511   20.414912 H          1 MOL1         0.0689
       9    H4      19.302070   17.353624   21.363765 H          1 MOL1         0.0689
      10    C4      18.643160   19.388636   21.707958 C.3        1 MOL1        -0.2987
      11    H5      19.047500   20.409563   21.714632 H          1 MOL1         0.0700
      12    H6      17.853468   19.342784   20.946789 H          1 MOL1         0.0700
      13    H7      18.183378   19.197014   22.686362 H          1 MOL1         0.0700
@<TRIPOS>BOND
    1     1     2    1
    2     1     3    2
    3     1     4    1
    4     4     5    1
    5     4     6    1
    6     4     7    1
    7     7     8    1
    8     7     9    1
    9     7    10    1
   10    10    11    1
   11    10    12    1
   12    10    13    1
@<TRIPOS>SUBSTRUCTURE
       1 MOL1            1 RESIDUE      1      MOL     
@<SCITEGIC>MOL_PROPERTY
VConf Rank
SciTegic.value.IntegerValue
155

@<SCITEGIC>MOL_PROPERTY
Conf_Id
SciTegic.value.IntegerValue
4

@<SCITEGIC>MOL_PROPERTY
Delta U+W
SciTegic.value.DoubleValue
0.281

@<SCITEGIC>MOL_PROPERTY
U+W
SciTegic.value.DoubleValue
-58.051

@<SCITEGIC>MOL_PROPERTY
Grad RMS
SciTegic.value.DoubleValue
0.000000

@<SCITEGIC>MOL_PROPERTY
U
SciTegic.value.DoubleValue
9.781

@<SCITEGIC>MOL_PROPERTY
W
SciTegic.value.DoubleValue
-67.832

@<SCITEGIC>MOL_PROPERTY
W(PB)
SciTegic.value.DoubleValue
-69.535

@<SCITEGIC>MOL_PROPERTY
W(SA)
SciTegic.value.DoubleValue
1.703

@<SCITEGIC>MOL_PROPERTY
Valence
SciTegic.value.DoubleValue
6.123

@<SCITEGIC>MOL_PROPERTY
Coulomb
SciTegic.value.DoubleValue
3.449

@<SCITEGIC>MOL_PROPERTY
VdW
SciTegic.value.DoubleValue
0.209

@<SCITEGIC>MOL_PROPERTY
VdW6
SciTegic.value.DoubleValue
-3.762

@<SCITEGIC>MOL_PROPERTY
VdW12
SciTegic.value.DoubleValue
3.972

@<SCITEGIC>MOL_PROPERTY
Bond
SciTegic.value.DoubleValue
0.078

@<SCITEGIC>MOL_PROPERTY
Angle
SciTegic.value.DoubleValue
2.428

@<SCITEGIC>MOL_PROPERTY
Pdih
SciTegic.value.DoubleValue
3.616

@<SCITEGIC>MOL_PROPERTY
Idih
SciTegic.value.DoubleValue
0.002

@<SCITEGIC>MOL_PROPERTY
Tether
SciTegic.value.DoubleValue
0.000

@<TRIPOS>MOLECULE
guest-6_confgen4.mol2 : confsearch ligand conformer 156
          13          12           1
SMALL
USER_CHARGES
 
@<TRIPOS>ATOM
       1    C1      18.411597   19.517589   21.980304 C.2        1 MOL1         0.6021
       2    O1      17.738405   18.777330   22.669315 O.co2      1 MOL1        -0.6904
       3    O2      18.239069   20.718792   21.921625 O.co2      1 MOL1        -0.6904
       4    C2      19.509358   18.904414   21.114474 C.3        1 MOL1        -0.2102
       5    H1      19.401259   19.320881   20.105883 H          1 MOL1         0.0687
       6    H2      19.330554   17.825260   21.032362 H          1 MOL1         0.0687
       7    C3      20.946997   19.169642   21.630407 C.3        1 MOL1        -0.1974
       8    H3      21.668847   18.828113   20.875979 H          1 MOL1         0.0689
       9    H4      21.101616   20.251348   21.748418 H          1 MOL1         0.0689
      10    C4      21.236634   18.453202   22.965604 C.3        1 MOL1        -0.2987
      11    H5      21.109465   17.367431   22.864004 H          1 MOL1         0.0700
      12    H6      22.266931   18.645374   23.292185 H          1 MOL1         0.0700
      13    H7      20.560278   18.803800   23.756458 H          1 MOL1         0.0700
@<TRIPOS>BOND
    1     1     2    1
    2     1     3    2
    3     1     4    1
    4     4     5    1
    5     4     6    1
    6     4     7    1
    7     7     8    1
    8     7     9    1
    9     7    10    1
   10    10    11    1
   11    10    12    1
   12    10    13    1
@<TRIPOS>SUBSTRUCTURE
       1 MOL1            1 RESIDUE      1      MOL     
@<SCITEGIC>MOL_PROPERTY
VConf Rank
SciTegic.value.IntegerValue
156

@<SCITEGIC>MOL_PROPERTY
Conf_Id
SciTegic.value.IntegerValue
36

@<SCITEGIC>MOL_PROPERTY
Delta U+W
SciTegic.value.DoubleValue
0.272

@<SCITEGIC>MOL_PROPERTY
U+W
SciTegic.value.DoubleValue
-58.060

@<SCITEGIC>MOL_PROPERTY
Grad RMS
SciTegic.value.DoubleValue
0.000000

@<SCITEGIC>MOL_PROPERTY
U
SciTegic.value.DoubleValue
9.781

@<SCITEGIC>MOL_PROPERTY
W
SciTegic.value.DoubleValue
-67.841

@<SCITEGIC>MOL_PROPERTY
W(PB)
SciTegic.value.DoubleValue
-69.537

@<SCITEGIC>MOL_PROPERTY
W(SA)
SciTegic.value.DoubleValue
1.696

@<SCITEGIC>MOL_PROPERTY
Valence
SciTegic.value.DoubleValue
6.123

@<SCITEGIC>MOL_PROPERTY
Coulomb
SciTegic.value.DoubleValue
3.449

@<SCITEGIC>MOL_PROPERTY
VdW
SciTegic.value.DoubleValue
0.209

@<SCITEGIC>MOL_PROPERTY
VdW6
SciTegic.value.DoubleValue
-3.762

@<SCITEGIC>MOL_PROPERTY
VdW12
SciTegic.value.DoubleValue
3.972

@<SCITEGIC>MOL_PROPERTY
Bond
SciTegic.value.DoubleValue
0.078

@<SCITEGIC>MOL_PROPERTY
Angle
SciTegic.value.DoubleValue
2.428

@<SCITEGIC>MOL_PROPERTY
Pdih
SciTegic.value.DoubleValue
3.616

@<SCITEGIC>MOL_PROPERTY
Idih
SciTegic.value.DoubleValue
0.002

@<SCITEGIC>MOL_PROPERTY
Tether
SciTegic.value.DoubleValue
0.000

@<TRIPOS>MOLECULE
guest-6_confgen4.mol2 : confsearch ligand conformer 157
          13          12           1
SMALL
USER_CHARGES
 
@<TRIPOS>ATOM
       1    C1      18.277739   19.436662   22.966665 C.2        1 MOL1         0.6021
       2    O1      18.714070   20.300816   23.701636 O.co2      1 MOL1        -0.6904
       3    O2      17.128114   19.047994   23.012438 O.co2      1 MOL1        -0.6904
       4    C2      19.193611   18.789344   21.926069 C.3        1 MOL1        -0.2102
       5    H1      18.731447   18.940727   20.943305 H          1 MOL1         0.0687
       6    H2      19.194388   17.709521   22.116647 H          1 MOL1         0.0687
       7    C3      20.652018   19.317111   21.904442 C.3        1 MOL1        -0.1974
       8    H3      20.648861   20.399848   21.716222 H          1 MOL1         0.0689
       9    H4      21.112354   19.167196   22.891037 H          1 MOL1         0.0689
      10    C4      21.498094   18.608685   20.827352 C.3        1 MOL1        -0.2987
      11    H5      21.075393   18.769685   19.826889 H          1 MOL1         0.0700
      12    H6      22.525748   18.994931   20.827230 H          1 MOL1         0.0700
      13    H7      21.542556   17.527124   21.011120 H          1 MOL1         0.0700
@<TRIPOS>BOND
    1     1     2    1
    2     1     3    2
    3     1     4    1
    4     4     5    1
    5     4     6    1
    6     4     7    1
    7     7     8    1
    8     7     9    1
    9     7    10    1
   10    10    11    1
   11    10    12    1
   12    10    13    1
@<TRIPOS>SUBSTRUCTURE
       1 MOL1            1 RESIDUE      1      MOL     
@<SCITEGIC>MOL_PROPERTY
VConf Rank
SciTegic.value.IntegerValue
157

@<SCITEGIC>MOL_PROPERTY
Conf_Id
SciTegic.value.IntegerValue
0

@<SCITEGIC>MOL_PROPERTY
Delta U+W
SciTegic.value.DoubleValue
0.000

@<SCITEGIC>MOL_PROPERTY
U+W
SciTegic.value.DoubleValue
-58.332

@<SCITEGIC>MOL_PROPERTY
Grad RMS
SciTegic.value.DoubleValue
0.000000

@<SCITEGIC>MOL_PROPERTY
U
SciTegic.value.DoubleValue
8.390

@<SCITEGIC>MOL_PROPERTY
W
SciTegic.value.DoubleValue
-66.722

@<SCITEGIC>MOL_PROPERTY
W(PB)
SciTegic.value.DoubleValue
-68.455

@<SCITEGIC>MOL_PROPERTY
W(SA)
SciTegic.value.DoubleValue
1.733

@<SCITEGIC>MOL_PROPERTY
Valence
SciTegic.value.DoubleValue
6.333

@<SCITEGIC>MOL_PROPERTY
Coulomb
SciTegic.value.DoubleValue
1.215

@<SCITEGIC>MOL_PROPERTY
VdW
SciTegic.value.DoubleValue
0.842

@<SCITEGIC>MOL_PROPERTY
VdW6
SciTegic.value.DoubleValue
-3.344

@<SCITEGIC>MOL_PROPERTY
VdW12
SciTegic.value.DoubleValue
4.186

@<SCITEGIC>MOL_PROPERTY
Bond
SciTegic.value.DoubleValue
0.091

@<SCITEGIC>MOL_PROPERTY
Angle
SciTegic.value.DoubleValue
2.713

@<SCITEGIC>MOL_PROPERTY
Pdih
SciTegic.value.DoubleValue
3.529

@<SCITEGIC>MOL_PROPERTY
Idih
SciTegic.value.DoubleValue
0.000

@<SCITEGIC>MOL_PROPERTY
Tether
SciTegic.value.DoubleValue
0.000

@<TRIPOS>MOLECULE
guest-6_confgen4.mol2 : confsearch ligand conformer 158
          13          12           1
SMALL
USER_CHARGES
 
@<TRIPOS>ATOM
       1    C1      20.213050   17.251781   22.933871 C.2        1 MOL1         0.6021
       2    O1      19.847086   16.234345   22.380466 O.co2      1 MOL1        -0.6904
       3    O2      20.277900   17.373109   24.140699 O.co2      1 MOL1        -0.6904
       4    C2      20.593613   18.447432   22.067217 C.3        1 MOL1        -0.2102
       5    H1      21.026557   18.068264   21.133508 H          1 MOL1         0.0687
       6    H2      21.381849   19.007345   22.585097 H          1 MOL1         0.0687
       7    C3      19.394547   19.376648   21.759569 C.3        1 MOL1        -0.1974
       8    H3      18.607678   18.803041   21.250027 H          1 MOL1         0.0689
       9    H4      18.963128   19.742391   22.701871 H          1 MOL1         0.0689
      10    C4      19.811763   20.574200   20.882591 C.3        1 MOL1        -0.2987
      11    H5      18.949132   21.220884   20.675400 H          1 MOL1         0.0700
      12    H6      20.577295   21.180630   21.384346 H          1 MOL1         0.0700
      13    H7      20.219077   20.234068   19.921361 H          1 MOL1         0.0700
@<TRIPOS>BOND
    1     1     2    1
    2     1     3    2
    3     1     4    1
    4     4     5    1
    5     4     6    1
    6     4     7    1
    7     7     8    1
    8     7     9    1
    9     7    10    1
   10    10    11    1
   11    10    12    1
   12    10    13    1
@<TRIPOS>SUBSTRUCTURE
       1 MOL1            1 RESIDUE      1      MOL     
@<SCITEGIC>MOL_PROPERTY
VConf Rank
SciTegic.value.IntegerValue
158

@<SCITEGIC>MOL_PROPERTY
Conf_Id
SciTegic.value.IntegerValue
1

@<SCITEGIC>MOL_PROPERTY
Delta U+W
SciTegic.value.DoubleValue
-1.339

@<SCITEGIC>MOL_PROPERTY
U+W
SciTegic.value.DoubleValue
-59.672

@<SCITEGIC>MOL_PROPERTY
Grad RMS
SciTegic.value.DoubleValue
0.000000

@<SCITEGIC>MOL_PROPERTY
U
SciTegic.value.DoubleValue
7.389

@<SCITEGIC>MOL_PROPERTY
W
SciTegic.value.DoubleValue
-67.061

@<SCITEGIC>MOL_PROPERTY
W(PB)
SciTegic.value.DoubleValue
-68.767

@<SCITEGIC>MOL_PROPERTY
W(SA)
SciTegic.value.DoubleValue
1.707

@<SCITEGIC>MOL_PROPERTY
Valence
SciTegic.value.DoubleValue
5.822

@<SCITEGIC>MOL_PROPERTY
Coulomb
SciTegic.value.DoubleValue
1.255

@<SCITEGIC>MOL_PROPERTY
VdW
SciTegic.value.DoubleValue
0.312

@<SCITEGIC>MOL_PROPERTY
VdW6
SciTegic.value.DoubleValue
-3.061

@<SCITEGIC>MOL_PROPERTY
VdW12
SciTegic.value.DoubleValue
3.372

@<SCITEGIC>MOL_PROPERTY
Bond
SciTegic.value.DoubleValue
0.059

@<SCITEGIC>MOL_PROPERTY
Angle
SciTegic.value.DoubleValue
2.241

@<SCITEGIC>MOL_PROPERTY
Pdih
SciTegic.value.DoubleValue
3.522

@<SCITEGIC>MOL_PROPERTY
Idih
SciTegic.value.DoubleValue
0.000

@<SCITEGIC>MOL_PROPERTY
Tether
SciTegic.value.DoubleValue
0.000

@<TRIPOS>MOLECULE
guest-6_confgen4.mol2 : confsearch ligand conformer 159
          13          12           1
SMALL
USER_CHARGES
 
@<TRIPOS>ATOM
       1    C1      19.742834   20.696038   21.718895 C.2        1 MOL1         0.6021
       2    O1      20.686518   21.460988   21.739168 O.co2      1 MOL1        -0.6904
       3    O2      18.823245   20.787939   20.930343 O.co2      1 MOL1        -0.6904
       4    C2      19.694886   19.583491   22.763246 C.3        1 MOL1        -0.2102
       5    H1      18.668861   19.199814   22.821139 H          1 MOL1         0.0687
       6    H2      19.918250   20.038066   23.735797 H          1 MOL1         0.0687
       7    C3      20.685452   18.420862   22.497892 C.3        1 MOL1        -0.1974
       8    H3      21.704462   18.820946   22.400550 H          1 MOL1         0.0689
       9    H4      20.692086   17.748362   23.366554 H          1 MOL1         0.0689
      10    C4      20.320972   17.611008   21.236457 C.3        1 MOL1        -0.2987
      11    H5      20.347932   18.244032   20.339584 H          1 MOL1         0.0700
      12    H6      21.029164   16.785315   21.088837 H          1 MOL1         0.0700
      13    H7      19.313523   17.183146   21.322314 H          1 MOL1         0.0700
@<TRIPOS>BOND
    1     1     2    1
    2     1     3    2
    3     1     4    1
    4     4     5    1
    5     4     6    1
    6     4     7    1
    7     7     8    1
    8     7     9    1
    9     7    10    1
   10    10    11    1
   11    10    12    1
   12    10    13    1
@<TRIPOS>SUBSTRUCTURE
       1 MOL1            1 RESIDUE      1      MOL     
@<SCITEGIC>MOL_PROPERTY
VConf Rank
SciTegic.value.IntegerValue
159

@<SCITEGIC>MOL_PROPERTY
Conf_Id
SciTegic.value.IntegerValue
4

@<SCITEGIC>MOL_PROPERTY
Delta U+W
SciTegic.value.DoubleValue
0.281

@<SCITEGIC>MOL_PROPERTY
U+W
SciTegic.value.DoubleValue
-58.051

@<SCITEGIC>MOL_PROPERTY
Grad RMS
SciTegic.value.DoubleValue
0.000000

@<SCITEGIC>MOL_PROPERTY
U
SciTegic.value.DoubleValue
9.781

@<SCITEGIC>MOL_PROPERTY
W
SciTegic.value.DoubleValue
-67.832

@<SCITEGIC>MOL_PROPERTY
W(PB)
SciTegic.value.DoubleValue
-69.535

@<SCITEGIC>MOL_PROPERTY
W(SA)
SciTegic.value.DoubleValue
1.703

@<SCITEGIC>MOL_PROPERTY
Valence
SciTegic.value.DoubleValue
6.123

@<SCITEGIC>MOL_PROPERTY
Coulomb
SciTegic.value.DoubleValue
3.449

@<SCITEGIC>MOL_PROPERTY
VdW
SciTegic.value.DoubleValue
0.209

@<SCITEGIC>MOL_PROPERTY
VdW6
SciTegic.value.DoubleValue
-3.762

@<SCITEGIC>MOL_PROPERTY
VdW12
SciTegic.value.DoubleValue
3.972

@<SCITEGIC>MOL_PROPERTY
Bond
SciTegic.value.DoubleValue
0.078

@<SCITEGIC>MOL_PROPERTY
Angle
SciTegic.value.DoubleValue
2.428

@<SCITEGIC>MOL_PROPERTY
Pdih
SciTegic.value.DoubleValue
3.616

@<SCITEGIC>MOL_PROPERTY
Idih
SciTegic.value.DoubleValue
0.002

@<SCITEGIC>MOL_PROPERTY
Tether
SciTegic.value.DoubleValue
0.000

@<TRIPOS>MOLECULE
guest-6_confgen4.mol2 : confsearch ligand conformer 160
          13          12           1
SMALL
USER_CHARGES
 
@<TRIPOS>ATOM
       1    C1      20.634265   20.655922   22.303180 C.2        1 MOL1         0.6021
       2    O1      20.912448   20.789733   23.478176 O.co2      1 MOL1        -0.6904
       3    O2      21.246318   21.197603   21.404254 O.co2      1 MOL1        -0.6904
       4    C2      19.430999   19.790930   21.936211 C.3        1 MOL1        -0.2102
       5    H1      18.823658   20.361126   21.223189 H          1 MOL1         0.0687
       6    H2      18.815280   19.646906   22.832556 H          1 MOL1         0.0687
       7    C3      19.801094   18.418900   21.316616 C.3        1 MOL1        -0.1974
       8    H3      18.887806   17.932616   20.947423 H          1 MOL1         0.0689
       9    H4      20.451579   18.572840   20.444209 H          1 MOL1         0.0689
      10    C4      20.496981   17.483357   22.326778 C.3        1 MOL1        -0.2987
      11    H5      19.854208   17.298166   23.197375 H          1 MOL1         0.0700
      12    H6      20.727230   16.515552   21.862628 H          1 MOL1         0.0700
      13    H7      21.439145   17.919525   22.684423 H          1 MOL1         0.0700
@<TRIPOS>BOND
    1     1     2    1
    2     1     3    2
    3     1     4    1
    4     4     5    1
    5     4     6    1
    6     4     7    1
    7     7     8    1
    8     7     9    1
    9     7    10    1
   10    10    11    1
   11    10    12    1
   12    10    13    1
@<TRIPOS>SUBSTRUCTURE
       1 MOL1            1 RESIDUE      1      MOL     
@<SCITEGIC>MOL_PROPERTY
VConf Rank
SciTegic.value.IntegerValue
160

@<SCITEGIC>MOL_PROPERTY
Conf_Id
SciTegic.value.IntegerValue
36

@<SCITEGIC>MOL_PROPERTY
Delta U+W
SciTegic.value.DoubleValue
0.272

@<SCITEGIC>MOL_PROPERTY
U+W
SciTegic.value.DoubleValue
-58.060

@<SCITEGIC>MOL_PROPERTY
Grad RMS
SciTegic.value.DoubleValue
0.000000

@<SCITEGIC>MOL_PROPERTY
U
SciTegic.value.DoubleValue
9.781

@<SCITEGIC>MOL_PROPERTY
W
SciTegic.value.DoubleValue
-67.841

@<SCITEGIC>MOL_PROPERTY
W(PB)
SciTegic.value.DoubleValue
-69.537

@<SCITEGIC>MOL_PROPERTY
W(SA)
SciTegic.value.DoubleValue
1.696

@<SCITEGIC>MOL_PROPERTY
Valence
SciTegic.value.DoubleValue
6.123

@<SCITEGIC>MOL_PROPERTY
Coulomb
SciTegic.value.DoubleValue
3.449

@<SCITEGIC>MOL_PROPERTY
VdW
SciTegic.value.DoubleValue
0.209

@<SCITEGIC>MOL_PROPERTY
VdW6
SciTegic.value.DoubleValue
-3.762

@<SCITEGIC>MOL_PROPERTY
VdW12
SciTegic.value.DoubleValue
3.972

@<SCITEGIC>MOL_PROPERTY
Bond
SciTegic.value.DoubleValue
0.078

@<SCITEGIC>MOL_PROPERTY
Angle
SciTegic.value.DoubleValue
2.428

@<SCITEGIC>MOL_PROPERTY
Pdih
SciTegic.value.DoubleValue
3.616

@<SCITEGIC>MOL_PROPERTY
Idih
SciTegic.value.DoubleValue
0.002

@<SCITEGIC>MOL_PROPERTY
Tether
SciTegic.value.DoubleValue
0.000

@<TRIPOS>MOLECULE
guest-6_confgen4.mol2 : confsearch ligand conformer 161
          13          12           1
SMALL
USER_CHARGES
 
@<TRIPOS>ATOM
       1    C1      21.302020   20.672758   22.160230 C.2        1 MOL1         0.6021
       2    O1      20.493264   21.481864   22.570827 O.co2      1 MOL1        -0.6904
       3    O2      22.484377   20.922316   22.039612 O.co2      1 MOL1        -0.6904
       4    C2      20.840701   19.267487   21.768974 C.3        1 MOL1        -0.2102
       5    H1      21.414392   18.554268   22.372742 H          1 MOL1         0.0687
       6    H2      21.129499   19.106993   20.723425 H          1 MOL1         0.0687
       7    C3      19.323335   18.994675   21.939655 C.3        1 MOL1        -0.1974
       8    H3      19.035429   19.158888   22.987462 H          1 MOL1         0.0689
       9    H4      18.750176   19.712346   21.336171 H          1 MOL1         0.0689
      10    C4      18.952621   17.557344   21.521941 C.3        1 MOL1        -0.2987
      11    H5      19.489931   16.819775   22.132525 H          1 MOL1         0.0700
      12    H6      17.876202   17.383258   21.649504 H          1 MOL1         0.0700
      13    H7      19.202443   17.377672   20.467982 H          1 MOL1         0.0700
@<TRIPOS>BOND
    1     1     2    1
    2     1     3    2
    3     1     4    1
    4     4     5    1
    5     4     6    1
    6     4     7    1
    7     7     8    1
    8     7     9    1
    9     7    10    1
   10    10    11    1
   11    10    12    1
   12    10    13    1
@<TRIPOS>SUBSTRUCTURE
       1 MOL1            1 RESIDUE      1      MOL     
@<SCITEGIC>MOL_PROPERTY
VConf Rank
SciTegic.value.IntegerValue
161

@<SCITEGIC>MOL_PROPERTY
Conf_Id
SciTegic.value.IntegerValue
0

@<SCITEGIC>MOL_PROPERTY
Delta U+W
SciTegic.value.DoubleValue
0.000

@<SCITEGIC>MOL_PROPERTY
U+W
SciTegic.value.DoubleValue
-58.332

@<SCITEGIC>MOL_PROPERTY
Grad RMS
SciTegic.value.DoubleValue
0.000000

@<SCITEGIC>MOL_PROPERTY
U
SciTegic.value.DoubleValue
8.390

@<SCITEGIC>MOL_PROPERTY
W
SciTegic.value.DoubleValue
-66.722

@<SCITEGIC>MOL_PROPERTY
W(PB)
SciTegic.value.DoubleValue
-68.455

@<SCITEGIC>MOL_PROPERTY
W(SA)
SciTegic.value.DoubleValue
1.733

@<SCITEGIC>MOL_PROPERTY
Valence
SciTegic.value.DoubleValue
6.333

@<SCITEGIC>MOL_PROPERTY
Coulomb
SciTegic.value.DoubleValue
1.215

@<SCITEGIC>MOL_PROPERTY
VdW
SciTegic.value.DoubleValue
0.842

@<SCITEGIC>MOL_PROPERTY
VdW6
SciTegic.value.DoubleValue
-3.344

@<SCITEGIC>MOL_PROPERTY
VdW12
SciTegic.value.DoubleValue
4.186

@<SCITEGIC>MOL_PROPERTY
Bond
SciTegic.value.DoubleValue
0.091

@<SCITEGIC>MOL_PROPERTY
Angle
SciTegic.value.DoubleValue
2.713

@<SCITEGIC>MOL_PROPERTY
Pdih
SciTegic.value.DoubleValue
3.529

@<SCITEGIC>MOL_PROPERTY
Idih
SciTegic.value.DoubleValue
0.000

@<SCITEGIC>MOL_PROPERTY
Tether
SciTegic.value.DoubleValue
0.000

@<TRIPOS>MOLECULE
guest-6_confgen4.mol2 : confsearch ligand conformer 162
          13          12           1
SMALL
USER_CHARGES
 
@<TRIPOS>ATOM
       1    C1      21.768548   19.073873   20.694541 C.2        1 MOL1         0.6021
       2    O1      22.687982   19.716125   21.160926 O.co2      1 MOL1        -0.6904
       3    O2      21.649017   18.836644   19.509301 O.co2      1 MOL1        -0.6904
       4    C2      20.696548   18.553363   21.646057 C.3        1 MOL1        -0.2102
       5    H1      21.173267   18.330578   22.608411 H          1 MOL1         0.0687
       6    H2      20.316490   17.605292   21.246388 H          1 MOL1         0.0687
       7    C3      19.531081   19.551844   21.847484 C.3        1 MOL1        -0.1974
       8    H3      19.924692   20.500526   22.238501 H          1 MOL1         0.0689
       9    H4      19.067683   19.774998   20.876254 H          1 MOL1         0.0689
      10    C4      18.465392   18.996688   22.813609 C.3        1 MOL1        -0.2987
      11    H5      17.648033   19.717991   22.943635 H          1 MOL1         0.0700
      12    H6      18.035181   18.062539   22.429111 H          1 MOL1         0.0700
      13    H7      18.898761   18.793675   23.801806 H          1 MOL1         0.0700
@<TRIPOS>BOND
    1     1     2    1
    2     1     3    2
    3     1     4    1
    4     4     5    1
    5     4     6    1
    6     4     7    1
    7     7     8    1
    8     7     9    1
    9     7    10    1
   10    10    11    1
   11    10    12    1
   12    10    13    1
@<TRIPOS>SUBSTRUCTURE
       1 MOL1            1 RESIDUE      1      MOL     
@<SCITEGIC>MOL_PROPERTY
VConf Rank
SciTegic.value.IntegerValue
162

@<SCITEGIC>MOL_PROPERTY
Conf_Id
SciTegic.value.IntegerValue
1

@<SCITEGIC>MOL_PROPERTY
Delta U+W
SciTegic.value.DoubleValue
-1.339

@<SCITEGIC>MOL_PROPERTY
U+W
SciTegic.value.DoubleValue
-59.672

@<SCITEGIC>MOL_PROPERTY
Grad RMS
SciTegic.value.DoubleValue
0.000000

@<SCITEGIC>MOL_PROPERTY
U
SciTegic.value.DoubleValue
7.389

@<SCITEGIC>MOL_PROPERTY
W
SciTegic.value.DoubleValue
-67.061

@<SCITEGIC>MOL_PROPERTY
W(PB)
SciTegic.value.DoubleValue
-68.767

@<SCITEGIC>MOL_PROPERTY
W(SA)
SciTegic.value.DoubleValue
1.707

@<SCITEGIC>MOL_PROPERTY
Valence
SciTegic.value.DoubleValue
5.822

@<SCITEGIC>MOL_PROPERTY
Coulomb
SciTegic.value.DoubleValue
1.255

@<SCITEGIC>MOL_PROPERTY
VdW
SciTegic.value.DoubleValue
0.312

@<SCITEGIC>MOL_PROPERTY
VdW6
SciTegic.value.DoubleValue
-3.061

@<SCITEGIC>MOL_PROPERTY
VdW12
SciTegic.value.DoubleValue
3.372

@<SCITEGIC>MOL_PROPERTY
Bond
SciTegic.value.DoubleValue
0.059

@<SCITEGIC>MOL_PROPERTY
Angle
SciTegic.value.DoubleValue
2.241

@<SCITEGIC>MOL_PROPERTY
Pdih
SciTegic.value.DoubleValue
3.522

@<SCITEGIC>MOL_PROPERTY
Idih
SciTegic.value.DoubleValue
0.000

@<SCITEGIC>MOL_PROPERTY
Tether
SciTegic.value.DoubleValue
0.000

@<TRIPOS>MOLECULE
guest-6_confgen4.mol2 : confsearch ligand conformer 163
          13          12           1
SMALL
USER_CHARGES
 
@<TRIPOS>ATOM
       1    C1      19.480574   17.321500   22.288867 C.2        1 MOL1         0.6021
       2    O1      18.297794   17.163691   22.060336 O.co2      1 MOL1        -0.6904
       3    O2      20.330743   16.497153   22.017632 O.co2      1 MOL1        -0.6904
       4    C2      19.914023   18.608707   22.985967 C.3        1 MOL1        -0.2102
       5    H1      20.919245   18.462737   23.400105 H          1 MOL1         0.0687
       6    H2      19.240160   18.762456   23.837234 H          1 MOL1         0.0687
       7    C3      19.888753   19.863070   22.075323 C.3        1 MOL1        -0.1974
       8    H3      18.888949   19.976440   21.633212 H          1 MOL1         0.0689
       9    H4      20.065674   20.756936   22.688981 H          1 MOL1         0.0689
      10    C4      20.949253   19.801916   20.956605 C.3        1 MOL1        -0.2987
      11    H5      20.776155   18.942578   20.295239 H          1 MOL1         0.0700
      12    H6      20.917779   20.712019   20.343565 H          1 MOL1         0.0700
      13    H7      21.959084   19.710805   21.377712 H          1 MOL1         0.0700
@<TRIPOS>BOND
    1     1     2    1
    2     1     3    2
    3     1     4    1
    4     4     5    1
    5     4     6    1
    6     4     7    1
    7     7     8    1
    8     7     9    1
    9     7    10    1
   10    10    11    1
   11    10    12    1
   12    10    13    1
@<TRIPOS>SUBSTRUCTURE
       1 MOL1            1 RESIDUE      1      MOL     
@<SCITEGIC>MOL_PROPERTY
VConf Rank
SciTegic.value.IntegerValue
163

@<SCITEGIC>MOL_PROPERTY
Conf_Id
SciTegic.value.IntegerValue
4

@<SCITEGIC>MOL_PROPERTY
Delta U+W
SciTegic.value.DoubleValue
0.281

@<SCITEGIC>MOL_PROPERTY
U+W
SciTegic.value.DoubleValue
-58.051

@<SCITEGIC>MOL_PROPERTY
Grad RMS
SciTegic.value.DoubleValue
0.000000

@<SCITEGIC>MOL_PROPERTY
U
SciTegic.value.DoubleValue
9.781

@<SCITEGIC>MOL_PROPERTY
W
SciTegic.value.DoubleValue
-67.832

@<SCITEGIC>MOL_PROPERTY
W(PB)
SciTegic.value.DoubleValue
-69.535

@<SCITEGIC>MOL_PROPERTY
W(SA)
SciTegic.value.DoubleValue
1.703

@<SCITEGIC>MOL_PROPERTY
Valence
SciTegic.value.DoubleValue
6.123

@<SCITEGIC>MOL_PROPERTY
Coulomb
SciTegic.value.DoubleValue
3.449

@<SCITEGIC>MOL_PROPERTY
VdW
SciTegic.value.DoubleValue
0.209

@<SCITEGIC>MOL_PROPERTY
VdW6
SciTegic.value.DoubleValue
-3.762

@<SCITEGIC>MOL_PROPERTY
VdW12
SciTegic.value.DoubleValue
3.972

@<SCITEGIC>MOL_PROPERTY
Bond
SciTegic.value.DoubleValue
0.078

@<SCITEGIC>MOL_PROPERTY
Angle
SciTegic.value.DoubleValue
2.428

@<SCITEGIC>MOL_PROPERTY
Pdih
SciTegic.value.DoubleValue
3.616

@<SCITEGIC>MOL_PROPERTY
Idih
SciTegic.value.DoubleValue
0.002

@<SCITEGIC>MOL_PROPERTY
Tether
SciTegic.value.DoubleValue
0.000

@<TRIPOS>MOLECULE
guest-6_confgen4.mol2 : confsearch ligand conformer 164
          13          12           1
SMALL
USER_CHARGES
 
@<TRIPOS>ATOM
       1    C1      20.633783   19.260690   23.687262 C.2        1 MOL1         0.6021
       2    O1      21.488366   18.454802   23.997323 O.co2      1 MOL1        -0.6904
       3    O2      20.644900   20.420753   24.048133 O.co2      1 MOL1        -0.6904
       4    C2      19.464596   18.784574   22.828752 C.3        1 MOL1        -0.2102
       5    H1      18.543365   19.144429   23.302274 H          1 MOL1         0.0687
       6    H2      19.429337   17.688631   22.859618 H          1 MOL1         0.0687
       7    C3      19.514861   19.275942   21.359273 C.3        1 MOL1        -0.1974
       8    H3      18.570699   19.017226   20.860779 H          1 MOL1         0.0689
       9    H4      19.591755   20.372143   21.340514 H          1 MOL1         0.0689
      10    C4      20.687320   18.657817   20.569851 C.3        1 MOL1        -0.2987
      11    H5      20.617522   17.562208   20.557167 H          1 MOL1         0.0700
      12    H6      20.682309   19.010491   19.530288 H          1 MOL1         0.0700
      13    H7      21.652198   18.933468   21.015782 H          1 MOL1         0.0700
@<TRIPOS>BOND
    1     1     2    1
    2     1     3    2
    3     1     4    1
    4     4     5    1
    5     4     6    1
    6     4     7    1
    7     7     8    1
    8     7     9    1
    9     7    10    1
   10    10    11    1
   11    10    12    1
   12    10    13    1
@<TRIPOS>SUBSTRUCTURE
       1 MOL1            1 RESIDUE      1      MOL     
@<SCITEGIC>MOL_PROPERTY
VConf Rank
SciTegic.value.IntegerValue
164

@<SCITEGIC>MOL_PROPERTY
Conf_Id
SciTegic.value.IntegerValue
36

@<SCITEGIC>MOL_PROPERTY
Delta U+W
SciTegic.value.DoubleValue
0.272

@<SCITEGIC>MOL_PROPERTY
U+W
SciTegic.value.DoubleValue
-58.060

@<SCITEGIC>MOL_PROPERTY
Grad RMS
SciTegic.value.DoubleValue
0.000000

@<SCITEGIC>MOL_PROPERTY
U
SciTegic.value.DoubleValue
9.781

@<SCITEGIC>MOL_PROPERTY
W
SciTegic.value.DoubleValue
-67.841

@<SCITEGIC>MOL_PROPERTY
W(PB)
SciTegic.value.DoubleValue
-69.537

@<SCITEGIC>MOL_PROPERTY
W(SA)
SciTegic.value.DoubleValue
1.696

@<SCITEGIC>MOL_PROPERTY
Valence
SciTegic.value.DoubleValue
6.123

@<SCITEGIC>MOL_PROPERTY
Coulomb
SciTegic.value.DoubleValue
3.449

@<SCITEGIC>MOL_PROPERTY
VdW
SciTegic.value.DoubleValue
0.209

@<SCITEGIC>MOL_PROPERTY
VdW6
SciTegic.value.DoubleValue
-3.762

@<SCITEGIC>MOL_PROPERTY
VdW12
SciTegic.value.DoubleValue
3.972

@<SCITEGIC>MOL_PROPERTY
Bond
SciTegic.value.DoubleValue
0.078

@<SCITEGIC>MOL_PROPERTY
Angle
SciTegic.value.DoubleValue
2.428

@<SCITEGIC>MOL_PROPERTY
Pdih
SciTegic.value.DoubleValue
3.616

@<SCITEGIC>MOL_PROPERTY
Idih
SciTegic.value.DoubleValue
0.002

@<SCITEGIC>MOL_PROPERTY
Tether
SciTegic.value.DoubleValue
0.000

@<TRIPOS>MOLECULE
guest-6_confgen4.mol2 : confsearch ligand conformer 165
          13          12           1
SMALL
USER_CHARGES
 
@<TRIPOS>ATOM
       1    C1      21.199129   20.752330   22.129788 C.2        1 MOL1         0.6021
       2    O1      22.305275   20.255680   22.214106 O.co2      1 MOL1        -0.6904
       3    O2      21.001890   21.947115   22.221344 O.co2      1 MOL1        -0.6904
       4    C2      19.979470   19.858183   21.898239 C.3        1 MOL1        -0.2102
       5    H1      19.488095   20.205118   20.981438 H          1 MOL1         0.0687
       6    H2      19.280327   20.037333   22.723734 H          1 MOL1         0.0687
       7    C3      20.279633   18.340397   21.787862 C.3        1 MOL1        -0.1974
       8    H3      20.982659   18.163353   20.961930 H          1 MOL1         0.0689
       9    H4      20.774709   17.995371   22.706345 H          1 MOL1         0.0689
      10    C4      18.994087   17.521056   21.555720 C.3        1 MOL1        -0.2987
      11    H5      18.496235   17.826143   20.625888 H          1 MOL1         0.0700
      12    H6      19.226285   16.450700   21.480362 H          1 MOL1         0.0700
      13    H7      18.286598   17.656864   22.384296 H          1 MOL1         0.0700
@<TRIPOS>BOND
    1     1     2    1
    2     1     3    2
    3     1     4    1
    4     4     5    1
    5     4     6    1
    6     4     7    1
    7     7     8    1
    8     7     9    1
    9     7    10    1
   10    10    11    1
   11    10    12    1
   12    10    13    1
@<TRIPOS>SUBSTRUCTURE
       1 MOL1            1 RESIDUE      1      MOL     
@<SCITEGIC>MOL_PROPERTY
VConf Rank
SciTegic.value.IntegerValue
165

@<SCITEGIC>MOL_PROPERTY
Conf_Id
SciTegic.value.IntegerValue
0

@<SCITEGIC>MOL_PROPERTY
Delta U+W
SciTegic.value.DoubleValue
0.000

@<SCITEGIC>MOL_PROPERTY
U+W
SciTegic.value.DoubleValue
-58.332

@<SCITEGIC>MOL_PROPERTY
Grad RMS
SciTegic.value.DoubleValue
0.000000

@<SCITEGIC>MOL_PROPERTY
U
SciTegic.value.DoubleValue
8.390

@<SCITEGIC>MOL_PROPERTY
W
SciTegic.value.DoubleValue
-66.722

@<SCITEGIC>MOL_PROPERTY
W(PB)
SciTegic.value.DoubleValue
-68.455

@<SCITEGIC>MOL_PROPERTY
W(SA)
SciTegic.value.DoubleValue
1.733

@<SCITEGIC>MOL_PROPERTY
Valence
SciTegic.value.DoubleValue
6.333

@<SCITEGIC>MOL_PROPERTY
Coulomb
SciTegic.value.DoubleValue
1.215

@<SCITEGIC>MOL_PROPERTY
VdW
SciTegic.value.DoubleValue
0.842

@<SCITEGIC>MOL_PROPERTY
VdW6
SciTegic.value.DoubleValue
-3.344

@<SCITEGIC>MOL_PROPERTY
VdW12
SciTegic.value.DoubleValue
4.186

@<SCITEGIC>MOL_PROPERTY
Bond
SciTegic.value.DoubleValue
0.091

@<SCITEGIC>MOL_PROPERTY
Angle
SciTegic.value.DoubleValue
2.713

@<SCITEGIC>MOL_PROPERTY
Pdih
SciTegic.value.DoubleValue
3.529

@<SCITEGIC>MOL_PROPERTY
Idih
SciTegic.value.DoubleValue
0.000

@<SCITEGIC>MOL_PROPERTY
Tether
SciTegic.value.DoubleValue
0.000

@<TRIPOS>MOLECULE
guest-6_confgen4.mol2 : confsearch ligand conformer 166
          13          12           1
SMALL
USER_CHARGES
 
@<TRIPOS>ATOM
       1    C1      21.299296   17.438568   21.406136 C.2        1 MOL1         0.6021
       2    O1      21.988588   17.052913   22.328908 O.co2      1 MOL1        -0.6904
       3    O2      21.596539   17.288306   20.238049 O.co2      1 MOL1        -0.6904
       4    C2      19.999921   18.167304   21.731818 C.3        1 MOL1        -0.2102
       5    H1      19.598714   17.749987   22.663429 H          1 MOL1         0.0687
       6    H2      19.275401   17.944086   20.939188 H          1 MOL1         0.0687
       7    C3      20.183880   19.697995   21.869628 C.3        1 MOL1        -0.1974
       8    H3      20.918645   19.909202   22.659142 H          1 MOL1         0.0689
       9    H4      20.595143   20.103346   20.934547 H          1 MOL1         0.0689
      10    C4      18.853609   20.404655   22.198722 C.3        1 MOL1        -0.2987
      11    H5      19.004121   21.488087   22.292435 H          1 MOL1         0.0700
      12    H6      18.111401   20.232648   21.408092 H          1 MOL1         0.0700
      13    H7      18.437416   20.037040   23.145928 H          1 MOL1         0.0700
@<TRIPOS>BOND
    1     1     2    1
    2     1     3    2
    3     1     4    1
    4     4     5    1
    5     4     6    1
    6     4     7    1
    7     7     8    1
    8     7     9    1
    9     7    10    1
   10    10    11    1
   11    10    12    1
   12    10    13    1
@<TRIPOS>SUBSTRUCTURE
       1 MOL1            1 RESIDUE      1      MOL     
@<SCITEGIC>MOL_PROPERTY
VConf Rank
SciTegic.value.IntegerValue
166

@<SCITEGIC>MOL_PROPERTY
Conf_Id
SciTegic.value.IntegerValue
1

@<SCITEGIC>MOL_PROPERTY
Delta U+W
SciTegic.value.DoubleValue
-1.339

@<SCITEGIC>MOL_PROPERTY
U+W
SciTegic.value.DoubleValue
-59.672

@<SCITEGIC>MOL_PROPERTY
Grad RMS
SciTegic.value.DoubleValue
0.000000

@<SCITEGIC>MOL_PROPERTY
U
SciTegic.value.DoubleValue
7.389

@<SCITEGIC>MOL_PROPERTY
W
SciTegic.value.DoubleValue
-67.061

@<SCITEGIC>MOL_PROPERTY
W(PB)
SciTegic.value.DoubleValue
-68.767

@<SCITEGIC>MOL_PROPERTY
W(SA)
SciTegic.value.DoubleValue
1.707

@<SCITEGIC>MOL_PROPERTY
Valence
SciTegic.value.DoubleValue
5.822

@<SCITEGIC>MOL_PROPERTY
Coulomb
SciTegic.value.DoubleValue
1.255

@<SCITEGIC>MOL_PROPERTY
VdW
SciTegic.value.DoubleValue
0.312

@<SCITEGIC>MOL_PROPERTY
VdW6
SciTegic.value.DoubleValue
-3.061

@<SCITEGIC>MOL_PROPERTY
VdW12
SciTegic.value.DoubleValue
3.372

@<SCITEGIC>MOL_PROPERTY
Bond
SciTegic.value.DoubleValue
0.059

@<SCITEGIC>MOL_PROPERTY
Angle
SciTegic.value.DoubleValue
2.241

@<SCITEGIC>MOL_PROPERTY
Pdih
SciTegic.value.DoubleValue
3.522

@<SCITEGIC>MOL_PROPERTY
Idih
SciTegic.value.DoubleValue
0.000

@<SCITEGIC>MOL_PROPERTY
Tether
SciTegic.value.DoubleValue
0.000

@<TRIPOS>MOLECULE
guest-6_confgen4.mol2 : confsearch ligand conformer 167
          13          12           1
SMALL
USER_CHARGES
 
@<TRIPOS>ATOM
       1    C1      20.529458   19.699410   23.581896 C.2        1 MOL1         0.6021
       2    O1      21.283325   19.059639   24.287924 O.co2      1 MOL1        -0.6904
       3    O2      20.579628   20.908209   23.471484 O.co2      1 MOL1        -0.6904
       4    C2      19.440177   18.945890   22.822684 C.3        1 MOL1        -0.2102
       5    H1      18.672126   19.662515   22.506721 H          1 MOL1         0.0687
       6    H2      18.961177   18.260788   23.532318 H          1 MOL1         0.0687
       7    C3      19.957110   18.143968   21.600783 C.3        1 MOL1        -0.1974
       8    H3      20.754518   17.458852   21.921217 H          1 MOL1         0.0689
       9    H4      19.142547   17.519204   21.209590 H          1 MOL1         0.0689
      10    C4      20.477717   19.057871   20.472209 C.3        1 MOL1        -0.2987
      11    H5      21.324201   19.666858   20.816340 H          1 MOL1         0.0700
      12    H6      20.817107   18.460361   19.616119 H          1 MOL1         0.0700
      13    H7      19.689092   19.736443   20.121490 H          1 MOL1         0.0700
@<TRIPOS>BOND
    1     1     2    1
    2     1     3    2
    3     1     4    1
    4     4     5    1
    5     4     6    1
    6     4     7    1
    7     7     8    1
    8     7     9    1
    9     7    10    1
   10    10    11    1
   11    10    12    1
   12    10    13    1
@<TRIPOS>SUBSTRUCTURE
       1 MOL1            1 RESIDUE      1      MOL     
@<SCITEGIC>MOL_PROPERTY
VConf Rank
SciTegic.value.IntegerValue
167

@<SCITEGIC>MOL_PROPERTY
Conf_Id
SciTegic.value.IntegerValue
4

@<SCITEGIC>MOL_PROPERTY
Delta U+W
SciTegic.value.DoubleValue
0.281

@<SCITEGIC>MOL_PROPERTY
U+W
SciTegic.value.DoubleValue
-58.051

@<SCITEGIC>MOL_PROPERTY
Grad RMS
SciTegic.value.DoubleValue
0.000000

@<SCITEGIC>MOL_PROPERTY
U
SciTegic.value.DoubleValue
9.781

@<SCITEGIC>MOL_PROPERTY
W
SciTegic.value.DoubleValue
-67.832

@<SCITEGIC>MOL_PROPERTY
W(PB)
SciTegic.value.DoubleValue
-69.535

@<SCITEGIC>MOL_PROPERTY
W(SA)
SciTegic.value.DoubleValue
1.703

@<SCITEGIC>MOL_PROPERTY
Valence
SciTegic.value.DoubleValue
6.123

@<SCITEGIC>MOL_PROPERTY
Coulomb
SciTegic.value.DoubleValue
3.449

@<SCITEGIC>MOL_PROPERTY
VdW
SciTegic.value.DoubleValue
0.209

@<SCITEGIC>MOL_PROPERTY
VdW6
SciTegic.value.DoubleValue
-3.762

@<SCITEGIC>MOL_PROPERTY
VdW12
SciTegic.value.DoubleValue
3.972

@<SCITEGIC>MOL_PROPERTY
Bond
SciTegic.value.DoubleValue
0.078

@<SCITEGIC>MOL_PROPERTY
Angle
SciTegic.value.DoubleValue
2.428

@<SCITEGIC>MOL_PROPERTY
Pdih
SciTegic.value.DoubleValue
3.616

@<SCITEGIC>MOL_PROPERTY
Idih
SciTegic.value.DoubleValue
0.002

@<SCITEGIC>MOL_PROPERTY
Tether
SciTegic.value.DoubleValue
0.000

@<TRIPOS>MOLECULE
guest-6_confgen4.mol2 : confsearch ligand conformer 168
          13          12           1
SMALL
USER_CHARGES
 
@<TRIPOS>ATOM
       1    C1      19.344560   20.414794   21.275078 C.2        1 MOL1         0.6021
       2    O1      20.199506   21.217602   20.958106 O.co2      1 MOL1        -0.6904
       3    O2      18.340212   20.213148   20.621839 O.co2      1 MOL1        -0.6904
       4    C2      19.521675   19.643401   22.580569 C.3        1 MOL1        -0.2102
       5    H1      18.575236   19.709388   23.130374 H          1 MOL1         0.0687
       6    H2      20.278161   20.152936   23.189986 H          1 MOL1         0.0687
       7    C3      19.904528   18.153253   22.390254 C.3        1 MOL1        -0.1974
       8    H3      19.862692   17.643885   23.362708 H          1 MOL1         0.0689
       9    H4      19.162696   17.662555   21.744636 H          1 MOL1         0.0689
      10    C4      21.314790   17.978055   21.789926 C.3        1 MOL1        -0.2987
      11    H5      22.074950   18.442515   22.431661 H          1 MOL1         0.0700
      12    H6      21.561817   16.913420   21.686837 H          1 MOL1         0.0700
      13    H7      21.380188   18.438223   20.795042 H          1 MOL1         0.0700
@<TRIPOS>BOND
    1     1     2    1
    2     1     3    2
    3     1     4    1
    4     4     5    1
    5     4     6    1
    6     4     7    1
    7     7     8    1
    8     7     9    1
    9     7    10    1
   10    10    11    1
   11    10    12    1
   12    10    13    1
@<TRIPOS>SUBSTRUCTURE
       1 MOL1            1 RESIDUE      1      MOL     
@<SCITEGIC>MOL_PROPERTY
VConf Rank
SciTegic.value.IntegerValue
168

@<SCITEGIC>MOL_PROPERTY
Conf_Id
SciTegic.value.IntegerValue
36

@<SCITEGIC>MOL_PROPERTY
Delta U+W
SciTegic.value.DoubleValue
0.272

@<SCITEGIC>MOL_PROPERTY
U+W
SciTegic.value.DoubleValue
-58.060

@<SCITEGIC>MOL_PROPERTY
Grad RMS
SciTegic.value.DoubleValue
0.000000

@<SCITEGIC>MOL_PROPERTY
U
SciTegic.value.DoubleValue
9.781

@<SCITEGIC>MOL_PROPERTY
W
SciTegic.value.DoubleValue
-67.841

@<SCITEGIC>MOL_PROPERTY
W(PB)
SciTegic.value.DoubleValue
-69.537

@<SCITEGIC>MOL_PROPERTY
W(SA)
SciTegic.value.DoubleValue
1.696

@<SCITEGIC>MOL_PROPERTY
Valence
SciTegic.value.DoubleValue
6.123

@<SCITEGIC>MOL_PROPERTY
Coulomb
SciTegic.value.DoubleValue
3.449

@<SCITEGIC>MOL_PROPERTY
VdW
SciTegic.value.DoubleValue
0.209

@<SCITEGIC>MOL_PROPERTY
VdW6
SciTegic.value.DoubleValue
-3.762

@<SCITEGIC>MOL_PROPERTY
VdW12
SciTegic.value.DoubleValue
3.972

@<SCITEGIC>MOL_PROPERTY
Bond
SciTegic.value.DoubleValue
0.078

@<SCITEGIC>MOL_PROPERTY
Angle
SciTegic.value.DoubleValue
2.428

@<SCITEGIC>MOL_PROPERTY
Pdih
SciTegic.value.DoubleValue
3.616

@<SCITEGIC>MOL_PROPERTY
Idih
SciTegic.value.DoubleValue
0.002

@<SCITEGIC>MOL_PROPERTY
Tether
SciTegic.value.DoubleValue
0.000

@<TRIPOS>MOLECULE
guest-6_confgen4.mol2 : confsearch ligand conformer 169
          13          12           1
SMALL
USER_CHARGES
 
@<TRIPOS>ATOM
       1    C1      19.962989   19.511080   23.890539 C.2        1 MOL1         0.6021
       2    O1      20.893376   18.846159   24.302351 O.co2      1 MOL1        -0.6904
       3    O2      19.287872   20.220274   24.608910 O.co2      1 MOL1        -0.6904
       4    C2      19.600598   19.474199   22.404607 C.3        1 MOL1        -0.2102
       5    H1      19.649642   20.503453   22.029680 H          1 MOL1         0.0687
       6    H2      18.553938   19.155882   22.330347 H          1 MOL1         0.0687
       7    C3      20.489695   18.555351   21.526438 C.3        1 MOL1        -0.1974
       8    H3      21.538494   18.874216   21.604551 H          1 MOL1         0.0689
       9    H4      20.441503   17.524991   21.905635 H          1 MOL1         0.0689
      10    C4      20.051026   18.582168   20.048370 C.3        1 MOL1        -0.2987
      11    H5      20.120027   19.597566   19.636391 H          1 MOL1         0.0700
      12    H6      20.691027   17.926750   19.443321 H          1 MOL1         0.0700
      13    H7      19.014204   18.237555   19.939911 H          1 MOL1         0.0700
@<TRIPOS>BOND
    1     1     2    1
    2     1     3    2
    3     1     4    1
    4     4     5    1
    5     4     6    1
    6     4     7    1
    7     7     8    1
    8     7     9    1
    9     7    10    1
   10    10    11    1
   11    10    12    1
   12    10    13    1
@<TRIPOS>SUBSTRUCTURE
       1 MOL1            1 RESIDUE      1      MOL     
@<SCITEGIC>MOL_PROPERTY
VConf Rank
SciTegic.value.IntegerValue
169

@<SCITEGIC>MOL_PROPERTY
Conf_Id
SciTegic.value.IntegerValue
0

@<SCITEGIC>MOL_PROPERTY
Delta U+W
SciTegic.value.DoubleValue
0.000

@<SCITEGIC>MOL_PROPERTY
U+W
SciTegic.value.DoubleValue
-58.332

@<SCITEGIC>MOL_PROPERTY
Grad RMS
SciTegic.value.DoubleValue
0.000000

@<SCITEGIC>MOL_PROPERTY
U
SciTegic.value.DoubleValue
8.390

@<SCITEGIC>MOL_PROPERTY
W
SciTegic.value.DoubleValue
-66.722

@<SCITEGIC>MOL_PROPERTY
W(PB)
SciTegic.value.DoubleValue
-68.455

@<SCITEGIC>MOL_PROPERTY
W(SA)
SciTegic.value.DoubleValue
1.733

@<SCITEGIC>MOL_PROPERTY
Valence
SciTegic.value.DoubleValue
6.333

@<SCITEGIC>MOL_PROPERTY
Coulomb
SciTegic.value.DoubleValue
1.215

@<SCITEGIC>MOL_PROPERTY
VdW
SciTegic.value.DoubleValue
0.842

@<SCITEGIC>MOL_PROPERTY
VdW6
SciTegic.value.DoubleValue
-3.344

@<SCITEGIC>MOL_PROPERTY
VdW12
SciTegic.value.DoubleValue
4.186

@<SCITEGIC>MOL_PROPERTY
Bond
SciTegic.value.DoubleValue
0.091

@<SCITEGIC>MOL_PROPERTY
Angle
SciTegic.value.DoubleValue
2.713

@<SCITEGIC>MOL_PROPERTY
Pdih
SciTegic.value.DoubleValue
3.529

@<SCITEGIC>MOL_PROPERTY
Idih
SciTegic.value.DoubleValue
0.000

@<SCITEGIC>MOL_PROPERTY
Tether
SciTegic.value.DoubleValue
0.000

@<TRIPOS>MOLECULE
guest-6_confgen4.mol2 : confsearch ligand conformer 170
          13          12           1
SMALL
USER_CHARGES
 
@<TRIPOS>ATOM
       1    C1      18.486971   18.225615   20.590897 C.2        1 MOL1         0.6021
       2    O1      18.859139   17.423765   19.757896 O.co2      1 MOL1        -0.6904
       3    O2      17.469842   18.880906   20.484118 O.co2      1 MOL1        -0.6904
       4    C2      19.353074   18.434579   21.828515 C.3        1 MOL1        -0.2102
       5    H1      19.839138   17.481442   22.069949 H          1 MOL1         0.0687
       6    H2      18.693433   18.683068   22.668840 H          1 MOL1         0.0687
       7    C3      20.417335   19.542755   21.641052 C.3        1 MOL1        -0.1974
       8    H3      21.065715   19.288157   20.790990 H          1 MOL1         0.0689
       9    H4      19.919792   20.490019   21.390125 H          1 MOL1         0.0689
      10    C4      21.275486   19.729183   22.908377 C.3        1 MOL1        -0.2987
      11    H5      22.023498   20.518234   22.756267 H          1 MOL1         0.0700
      12    H6      20.652258   20.013740   23.766380 H          1 MOL1         0.0700
      13    H7      21.806993   18.802674   23.162617 H          1 MOL1         0.0700
@<TRIPOS>BOND
    1     1     2    1
    2     1     3    2
    3     1     4    1
    4     4     5    1
    5     4     6    1
    6     4     7    1
    7     7     8    1
    8     7     9    1
    9     7    10    1
   10    10    11    1
   11    10    12    1
   12    10    13    1
@<TRIPOS>SUBSTRUCTURE
       1 MOL1            1 RESIDUE      1      MOL     
@<SCITEGIC>MOL_PROPERTY
VConf Rank
SciTegic.value.IntegerValue
170

@<SCITEGIC>MOL_PROPERTY
Conf_Id
SciTegic.value.IntegerValue
1

@<SCITEGIC>MOL_PROPERTY
Delta U+W
SciTegic.value.DoubleValue
-1.339

@<SCITEGIC>MOL_PROPERTY
U+W
SciTegic.value.DoubleValue
-59.672

@<SCITEGIC>MOL_PROPERTY
Grad RMS
SciTegic.value.DoubleValue
0.000000

@<SCITEGIC>MOL_PROPERTY
U
SciTegic.value.DoubleValue
7.389

@<SCITEGIC>MOL_PROPERTY
W
SciTegic.value.DoubleValue
-67.061

@<SCITEGIC>MOL_PROPERTY
W(PB)
SciTegic.value.DoubleValue
-68.767

@<SCITEGIC>MOL_PROPERTY
W(SA)
SciTegic.value.DoubleValue
1.707

@<SCITEGIC>MOL_PROPERTY
Valence
SciTegic.value.DoubleValue
5.822

@<SCITEGIC>MOL_PROPERTY
Coulomb
SciTegic.value.DoubleValue
1.255

@<SCITEGIC>MOL_PROPERTY
VdW
SciTegic.value.DoubleValue
0.312

@<SCITEGIC>MOL_PROPERTY
VdW6
SciTegic.value.DoubleValue
-3.061

@<SCITEGIC>MOL_PROPERTY
VdW12
SciTegic.value.DoubleValue
3.372

@<SCITEGIC>MOL_PROPERTY
Bond
SciTegic.value.DoubleValue
0.059

@<SCITEGIC>MOL_PROPERTY
Angle
SciTegic.value.DoubleValue
2.241

@<SCITEGIC>MOL_PROPERTY
Pdih
SciTegic.value.DoubleValue
3.522

@<SCITEGIC>MOL_PROPERTY
Idih
SciTegic.value.DoubleValue
0.000

@<SCITEGIC>MOL_PROPERTY
Tether
SciTegic.value.DoubleValue
0.000

@<TRIPOS>MOLECULE
guest-6_confgen4.mol2 : confsearch ligand conformer 171
          13          12           1
SMALL
USER_CHARGES
 
@<TRIPOS>ATOM
       1    C1      21.390028   17.843240   21.408190 C.2        1 MOL1         0.6021
       2    O1      22.221891   17.501376   22.225033 O.co2      1 MOL1        -0.6904
       3    O2      20.913222   17.090167   20.582696 O.co2      1 MOL1        -0.6904
       4    C2      20.949067   19.304804   21.397609 C.3        1 MOL1        -0.2102
       5    H1      20.465328   19.518983   20.436666 H          1 MOL1         0.0687
       6    H2      21.855645   19.920208   21.439800 H          1 MOL1         0.0687
       7    C3      20.008059   19.692257   22.567106 C.3        1 MOL1        -0.1974
       8    H3      20.485052   19.435562   23.523405 H          1 MOL1         0.0689
       9    H4      19.864935   20.781472   22.568163 H          1 MOL1         0.0689
      10    C4      18.631197   19.003219   22.470121 C.3        1 MOL1        -0.2987
      11    H5      18.732900   17.910600   22.510962 H          1 MOL1         0.0700
      12    H6      17.983868   19.313735   23.300568 H          1 MOL1         0.0700
      13    H7      18.126994   19.264385   21.530459 H          1 MOL1         0.0700
@<TRIPOS>BOND
    1     1     2    1
    2     1     3    2
    3     1     4    1
    4     4     5    1
    5     4     6    1
    6     4     7    1
    7     7     8    1
    8     7     9    1
    9     7    10    1
   10    10    11    1
   11    10    12    1
   12    10    13    1
@<TRIPOS>SUBSTRUCTURE
       1 MOL1            1 RESIDUE      1      MOL     
@<SCITEGIC>MOL_PROPERTY
VConf Rank
SciTegic.value.IntegerValue
171

@<SCITEGIC>MOL_PROPERTY
Conf_Id
SciTegic.value.IntegerValue
4

@<SCITEGIC>MOL_PROPERTY
Delta U+W
SciTegic.value.DoubleValue
0.281

@<SCITEGIC>MOL_PROPERTY
U+W
SciTegic.value.DoubleValue
-58.051

@<SCITEGIC>MOL_PROPERTY
Grad RMS
SciTegic.value.DoubleValue
0.000000

@<SCITEGIC>MOL_PROPERTY
U
SciTegic.value.DoubleValue
9.781

@<SCITEGIC>MOL_PROPERTY
W
SciTegic.value.DoubleValue
-67.832

@<SCITEGIC>MOL_PROPERTY
W(PB)
SciTegic.value.DoubleValue
-69.535

@<SCITEGIC>MOL_PROPERTY
W(SA)
SciTegic.value.DoubleValue
1.703

@<SCITEGIC>MOL_PROPERTY
Valence
SciTegic.value.DoubleValue
6.123

@<SCITEGIC>MOL_PROPERTY
Coulomb
SciTegic.value.DoubleValue
3.449

@<SCITEGIC>MOL_PROPERTY
VdW
SciTegic.value.DoubleValue
0.209

@<SCITEGIC>MOL_PROPERTY
VdW6
SciTegic.value.DoubleValue
-3.762

@<SCITEGIC>MOL_PROPERTY
VdW12
SciTegic.value.DoubleValue
3.972

@<SCITEGIC>MOL_PROPERTY
Bond
SciTegic.value.DoubleValue
0.078

@<SCITEGIC>MOL_PROPERTY
Angle
SciTegic.value.DoubleValue
2.428

@<SCITEGIC>MOL_PROPERTY
Pdih
SciTegic.value.DoubleValue
3.616

@<SCITEGIC>MOL_PROPERTY
Idih
SciTegic.value.DoubleValue
0.002

@<SCITEGIC>MOL_PROPERTY
Tether
SciTegic.value.DoubleValue
0.000

@<TRIPOS>MOLECULE
guest-6_confgen4.mol2 : confsearch ligand conformer 172
          13          12           1
SMALL
USER_CHARGES
 
@<TRIPOS>ATOM
       1    C1      21.442572   20.169878   21.901889 C.2        1 MOL1         0.6021
       2    O1      22.251142   19.954874   22.782737 O.co2      1 MOL1        -0.6904
       3    O2      21.750388   20.537251   20.785473 O.co2      1 MOL1        -0.6904
       4    C2      19.959074   20.005069   22.222507 C.3        1 MOL1        -0.2102
       5    H1      19.444101   20.901828   21.857798 H          1 MOL1         0.0687
       6    H2      19.834659   19.989555   23.312262 H          1 MOL1         0.0687
       7    C3      19.309847   18.745850   21.593055 C.3        1 MOL1        -0.1974
       8    H3      18.222756   18.786722   21.746139 H          1 MOL1         0.0689
       9    H4      19.476100   18.750480   20.506657 H          1 MOL1         0.0689
      10    C4      19.854973   17.435571   22.197979 C.3        1 MOL1        -0.2987
      11    H5      19.678997   17.400377   23.281116 H          1 MOL1         0.0700
      12    H6      19.361403   16.565769   21.745288 H          1 MOL1         0.0700
      13    H7      20.934999   17.339953   22.024118 H          1 MOL1         0.0700
@<TRIPOS>BOND
    1     1     2    1
    2     1     3    2
    3     1     4    1
    4     4     5    1
    5     4     6    1
    6     4     7    1
    7     7     8    1
    8     7     9    1
    9     7    10    1
   10    10    11    1
   11    10    12    1
   12    10    13    1
@<TRIPOS>SUBSTRUCTURE
       1 MOL1            1 RESIDUE      1      MOL     
@<SCITEGIC>MOL_PROPERTY
VConf Rank
SciTegic.value.IntegerValue
172

@<SCITEGIC>MOL_PROPERTY
Conf_Id
SciTegic.value.IntegerValue
36

@<SCITEGIC>MOL_PROPERTY
Delta U+W
SciTegic.value.DoubleValue
0.272

@<SCITEGIC>MOL_PROPERTY
U+W
SciTegic.value.DoubleValue
-58.060

@<SCITEGIC>MOL_PROPERTY
Grad RMS
SciTegic.value.DoubleValue
0.000000

@<SCITEGIC>MOL_PROPERTY
U
SciTegic.value.DoubleValue
9.781

@<SCITEGIC>MOL_PROPERTY
W
SciTegic.value.DoubleValue
-67.841

@<SCITEGIC>MOL_PROPERTY
W(PB)
SciTegic.value.DoubleValue
-69.537

@<SCITEGIC>MOL_PROPERTY
W(SA)
SciTegic.value.DoubleValue
1.696

@<SCITEGIC>MOL_PROPERTY
Valence
SciTegic.value.DoubleValue
6.123

@<SCITEGIC>MOL_PROPERTY
Coulomb
SciTegic.value.DoubleValue
3.449

@<SCITEGIC>MOL_PROPERTY
VdW
SciTegic.value.DoubleValue
0.209

@<SCITEGIC>MOL_PROPERTY
VdW6
SciTegic.value.DoubleValue
-3.762

@<SCITEGIC>MOL_PROPERTY
VdW12
SciTegic.value.DoubleValue
3.972

@<SCITEGIC>MOL_PROPERTY
Bond
SciTegic.value.DoubleValue
0.078

@<SCITEGIC>MOL_PROPERTY
Angle
SciTegic.value.DoubleValue
2.428

@<SCITEGIC>MOL_PROPERTY
Pdih
SciTegic.value.DoubleValue
3.616

@<SCITEGIC>MOL_PROPERTY
Idih
SciTegic.value.DoubleValue
0.002

@<SCITEGIC>MOL_PROPERTY
Tether
SciTegic.value.DoubleValue
0.000

@<TRIPOS>MOLECULE
guest-6_confgen4.mol2 : confsearch ligand conformer 173
          13          12           1
SMALL
USER_CHARGES
 
@<TRIPOS>ATOM
       1    C1      21.853473   19.827456   21.105147 C.2        1 MOL1         0.6021
       2    O1      22.421674   20.035148   22.159348 O.co2      1 MOL1        -0.6904
       3    O2      22.347231   20.084573   20.025846 O.co2      1 MOL1        -0.6904
       4    C2      20.451303   19.215409   21.104450 C.3        1 MOL1        -0.2102
       5    H1      20.495594   18.295426   20.509465 H          1 MOL1         0.0687
       6    H2      19.790861   19.909861   20.571636 H          1 MOL1         0.0687
       7    C3      19.861519   18.904021   22.504860 C.3        1 MOL1        -0.1974
       8    H3      20.526311   18.210255   23.038242 H          1 MOL1         0.0689
       9    H4      19.820780   19.826669   23.100524 H          1 MOL1         0.0689
      10    C4      18.449814   18.291699   22.404935 C.3        1 MOL1        -0.2987
      11    H5      18.468812   17.350652   21.839609 H          1 MOL1         0.0700
      12    H6      18.049383   18.078436   23.404650 H          1 MOL1         0.0700
      13    H7      17.757635   18.980037   21.902339 H          1 MOL1         0.0700
@<TRIPOS>BOND
    1     1     2    1
    2     1     3    2
    3     1     4    1
    4     4     5    1
    5     4     6    1
    6     4     7    1
    7     7     8    1
    8     7     9    1
    9     7    10    1
   10    10    11    1
   11    10    12    1
   12    10    13    1
@<TRIPOS>SUBSTRUCTURE
       1 MOL1            1 RESIDUE      1      MOL     
@<SCITEGIC>MOL_PROPERTY
VConf Rank
SciTegic.value.IntegerValue
173

@<SCITEGIC>MOL_PROPERTY
Conf_Id
SciTegic.value.IntegerValue
0

@<SCITEGIC>MOL_PROPERTY
Delta U+W
SciTegic.value.DoubleValue
0.000

@<SCITEGIC>MOL_PROPERTY
U+W
SciTegic.value.DoubleValue
-58.332

@<SCITEGIC>MOL_PROPERTY
Grad RMS
SciTegic.value.DoubleValue
0.000000

@<SCITEGIC>MOL_PROPERTY
U
SciTegic.value.DoubleValue
8.390

@<SCITEGIC>MOL_PROPERTY
W
SciTegic.value.DoubleValue
-66.722

@<SCITEGIC>MOL_PROPERTY
W(PB)
SciTegic.value.DoubleValue
-68.455

@<SCITEGIC>MOL_PROPERTY
W(SA)
SciTegic.value.DoubleValue
1.733

@<SCITEGIC>MOL_PROPERTY
Valence
SciTegic.value.DoubleValue
6.333

@<SCITEGIC>MOL_PROPERTY
Coulomb
SciTegic.value.DoubleValue
1.215

@<SCITEGIC>MOL_PROPERTY
VdW
SciTegic.value.DoubleValue
0.842

@<SCITEGIC>MOL_PROPERTY
VdW6
SciTegic.value.DoubleValue
-3.344

@<SCITEGIC>MOL_PROPERTY
VdW12
SciTegic.value.DoubleValue
4.186

@<SCITEGIC>MOL_PROPERTY
Bond
SciTegic.value.DoubleValue
0.091

@<SCITEGIC>MOL_PROPERTY
Angle
SciTegic.value.DoubleValue
2.713

@<SCITEGIC>MOL_PROPERTY
Pdih
SciTegic.value.DoubleValue
3.529

@<SCITEGIC>MOL_PROPERTY
Idih
SciTegic.value.DoubleValue
0.000

@<SCITEGIC>MOL_PROPERTY
Tether
SciTegic.value.DoubleValue
0.000

@<TRIPOS>MOLECULE
guest-6_confgen4.mol2 : confsearch ligand conformer 174
          13          12           1
SMALL
USER_CHARGES
 
@<TRIPOS>ATOM
       1    C1      20.951115   18.530593   20.021927 C.2        1 MOL1         0.6021
       2    O1      21.353676   17.387953   19.934286 O.co2      1 MOL1        -0.6904
       3    O2      21.413150   19.455560   19.384494 O.co2      1 MOL1        -0.6904
       4    C2      19.817140   18.822948   20.998721 C.3        1 MOL1        -0.2102
       5    H1      19.168215   17.939782   21.042690 H          1 MOL1         0.0687
       6    H2      19.217249   19.644843   20.589284 H          1 MOL1         0.0687
       7    C3      20.319880   19.185647   22.417013 C.3        1 MOL1        -0.1974
       8    H3      20.927371   18.359756   22.812842 H          1 MOL1         0.0689
       9    H4      20.976299   20.065200   22.359364 H          1 MOL1         0.0689
      10    C4      19.150670   19.475115   23.379533 C.3        1 MOL1        -0.2987
      11    H5      19.526622   19.730102   24.378985 H          1 MOL1         0.0700
      12    H6      18.545278   20.317587   23.019953 H          1 MOL1         0.0700
      13    H7      18.496009   18.599051   23.476932 H          1 MOL1         0.0700
@<TRIPOS>BOND
    1     1     2    1
    2     1     3    2
    3     1     4    1
    4     4     5    1
    5     4     6    1
    6     4     7    1
    7     7     8    1
    8     7     9    1
    9     7    10    1
   10    10    11    1
   11    10    12    1
   12    10    13    1
@<TRIPOS>SUBSTRUCTURE
       1 MOL1            1 RESIDUE      1      MOL     
@<SCITEGIC>MOL_PROPERTY
VConf Rank
SciTegic.value.IntegerValue
174

@<SCITEGIC>MOL_PROPERTY
Conf_Id
SciTegic.value.IntegerValue
1

@<SCITEGIC>MOL_PROPERTY
Delta U+W
SciTegic.value.DoubleValue
-1.339

@<SCITEGIC>MOL_PROPERTY
U+W
SciTegic.value.DoubleValue
-59.672

@<SCITEGIC>MOL_PROPERTY
Grad RMS
SciTegic.value.DoubleValue
0.000000

@<SCITEGIC>MOL_PROPERTY
U
SciTegic.value.DoubleValue
7.389

@<SCITEGIC>MOL_PROPERTY
W
SciTegic.value.DoubleValue
-67.061

@<SCITEGIC>MOL_PROPERTY
W(PB)
SciTegic.value.DoubleValue
-68.767

@<SCITEGIC>MOL_PROPERTY
W(SA)
SciTegic.value.DoubleValue
1.707

@<SCITEGIC>MOL_PROPERTY
Valence
SciTegic.value.DoubleValue
5.822

@<SCITEGIC>MOL_PROPERTY
Coulomb
SciTegic.value.DoubleValue
1.255

@<SCITEGIC>MOL_PROPERTY
VdW
SciTegic.value.DoubleValue
0.312

@<SCITEGIC>MOL_PROPERTY
VdW6
SciTegic.value.DoubleValue
-3.061

@<SCITEGIC>MOL_PROPERTY
VdW12
SciTegic.value.DoubleValue
3.372

@<SCITEGIC>MOL_PROPERTY
Bond
SciTegic.value.DoubleValue
0.059

@<SCITEGIC>MOL_PROPERTY
Angle
SciTegic.value.DoubleValue
2.241

@<SCITEGIC>MOL_PROPERTY
Pdih
SciTegic.value.DoubleValue
3.522

@<SCITEGIC>MOL_PROPERTY
Idih
SciTegic.value.DoubleValue
0.000

@<SCITEGIC>MOL_PROPERTY
Tether
SciTegic.value.DoubleValue
0.000

@<TRIPOS>MOLECULE
guest-6_confgen4.mol2 : confsearch ligand conformer 175
          13          12           1
SMALL
USER_CHARGES
 
@<TRIPOS>ATOM
       1    C1      19.489302   19.835790   23.429718 C.2        1 MOL1         0.6021
       2    O1      19.993086   19.545135   24.496405 O.co2      1 MOL1        -0.6904
       3    O2      19.189359   20.971055   23.118089 O.co2      1 MOL1        -0.6904
       4    C2      19.185469   18.708781   22.445715 C.3        1 MOL1        -0.2102
       5    H1      18.464859   19.074617   21.703979 H          1 MOL1         0.0687
       6    H2      18.684688   17.910849   23.006883 H          1 MOL1         0.0687
       7    C3      20.436838   18.132163   21.735133 C.3        1 MOL1        -0.1974
       8    H3      21.169387   17.806684   22.487037 H          1 MOL1         0.0689
       9    H4      20.147976   17.236908   21.167726 H          1 MOL1         0.0689
      10    C4      21.091207   19.147515   20.775556 C.3        1 MOL1        -0.2987
      11    H5      21.433277   20.039083   21.317703 H          1 MOL1         0.0700
      12    H6      21.960715   18.701907   20.275071 H          1 MOL1         0.0700
      13    H7      20.382021   19.469522   20.001761 H          1 MOL1         0.0700
@<TRIPOS>BOND
    1     1     2    1
    2     1     3    2
    3     1     4    1
    4     4     5    1
    5     4     6    1
    6     4     7    1
    7     7     8    1
    8     7     9    1
    9     7    10    1
   10    10    11    1
   11    10    12    1
   12    10    13    1
@<TRIPOS>SUBSTRUCTURE
       1 MOL1            1 RESIDUE      1      MOL     
@<SCITEGIC>MOL_PROPERTY
VConf Rank
SciTegic.value.IntegerValue
175

@<SCITEGIC>MOL_PROPERTY
Conf_Id
SciTegic.value.IntegerValue
4

@<SCITEGIC>MOL_PROPERTY
Delta U+W
SciTegic.value.DoubleValue
0.281

@<SCITEGIC>MOL_PROPERTY
U+W
SciTegic.value.DoubleValue
-58.051

@<SCITEGIC>MOL_PROPERTY
Grad RMS
SciTegic.value.DoubleValue
0.000000

@<SCITEGIC>MOL_PROPERTY
U
SciTegic.value.DoubleValue
9.781

@<SCITEGIC>MOL_PROPERTY
W
SciTegic.value.DoubleValue
-67.832

@<SCITEGIC>MOL_PROPERTY
W(PB)
SciTegic.value.DoubleValue
-69.535

@<SCITEGIC>MOL_PROPERTY
W(SA)
SciTegic.value.DoubleValue
1.703

@<SCITEGIC>MOL_PROPERTY
Valence
SciTegic.value.DoubleValue
6.123

@<SCITEGIC>MOL_PROPERTY
Coulomb
SciTegic.value.DoubleValue
3.449

@<SCITEGIC>MOL_PROPERTY
VdW
SciTegic.value.DoubleValue
0.209

@<SCITEGIC>MOL_PROPERTY
VdW6
SciTegic.value.DoubleValue
-3.762

@<SCITEGIC>MOL_PROPERTY
VdW12
SciTegic.value.DoubleValue
3.972

@<SCITEGIC>MOL_PROPERTY
Bond
SciTegic.value.DoubleValue
0.078

@<SCITEGIC>MOL_PROPERTY
Angle
SciTegic.value.DoubleValue
2.428

@<SCITEGIC>MOL_PROPERTY
Pdih
SciTegic.value.DoubleValue
3.616

@<SCITEGIC>MOL_PROPERTY
Idih
SciTegic.value.DoubleValue
0.002

@<SCITEGIC>MOL_PROPERTY
Tether
SciTegic.value.DoubleValue
0.000

@<TRIPOS>MOLECULE
guest-6_confgen4.mol2 : confsearch ligand conformer 176
          13          12           1
SMALL
USER_CHARGES
 
@<TRIPOS>ATOM
       1    C1      20.126736   17.679069   23.241489 C.2        1 MOL1         0.6021
       2    O1      20.044195   18.178684   24.345788 O.co2      1 MOL1        -0.6904
       3    O2      19.580879   16.637777   22.935142 O.co2      1 MOL1        -0.6904
       4    C2      20.990082   18.375526   22.192534 C.3        1 MOL1        -0.2102
       5    H1      21.637592   17.613086   21.743309 H          1 MOL1         0.0687
       6    H2      21.648613   19.092009   22.698770 H          1 MOL1         0.0687
       7    C3      20.182579   19.088193   21.077464 C.3        1 MOL1        -0.1974
       8    H3      20.873497   19.427649   20.293709 H          1 MOL1         0.0689
       9    H4      19.496606   18.371291   20.604798 H          1 MOL1         0.0689
      10    C4      19.386927   20.299229   21.606858 C.3        1 MOL1        -0.2987
      11    H5      20.056718   21.039327   22.064051 H          1 MOL1         0.0700
      12    H6      18.843337   20.791866   20.790210 H          1 MOL1         0.0700
      13    H7      18.653249   19.989470   22.362895 H          1 MOL1         0.0700
@<TRIPOS>BOND
    1     1     2    1
    2     1     3    2
    3     1     4    1
    4     4     5    1
    5     4     6    1
    6     4     7    1
    7     7     8    1
    8     7     9    1
    9     7    10    1
   10    10    11    1
   11    10    12    1
   12    10    13    1
@<TRIPOS>SUBSTRUCTURE
       1 MOL1            1 RESIDUE      1      MOL     
@<SCITEGIC>MOL_PROPERTY
VConf Rank
SciTegic.value.IntegerValue
176

@<SCITEGIC>MOL_PROPERTY
Conf_Id
SciTegic.value.IntegerValue
36

@<SCITEGIC>MOL_PROPERTY
Delta U+W
SciTegic.value.DoubleValue
0.272

@<SCITEGIC>MOL_PROPERTY
U+W
SciTegic.value.DoubleValue
-58.060

@<SCITEGIC>MOL_PROPERTY
Grad RMS
SciTegic.value.DoubleValue
0.000000

@<SCITEGIC>MOL_PROPERTY
U
SciTegic.value.DoubleValue
9.781

@<SCITEGIC>MOL_PROPERTY
W
SciTegic.value.DoubleValue
-67.841

@<SCITEGIC>MOL_PROPERTY
W(PB)
SciTegic.value.DoubleValue
-69.537

@<SCITEGIC>MOL_PROPERTY
W(SA)
SciTegic.value.DoubleValue
1.696

@<SCITEGIC>MOL_PROPERTY
Valence
SciTegic.value.DoubleValue
6.123

@<SCITEGIC>MOL_PROPERTY
Coulomb
SciTegic.value.DoubleValue
3.449

@<SCITEGIC>MOL_PROPERTY
VdW
SciTegic.value.DoubleValue
0.209

@<SCITEGIC>MOL_PROPERTY
VdW6
SciTegic.value.DoubleValue
-3.762

@<SCITEGIC>MOL_PROPERTY
VdW12
SciTegic.value.DoubleValue
3.972

@<SCITEGIC>MOL_PROPERTY
Bond
SciTegic.value.DoubleValue
0.078

@<SCITEGIC>MOL_PROPERTY
Angle
SciTegic.value.DoubleValue
2.428

@<SCITEGIC>MOL_PROPERTY
Pdih
SciTegic.value.DoubleValue
3.616

@<SCITEGIC>MOL_PROPERTY
Idih
SciTegic.value.DoubleValue
0.002

@<SCITEGIC>MOL_PROPERTY
Tether
SciTegic.value.DoubleValue
0.000

@<TRIPOS>MOLECULE
guest-6_confgen4.mol2 : confsearch ligand conformer 177
          13          12           1
SMALL
USER_CHARGES
 
@<TRIPOS>ATOM
       1    C1      19.328392   20.908938   22.472322 C.2        1 MOL1         0.6021
       2    O1      19.014730   21.398910   21.405142 O.co2      1 MOL1        -0.6904
       3    O2      19.209498   21.494713   23.529454 O.co2      1 MOL1        -0.6904
       4    C2      19.902385   19.491541   22.519214 C.3        1 MOL1        -0.2102
       5    H1      19.258264   18.898808   23.179604 H          1 MOL1         0.0687
       6    H2      20.885647   19.551919   23.000761 H          1 MOL1         0.0687
       7    C3      20.035839   18.782931   21.145890 C.3        1 MOL1        -0.1974
       8    H3      19.049921   18.726056   20.663722 H          1 MOL1         0.0689
       9    H4      20.679250   19.380012   20.484625 H          1 MOL1         0.0689
      10    C4      20.621429   17.363905   21.291778 C.3        1 MOL1        -0.2987
      11    H5      19.979175   16.736899   21.924151 H          1 MOL1         0.0700
      12    H6      20.708292   16.878897   20.310718 H          1 MOL1         0.0700
      13    H7      21.621570   17.396116   21.743669 H          1 MOL1         0.0700
@<TRIPOS>BOND
    1     1     2    1
    2     1     3    2
    3     1     4    1
    4     4     5    1
    5     4     6    1
    6     4     7    1
    7     7     8    1
    8     7     9    1
    9     7    10    1
   10    10    11    1
   11    10    12    1
   12    10    13    1
@<TRIPOS>SUBSTRUCTURE
       1 MOL1            1 RESIDUE      1      MOL     
@<SCITEGIC>MOL_PROPERTY
VConf Rank
SciTegic.value.IntegerValue
177

@<SCITEGIC>MOL_PROPERTY
Conf_Id
SciTegic.value.IntegerValue
0

@<SCITEGIC>MOL_PROPERTY
Delta U+W
SciTegic.value.DoubleValue
0.000

@<SCITEGIC>MOL_PROPERTY
U+W
SciTegic.value.DoubleValue
-58.332

@<SCITEGIC>MOL_PROPERTY
Grad RMS
SciTegic.value.DoubleValue
0.000000

@<SCITEGIC>MOL_PROPERTY
U
SciTegic.value.DoubleValue
8.390

@<SCITEGIC>MOL_PROPERTY
W
SciTegic.value.DoubleValue
-66.722

@<SCITEGIC>MOL_PROPERTY
W(PB)
SciTegic.value.DoubleValue
-68.455

@<SCITEGIC>MOL_PROPERTY
W(SA)
SciTegic.value.DoubleValue
1.733

@<SCITEGIC>MOL_PROPERTY
Valence
SciTegic.value.DoubleValue
6.333

@<SCITEGIC>MOL_PROPERTY
Coulomb
SciTegic.value.DoubleValue
1.215

@<SCITEGIC>MOL_PROPERTY
VdW
SciTegic.value.DoubleValue
0.842

@<SCITEGIC>MOL_PROPERTY
VdW6
SciTegic.value.DoubleValue
-3.344

@<SCITEGIC>MOL_PROPERTY
VdW12
SciTegic.value.DoubleValue
4.186

@<SCITEGIC>MOL_PROPERTY
Bond
SciTegic.value.DoubleValue
0.091

@<SCITEGIC>MOL_PROPERTY
Angle
SciTegic.value.DoubleValue
2.713

@<SCITEGIC>MOL_PROPERTY
Pdih
SciTegic.value.DoubleValue
3.529

@<SCITEGIC>MOL_PROPERTY
Idih
SciTegic.value.DoubleValue
0.000

@<SCITEGIC>MOL_PROPERTY
Tether
SciTegic.value.DoubleValue
0.000

@<TRIPOS>MOLECULE
guest-6_confgen4.mol2 : confsearch ligand conformer 178
          13          12           1
SMALL
USER_CHARGES
 
@<TRIPOS>ATOM
       1    C1      20.381021   19.147605   19.759511 C.2        1 MOL1         0.6021
       2    O1      20.295959   18.103308   19.145044 O.co2      1 MOL1        -0.6904
       3    O2      21.053870   20.089634   19.391793 O.co2      1 MOL1        -0.6904
       4    C2      19.616844   19.276033   21.072918 C.3        1 MOL1        -0.2102
       5    H1      18.695285   18.686974   20.990712 H          1 MOL1         0.0687
       6    H2      19.320287   20.325017   21.194183 H          1 MOL1         0.0687
       7    C3      20.439353   18.809969   22.298524 C.3        1 MOL1        -0.1974
       8    H3      20.739126   17.761550   22.161503 H          1 MOL1         0.0689
       9    H4      21.364167   19.399980   22.365082 H          1 MOL1         0.0689
      10    C4      19.639732   18.952160   23.609126 C.3        1 MOL1        -0.2987
      11    H5      20.238839   18.617168   24.465930 H          1 MOL1         0.0700
      12    H6      19.353998   19.997882   23.783416 H          1 MOL1         0.0700
      13    H7      18.724193   18.346856   23.578282 H          1 MOL1         0.0700
@<TRIPOS>BOND
    1     1     2    1
    2     1     3    2
    3     1     4    1
    4     4     5    1
    5     4     6    1
    6     4     7    1
    7     7     8    1
    8     7     9    1
    9     7    10    1
   10    10    11    1
   11    10    12    1
   12    10    13    1
@<TRIPOS>SUBSTRUCTURE
       1 MOL1            1 RESIDUE      1      MOL     
@<SCITEGIC>MOL_PROPERTY
VConf Rank
SciTegic.value.IntegerValue
178

@<SCITEGIC>MOL_PROPERTY
Conf_Id
SciTegic.value.IntegerValue
1

@<SCITEGIC>MOL_PROPERTY
Delta U+W
SciTegic.value.DoubleValue
-1.339

@<SCITEGIC>MOL_PROPERTY
U+W
SciTegic.value.DoubleValue
-59.672

@<SCITEGIC>MOL_PROPERTY
Grad RMS
SciTegic.value.DoubleValue
0.000000

@<SCITEGIC>MOL_PROPERTY
U
SciTegic.value.DoubleValue
7.389

@<SCITEGIC>MOL_PROPERTY
W
SciTegic.value.DoubleValue
-67.061

@<SCITEGIC>MOL_PROPERTY
W(PB)
SciTegic.value.DoubleValue
-68.767

@<SCITEGIC>MOL_PROPERTY
W(SA)
SciTegic.value.DoubleValue
1.707

@<SCITEGIC>MOL_PROPERTY
Valence
SciTegic.value.DoubleValue
5.822

@<SCITEGIC>MOL_PROPERTY
Coulomb
SciTegic.value.DoubleValue
1.255

@<SCITEGIC>MOL_PROPERTY
VdW
SciTegic.value.DoubleValue
0.312

@<SCITEGIC>MOL_PROPERTY
VdW6
SciTegic.value.DoubleValue
-3.061

@<SCITEGIC>MOL_PROPERTY
VdW12
SciTegic.value.DoubleValue
3.372

@<SCITEGIC>MOL_PROPERTY
Bond
SciTegic.value.DoubleValue
0.059

@<SCITEGIC>MOL_PROPERTY
Angle
SciTegic.value.DoubleValue
2.241

@<SCITEGIC>MOL_PROPERTY
Pdih
SciTegic.value.DoubleValue
3.522

@<SCITEGIC>MOL_PROPERTY
Idih
SciTegic.value.DoubleValue
0.000

@<SCITEGIC>MOL_PROPERTY
Tether
SciTegic.value.DoubleValue
0.000

@<TRIPOS>MOLECULE
guest-6_confgen4.mol2 : confsearch ligand conformer 179
          13          12           1
SMALL
USER_CHARGES
 
@<TRIPOS>ATOM
       1    C1      20.984061   20.511239   21.695905 C.2        1 MOL1         0.6021
       2    O1      20.295150   21.441824   21.327786 O.co2      1 MOL1        -0.6904
       3    O2      21.900896   20.627721   22.484417 O.co2      1 MOL1        -0.6904
       4    C2      20.703577   19.130575   21.107839 C.3        1 MOL1        -0.2102
       5    H1      21.578437   18.491349   21.279003 H          1 MOL1         0.0687
       6    H2      20.607003   19.250995   20.022225 H          1 MOL1         0.0687
       7    C3      19.427632   18.450060   21.666591 C.3        1 MOL1        -0.1974
       8    H3      18.564585   19.116139   21.527269 H          1 MOL1         0.0689
       9    H4      19.221258   17.540497   21.086092 H          1 MOL1         0.0689
      10    C4      19.562295   18.076665   23.157353 C.3        1 MOL1        -0.2987
      11    H5      19.725600   18.969949   23.774769 H          1 MOL1         0.0700
      12    H6      18.651162   17.580083   23.515598 H          1 MOL1         0.0700
      13    H7      20.406527   17.392911   23.315930 H          1 MOL1         0.0700
@<TRIPOS>BOND
    1     1     2    1
    2     1     3    2
    3     1     4    1
    4     4     5    1
    5     4     6    1
    6     4     7    1
    7     7     8    1
    8     7     9    1
    9     7    10    1
   10    10    11    1
   11    10    12    1
   12    10    13    1
@<TRIPOS>SUBSTRUCTURE
       1 MOL1            1 RESIDUE      1      MOL     
@<SCITEGIC>MOL_PROPERTY
VConf Rank
SciTegic.value.IntegerValue
179

@<SCITEGIC>MOL_PROPERTY
Conf_Id
SciTegic.value.IntegerValue
4

@<SCITEGIC>MOL_PROPERTY
Delta U+W
SciTegic.value.DoubleValue
0.281

@<SCITEGIC>MOL_PROPERTY
U+W
SciTegic.value.DoubleValue
-58.051

@<SCITEGIC>MOL_PROPERTY
Grad RMS
SciTegic.value.DoubleValue
0.000000

@<SCITEGIC>MOL_PROPERTY
U
SciTegic.value.DoubleValue
9.781

@<SCITEGIC>MOL_PROPERTY
W
SciTegic.value.DoubleValue
-67.832

@<SCITEGIC>MOL_PROPERTY
W(PB)
SciTegic.value.DoubleValue
-69.535

@<SCITEGIC>MOL_PROPERTY
W(SA)
SciTegic.value.DoubleValue
1.703

@<SCITEGIC>MOL_PROPERTY
Valence
SciTegic.value.DoubleValue
6.123

@<SCITEGIC>MOL_PROPERTY
Coulomb
SciTegic.value.DoubleValue
3.449

@<SCITEGIC>MOL_PROPERTY
VdW
SciTegic.value.DoubleValue
0.209

@<SCITEGIC>MOL_PROPERTY
VdW6
SciTegic.value.DoubleValue
-3.762

@<SCITEGIC>MOL_PROPERTY
VdW12
SciTegic.value.DoubleValue
3.972

@<SCITEGIC>MOL_PROPERTY
Bond
SciTegic.value.DoubleValue
0.078

@<SCITEGIC>MOL_PROPERTY
Angle
SciTegic.value.DoubleValue
2.428

@<SCITEGIC>MOL_PROPERTY
Pdih
SciTegic.value.DoubleValue
3.616

@<SCITEGIC>MOL_PROPERTY
Idih
SciTegic.value.DoubleValue
0.002

@<SCITEGIC>MOL_PROPERTY
Tether
SciTegic.value.DoubleValue
0.000

@<TRIPOS>MOLECULE
guest-6_confgen4.mol2 : confsearch ligand conformer 180
          13          12           1
SMALL
USER_CHARGES
 
@<TRIPOS>ATOM
       1    C1      21.569615   18.051946   21.485163 C.2        1 MOL1         0.6021
       2    O1      22.234355   17.764572   22.460582 O.co2      1 MOL1        -0.6904
       3    O2      21.425572   17.312956   20.531621 O.co2      1 MOL1        -0.6904
       4    C2      20.908852   19.427366   21.436808 C.3        1 MOL1        -0.2102
       5    H1      21.135649   19.864852   20.457239 H          1 MOL1         0.0687
       6    H2      21.382009   20.071177   22.188417 H          1 MOL1         0.0687
       7    C3      19.373080   19.401347   21.646720 C.3        1 MOL1        -0.1974
       8    H3      18.965573   20.401866   21.447295 H          1 MOL1         0.0689
       9    H4      18.913448   18.721710   20.915451 H          1 MOL1         0.0689
      10    C4      18.979678   18.972637   23.075486 C.3        1 MOL1        -0.2987
      11    H5      19.410873   19.652536   23.821944 H          1 MOL1         0.0700
      12    H6      17.888612   18.983774   23.196100 H          1 MOL1         0.0700
      13    H7      19.333695   17.956436   23.294192 H          1 MOL1         0.0700
@<TRIPOS>BOND
    1     1     2    1
    2     1     3    2
    3     1     4    1
    4     4     5    1
    5     4     6    1
    6     4     7    1
    7     7     8    1
    8     7     9    1
    9     7    10    1
   10    10    11    1
   11    10    12    1
   12    10    13    1
@<TRIPOS>SUBSTRUCTURE
       1 MOL1            1 RESIDUE      1      MOL     
@<SCITEGIC>MOL_PROPERTY
VConf Rank
SciTegic.value.IntegerValue
180

@<SCITEGIC>MOL_PROPERTY
Conf_Id
SciTegic.value.IntegerValue
36

@<SCITEGIC>MOL_PROPERTY
Delta U+W
SciTegic.value.DoubleValue
0.272

@<SCITEGIC>MOL_PROPERTY
U+W
SciTegic.value.DoubleValue
-58.060

@<SCITEGIC>MOL_PROPERTY
Grad RMS
SciTegic.value.DoubleValue
0.000000

@<SCITEGIC>MOL_PROPERTY
U
SciTegic.value.DoubleValue
9.781

@<SCITEGIC>MOL_PROPERTY
W
SciTegic.value.DoubleValue
-67.841

@<SCITEGIC>MOL_PROPERTY
W(PB)
SciTegic.value.DoubleValue
-69.537

@<SCITEGIC>MOL_PROPERTY
W(SA)
SciTegic.value.DoubleValue
1.696

@<SCITEGIC>MOL_PROPERTY
Valence
SciTegic.value.DoubleValue
6.123

@<SCITEGIC>MOL_PROPERTY
Coulomb
SciTegic.value.DoubleValue
3.449

@<SCITEGIC>MOL_PROPERTY
VdW
SciTegic.value.DoubleValue
0.209

@<SCITEGIC>MOL_PROPERTY
VdW6
SciTegic.value.DoubleValue
-3.762

@<SCITEGIC>MOL_PROPERTY
VdW12
SciTegic.value.DoubleValue
3.972

@<SCITEGIC>MOL_PROPERTY
Bond
SciTegic.value.DoubleValue
0.078

@<SCITEGIC>MOL_PROPERTY
Angle
SciTegic.value.DoubleValue
2.428

@<SCITEGIC>MOL_PROPERTY
Pdih
SciTegic.value.DoubleValue
3.616

@<SCITEGIC>MOL_PROPERTY
Idih
SciTegic.value.DoubleValue
0.002

@<SCITEGIC>MOL_PROPERTY
Tether
SciTegic.value.DoubleValue
0.000

@<TRIPOS>MOLECULE
guest-6_confgen4.mol2 : confsearch ligand conformer 181
          13          12           1
SMALL
USER_CHARGES
 
@<TRIPOS>ATOM
       1    C1      21.850294   19.906470   22.442922 C.2        1 MOL1         0.6021
       2    O1      22.601096   19.486157   21.584457 O.co2      1 MOL1        -0.6904
       3    O2      22.215835   20.637665   23.340993 O.co2      1 MOL1        -0.6904
       4    C2      20.371664   19.514362   22.418712 C.3        1 MOL1        -0.2102
       5    H1      19.787423   20.441359   22.377781 H          1 MOL1         0.0687
       6    H2      20.144111   19.034534   23.378047 H          1 MOL1         0.0687
       7    C3      19.951026   18.579855   21.254360 C.3        1 MOL1        -0.1974
       8    H3      20.182572   19.061316   20.293976 H          1 MOL1         0.0689
       9    H4      20.539756   17.652782   21.295425 H          1 MOL1         0.0689
      10    C4      18.448117   18.239556   21.311781 C.3        1 MOL1        -0.2987
      11    H5      17.836434   19.148603   21.241055 H          1 MOL1         0.0700
      12    H6      18.169576   17.578181   20.480965 H          1 MOL1         0.0700
      13    H7      18.196488   17.728804   22.250578 H          1 MOL1         0.0700
@<TRIPOS>BOND
    1     1     2    1
    2     1     3    2
    3     1     4    1
    4     4     5    1
    5     4     6    1
    6     4     7    1
    7     7     8    1
    8     7     9    1
    9     7    10    1
   10    10    11    1
   11    10    12    1
   12    10    13    1
@<TRIPOS>SUBSTRUCTURE
       1 MOL1            1 RESIDUE      1      MOL     
@<SCITEGIC>MOL_PROPERTY
VConf Rank
SciTegic.value.IntegerValue
181

@<SCITEGIC>MOL_PROPERTY
Conf_Id
SciTegic.value.IntegerValue
0

@<SCITEGIC>MOL_PROPERTY
Delta U+W
SciTegic.value.DoubleValue
0.000

@<SCITEGIC>MOL_PROPERTY
U+W
SciTegic.value.DoubleValue
-58.332

@<SCITEGIC>MOL_PROPERTY
Grad RMS
SciTegic.value.DoubleValue
0.000000

@<SCITEGIC>MOL_PROPERTY
U
SciTegic.value.DoubleValue
8.390

@<SCITEGIC>MOL_PROPERTY
W
SciTegic.value.DoubleValue
-66.722

@<SCITEGIC>MOL_PROPERTY
W(PB)
SciTegic.value.DoubleValue
-68.455

@<SCITEGIC>MOL_PROPERTY
W(SA)
SciTegic.value.DoubleValue
1.733

@<SCITEGIC>MOL_PROPERTY
Valence
SciTegic.value.DoubleValue
6.333

@<SCITEGIC>MOL_PROPERTY
Coulomb
SciTegic.value.DoubleValue
1.215

@<SCITEGIC>MOL_PROPERTY
VdW
SciTegic.value.DoubleValue
0.842

@<SCITEGIC>MOL_PROPERTY
VdW6
SciTegic.value.DoubleValue
-3.344

@<SCITEGIC>MOL_PROPERTY
VdW12
SciTegic.value.DoubleValue
4.186

@<SCITEGIC>MOL_PROPERTY
Bond
SciTegic.value.DoubleValue
0.091

@<SCITEGIC>MOL_PROPERTY
Angle
SciTegic.value.DoubleValue
2.713

@<SCITEGIC>MOL_PROPERTY
Pdih
SciTegic.value.DoubleValue
3.529

@<SCITEGIC>MOL_PROPERTY
Idih
SciTegic.value.DoubleValue
0.000

@<SCITEGIC>MOL_PROPERTY
Tether
SciTegic.value.DoubleValue
0.000

@<TRIPOS>MOLECULE
guest-6_confgen4.mol2 : confsearch ligand conformer 182
          13          12           1
SMALL
USER_CHARGES
 
@<TRIPOS>ATOM
       1    C1      19.100996   19.860164   20.100673 C.2        1 MOL1         0.6021
       2    O1      19.690842   20.789697   19.587438 O.co2      1 MOL1        -0.6904
       3    O2      17.908822   19.667741   19.970085 O.co2      1 MOL1        -0.6904
       4    C2      19.896608   18.893376   20.971203 C.3        1 MOL1        -0.2102
       5    H1      20.912620   18.824188   20.563831 H          1 MOL1         0.0687
       6    H2      19.443068   17.898949   20.879366 H          1 MOL1         0.0687
       7    C3      19.946870   19.320603   22.458079 C.3        1 MOL1        -0.1974
       8    H3      20.393658   20.321599   22.536870 H          1 MOL1         0.0689
       9    H4      18.923851   19.396059   22.852490 H          1 MOL1         0.0689
      10    C4      20.757567   18.323863   23.310471 C.3        1 MOL1        -0.2987
      11    H5      20.781825   18.643380   24.360510 H          1 MOL1         0.0700
      12    H6      20.312433   17.320921   23.271513 H          1 MOL1         0.0700
      13    H7      21.793514   18.253598   22.953493 H          1 MOL1         0.0700
@<TRIPOS>BOND
    1     1     2    1
    2     1     3    2
    3     1     4    1
    4     4     5    1
    5     4     6    1
    6     4     7    1
    7     7     8    1
    8     7     9    1
    9     7    10    1
   10    10    11    1
   11    10    12    1
   12    10    13    1
@<TRIPOS>SUBSTRUCTURE
       1 MOL1            1 RESIDUE      1      MOL     
@<SCITEGIC>MOL_PROPERTY
VConf Rank
SciTegic.value.IntegerValue
182

@<SCITEGIC>MOL_PROPERTY
Conf_Id
SciTegic.value.IntegerValue
1

@<SCITEGIC>MOL_PROPERTY
Delta U+W
SciTegic.value.DoubleValue
-1.339

@<SCITEGIC>MOL_PROPERTY
U+W
SciTegic.value.DoubleValue
-59.672

@<SCITEGIC>MOL_PROPERTY
Grad RMS
SciTegic.value.DoubleValue
0.000000

@<SCITEGIC>MOL_PROPERTY
U
SciTegic.value.DoubleValue
7.389

@<SCITEGIC>MOL_PROPERTY
W
SciTegic.value.DoubleValue
-67.061

@<SCITEGIC>MOL_PROPERTY
W(PB)
SciTegic.value.DoubleValue
-68.767

@<SCITEGIC>MOL_PROPERTY
W(SA)
SciTegic.value.DoubleValue
1.707

@<SCITEGIC>MOL_PROPERTY
Valence
SciTegic.value.DoubleValue
5.822

@<SCITEGIC>MOL_PROPERTY
Coulomb
SciTegic.value.DoubleValue
1.255

@<SCITEGIC>MOL_PROPERTY
VdW
SciTegic.value.DoubleValue
0.312

@<SCITEGIC>MOL_PROPERTY
VdW6
SciTegic.value.DoubleValue
-3.061

@<SCITEGIC>MOL_PROPERTY
VdW12
SciTegic.value.DoubleValue
3.372

@<SCITEGIC>MOL_PROPERTY
Bond
SciTegic.value.DoubleValue
0.059

@<SCITEGIC>MOL_PROPERTY
Angle
SciTegic.value.DoubleValue
2.241

@<SCITEGIC>MOL_PROPERTY
Pdih
SciTegic.value.DoubleValue
3.522

@<SCITEGIC>MOL_PROPERTY
Idih
SciTegic.value.DoubleValue
0.000

@<SCITEGIC>MOL_PROPERTY
Tether
SciTegic.value.DoubleValue
0.000

@<TRIPOS>MOLECULE
guest-6_confgen4.mol2 : confsearch ligand conformer 183
          13          12           1
SMALL
USER_CHARGES
 
@<TRIPOS>ATOM
       1    C1      19.042488   19.426399   23.349008 C.2        1 MOL1         0.6021
       2    O1      18.539357   18.507674   23.964560 O.co2      1 MOL1        -0.6904
       3    O2      19.457066   20.438783   23.877316 O.co2      1 MOL1        -0.6904
       4    C2      19.124131   19.315513   21.828559 C.3        1 MOL1        -0.2102
       5    H1      19.292520   20.316119   21.411761 H          1 MOL1         0.0687
       6    H2      18.141404   18.985105   21.471536 H          1 MOL1         0.0687
       7    C3      20.213119   18.335663   21.321274 C.3        1 MOL1        -0.1974
       8    H3      20.059558   17.347337   21.776853 H          1 MOL1         0.0689
       9    H4      20.101480   18.203858   20.236360 H          1 MOL1         0.0689
      10    C4      21.641830   18.832661   21.624104 C.3        1 MOL1        -0.2987
      11    H5      21.803657   18.933619   22.705514 H          1 MOL1         0.0700
      12    H6      22.387436   18.127053   21.235151 H          1 MOL1         0.0700
      13    H7      21.824137   19.810225   21.158781 H          1 MOL1         0.0700
@<TRIPOS>BOND
    1     1     2    1
    2     1     3    2
    3     1     4    1
    4     4     5    1
    5     4     6    1
    6     4     7    1
    7     7     8    1
    8     7     9    1
    9     7    10    1
   10    10    11    1
   11    10    12    1
   12    10    13    1
@<TRIPOS>SUBSTRUCTURE
       1 MOL1            1 RESIDUE      1      MOL     
@<SCITEGIC>MOL_PROPERTY
VConf Rank
SciTegic.value.IntegerValue
183

@<SCITEGIC>MOL_PROPERTY
Conf_Id
SciTegic.value.IntegerValue
4

@<SCITEGIC>MOL_PROPERTY
Delta U+W
SciTegic.value.DoubleValue
0.281

@<SCITEGIC>MOL_PROPERTY
U+W
SciTegic.value.DoubleValue
-58.051

@<SCITEGIC>MOL_PROPERTY
Grad RMS
SciTegic.value.DoubleValue
0.000000

@<SCITEGIC>MOL_PROPERTY
U
SciTegic.value.DoubleValue
9.781

@<SCITEGIC>MOL_PROPERTY
W
SciTegic.value.DoubleValue
-67.832

@<SCITEGIC>MOL_PROPERTY
W(PB)
SciTegic.value.DoubleValue
-69.535

@<SCITEGIC>MOL_PROPERTY
W(SA)
SciTegic.value.DoubleValue
1.703

@<SCITEGIC>MOL_PROPERTY
Valence
SciTegic.value.DoubleValue
6.123

@<SCITEGIC>MOL_PROPERTY
Coulomb
SciTegic.value.DoubleValue
3.449

@<SCITEGIC>MOL_PROPERTY
VdW
SciTegic.value.DoubleValue
0.209

@<SCITEGIC>MOL_PROPERTY
VdW6
SciTegic.value.DoubleValue
-3.762

@<SCITEGIC>MOL_PROPERTY
VdW12
SciTegic.value.DoubleValue
3.972

@<SCITEGIC>MOL_PROPERTY
Bond
SciTegic.value.DoubleValue
0.078

@<SCITEGIC>MOL_PROPERTY
Angle
SciTegic.value.DoubleValue
2.428

@<SCITEGIC>MOL_PROPERTY
Pdih
SciTegic.value.DoubleValue
3.616

@<SCITEGIC>MOL_PROPERTY
Idih
SciTegic.value.DoubleValue
0.002

@<SCITEGIC>MOL_PROPERTY
Tether
SciTegic.value.DoubleValue
0.000

@<TRIPOS>MOLECULE
guest-6_confgen4.mol2 : confsearch ligand conformer 184
          13          12           1
SMALL
USER_CHARGES
 
@<TRIPOS>ATOM
       1    C1      20.203874   19.430859   23.725551 C.2        1 MOL1         0.6021
       2    O1      19.166437   19.970101   24.055470 O.co2      1 MOL1        -0.6904
       3    O2      20.826928   18.678796   24.448256 O.co2      1 MOL1        -0.6904
       4    C2      20.775497   19.740697   22.344257 C.3        1 MOL1        -0.2102
       5    H1      21.837818   19.978515   22.475798 H          1 MOL1         0.0687
       6    H2      20.293148   20.647742   21.959685 H          1 MOL1         0.0687
       7    C3      20.628812   18.583899   21.322670 C.3        1 MOL1        -0.1974
       8    H3      21.194671   18.832016   20.414312 H          1 MOL1         0.0689
       9    H4      21.078661   17.669854   21.735076 H          1 MOL1         0.0689
      10    C4      19.158086   18.314995   20.942432 C.3        1 MOL1        -0.2987
      11    H5      18.695278   19.210387   20.507146 H          1 MOL1         0.0700
      12    H6      19.091208   17.505180   20.204312 H          1 MOL1         0.0700
      13    H7      18.570593   18.020134   21.822054 H          1 MOL1         0.0700
@<TRIPOS>BOND
    1     1     2    1
    2     1     3    2
    3     1     4    1
    4     4     5    1
    5     4     6    1
    6     4     7    1
    7     7     8    1
    8     7     9    1
    9     7    10    1
   10    10    11    1
   11    10    12    1
   12    10    13    1
@<TRIPOS>SUBSTRUCTURE
       1 MOL1            1 RESIDUE      1      MOL     
@<SCITEGIC>MOL_PROPERTY
VConf Rank
SciTegic.value.IntegerValue
184

@<SCITEGIC>MOL_PROPERTY
Conf_Id
SciTegic.value.IntegerValue
36

@<SCITEGIC>MOL_PROPERTY
Delta U+W
SciTegic.value.DoubleValue
0.272

@<SCITEGIC>MOL_PROPERTY
U+W
SciTegic.value.DoubleValue
-58.060

@<SCITEGIC>MOL_PROPERTY
Grad RMS
SciTegic.value.DoubleValue
0.000000

@<SCITEGIC>MOL_PROPERTY
U
SciTegic.value.DoubleValue
9.781

@<SCITEGIC>MOL_PROPERTY
W
SciTegic.value.DoubleValue
-67.841

@<SCITEGIC>MOL_PROPERTY
W(PB)
SciTegic.value.DoubleValue
-69.537

@<SCITEGIC>MOL_PROPERTY
W(SA)
SciTegic.value.DoubleValue
1.696

@<SCITEGIC>MOL_PROPERTY
Valence
SciTegic.value.DoubleValue
6.123

@<SCITEGIC>MOL_PROPERTY
Coulomb
SciTegic.value.DoubleValue
3.449

@<SCITEGIC>MOL_PROPERTY
VdW
SciTegic.value.DoubleValue
0.209

@<SCITEGIC>MOL_PROPERTY
VdW6
SciTegic.value.DoubleValue
-3.762

@<SCITEGIC>MOL_PROPERTY
VdW12
SciTegic.value.DoubleValue
3.972

@<SCITEGIC>MOL_PROPERTY
Bond
SciTegic.value.DoubleValue
0.078

@<SCITEGIC>MOL_PROPERTY
Angle
SciTegic.value.DoubleValue
2.428

@<SCITEGIC>MOL_PROPERTY
Pdih
SciTegic.value.DoubleValue
3.616

@<SCITEGIC>MOL_PROPERTY
Idih
SciTegic.value.DoubleValue
0.002

@<SCITEGIC>MOL_PROPERTY
Tether
SciTegic.value.DoubleValue
0.000

@<TRIPOS>MOLECULE
guest-6_confgen4.mol2 : confsearch ligand conformer 185
          13          12           1
SMALL
USER_CHARGES
 
@<TRIPOS>ATOM
       1    C1      18.557799   20.359255   22.566694 C.2        1 MOL1         0.6021
       2    O1      18.087221   20.762622   21.521141 O.co2      1 MOL1        -0.6904
       3    O2      18.173895   20.738513   23.654618 O.co2      1 MOL1        -0.6904
       4    C2      19.686568   19.326746   22.544612 C.3        1 MOL1        -0.2102
       5    H1      19.347106   18.457719   23.120717 H          1 MOL1         0.0687
       6    H2      20.536216   19.758407   23.086925 H          1 MOL1         0.0687
       7    C3      20.143739   18.872132   21.133840 C.3        1 MOL1        -0.1974
       8    H3      19.290196   18.442539   20.591006 H          1 MOL1         0.0689
       9    H4      20.480702   19.744843   20.557138 H          1 MOL1         0.0689
      10    C4      21.281452   17.834102   21.210889 C.3        1 MOL1        -0.2987
      11    H5      20.959106   16.937619   21.756723 H          1 MOL1         0.0700
      12    H6      21.591243   17.524769   20.204112 H          1 MOL1         0.0700
      13    H7      22.159149   18.250378   21.722636 H          1 MOL1         0.0700
@<TRIPOS>BOND
    1     1     2    1
    2     1     3    2
    3     1     4    1
    4     4     5    1
    5     4     6    1
    6     4     7    1
    7     7     8    1
    8     7     9    1
    9     7    10    1
   10    10    11    1
   11    10    12    1
   12    10    13    1
@<TRIPOS>SUBSTRUCTURE
       1 MOL1            1 RESIDUE      1      MOL     
@<SCITEGIC>MOL_PROPERTY
VConf Rank
SciTegic.value.IntegerValue
185

@<SCITEGIC>MOL_PROPERTY
Conf_Id
SciTegic.value.IntegerValue
0

@<SCITEGIC>MOL_PROPERTY
Delta U+W
SciTegic.value.DoubleValue
0.000

@<SCITEGIC>MOL_PROPERTY
U+W
SciTegic.value.DoubleValue
-58.332

@<SCITEGIC>MOL_PROPERTY
Grad RMS
SciTegic.value.DoubleValue
0.000000

@<SCITEGIC>MOL_PROPERTY
U
SciTegic.value.DoubleValue
8.390

@<SCITEGIC>MOL_PROPERTY
W
SciTegic.value.DoubleValue
-66.722

@<SCITEGIC>MOL_PROPERTY
W(PB)
SciTegic.value.DoubleValue
-68.455

@<SCITEGIC>MOL_PROPERTY
W(SA)
SciTegic.value.DoubleValue
1.733

@<SCITEGIC>MOL_PROPERTY
Valence
SciTegic.value.DoubleValue
6.333

@<SCITEGIC>MOL_PROPERTY
Coulomb
SciTegic.value.DoubleValue
1.215

@<SCITEGIC>MOL_PROPERTY
VdW
SciTegic.value.DoubleValue
0.842

@<SCITEGIC>MOL_PROPERTY
VdW6
SciTegic.value.DoubleValue
-3.344

@<SCITEGIC>MOL_PROPERTY
VdW12
SciTegic.value.DoubleValue
4.186

@<SCITEGIC>MOL_PROPERTY
Bond
SciTegic.value.DoubleValue
0.091

@<SCITEGIC>MOL_PROPERTY
Angle
SciTegic.value.DoubleValue
2.713

@<SCITEGIC>MOL_PROPERTY
Pdih
SciTegic.value.DoubleValue
3.529

@<SCITEGIC>MOL_PROPERTY
Idih
SciTegic.value.DoubleValue
0.000

@<SCITEGIC>MOL_PROPERTY
Tether
SciTegic.value.DoubleValue
0.000

@<TRIPOS>MOLECULE
guest-6_confgen4.mol2 : confsearch ligand conformer 186
          13          12           1
SMALL
USER_CHARGES
 
@<TRIPOS>ATOM
       1    C1      19.794848   18.451653   19.812906 C.2        1 MOL1         0.6021
       2    O1      20.248439   17.361416   19.528302 O.co2      1 MOL1        -0.6904
       3    O2      19.649301   19.348979   19.007311 O.co2      1 MOL1        -0.6904
       4    C2      19.404647   18.714273   21.263517 C.3        1 MOL1        -0.2102
       5    H1      19.051108   17.771284   21.698030 H          1 MOL1         0.0687
       6    H2      18.557006   19.410334   21.268385 H          1 MOL1         0.0687
       7    C3      20.568658   19.286581   22.108141 C.3        1 MOL1        -0.1974
       8    H3      21.415159   18.585976   22.087880 H          1 MOL1         0.0689
       9    H4      20.920871   20.225383   21.658231 H          1 MOL1         0.0689
      10    C4      20.142461   19.540656   23.567967 C.3        1 MOL1        -0.2987
      11    H5      20.980176   19.945902   24.150437 H          1 MOL1         0.0700
      12    H6      19.315939   20.261844   23.615986 H          1 MOL1         0.0700
      13    H7      19.814061   18.609857   24.048929 H          1 MOL1         0.0700
@<TRIPOS>BOND
    1     1     2    1
    2     1     3    2
    3     1     4    1
    4     4     5    1
    5     4     6    1
    6     4     7    1
    7     7     8    1
    8     7     9    1
    9     7    10    1
   10    10    11    1
   11    10    12    1
   12    10    13    1
@<TRIPOS>SUBSTRUCTURE
       1 MOL1            1 RESIDUE      1      MOL     
@<SCITEGIC>MOL_PROPERTY
VConf Rank
SciTegic.value.IntegerValue
186

@<SCITEGIC>MOL_PROPERTY
Conf_Id
SciTegic.value.IntegerValue
1

@<SCITEGIC>MOL_PROPERTY
Delta U+W
SciTegic.value.DoubleValue
-1.339

@<SCITEGIC>MOL_PROPERTY
U+W
SciTegic.value.DoubleValue
-59.672

@<SCITEGIC>MOL_PROPERTY
Grad RMS
SciTegic.value.DoubleValue
0.000000

@<SCITEGIC>MOL_PROPERTY
U
SciTegic.value.DoubleValue
7.389

@<SCITEGIC>MOL_PROPERTY
W
SciTegic.value.DoubleValue
-67.061

@<SCITEGIC>MOL_PROPERTY
W(PB)
SciTegic.value.DoubleValue
-68.767

@<SCITEGIC>MOL_PROPERTY
W(SA)
SciTegic.value.DoubleValue
1.707

@<SCITEGIC>MOL_PROPERTY
Valence
SciTegic.value.DoubleValue
5.822

@<SCITEGIC>MOL_PROPERTY
Coulomb
SciTegic.value.DoubleValue
1.255

@<SCITEGIC>MOL_PROPERTY
VdW
SciTegic.value.DoubleValue
0.312

@<SCITEGIC>MOL_PROPERTY
VdW6
SciTegic.value.DoubleValue
-3.061

@<SCITEGIC>MOL_PROPERTY
VdW12
SciTegic.value.DoubleValue
3.372

@<SCITEGIC>MOL_PROPERTY
Bond
SciTegic.value.DoubleValue
0.059

@<SCITEGIC>MOL_PROPERTY
Angle
SciTegic.value.DoubleValue
2.241

@<SCITEGIC>MOL_PROPERTY
Pdih
SciTegic.value.DoubleValue
3.522

@<SCITEGIC>MOL_PROPERTY
Idih
SciTegic.value.DoubleValue
0.000

@<SCITEGIC>MOL_PROPERTY
Tether
SciTegic.value.DoubleValue
0.000

@<TRIPOS>MOLECULE
guest-6_confgen4.mol2 : confsearch ligand conformer 187
          13          12           1
SMALL
USER_CHARGES
 
@<TRIPOS>ATOM
       1    C1      19.619052   17.301471   21.574821 C.2        1 MOL1         0.6021
       2    O1      19.830993   16.953586   20.430201 O.co2      1 MOL1        -0.6904
       3    O2      19.772637   16.573493   22.535219 O.co2      1 MOL1        -0.6904
       4    C2      19.098279   18.716704   21.812810 C.3        1 MOL1        -0.2102
       5    H1      18.662701   18.766430   22.818338 H          1 MOL1         0.0687
       6    H2      18.279069   18.887187   21.104137 H          1 MOL1         0.0687
       7    C3      20.168896   19.824424   21.639390 C.3        1 MOL1        -0.1974
       8    H3      20.627796   19.739751   20.644320 H          1 MOL1         0.0689
       9    H4      19.679547   20.807210   21.678660 H          1 MOL1         0.0689
      10    C4      21.263383   19.762773   22.724850 C.3        1 MOL1        -0.2987
      11    H5      21.804613   18.808113   22.685824 H          1 MOL1         0.0700
      12    H6      21.992995   20.570961   22.584871 H          1 MOL1         0.0700
      13    H7      20.828223   19.867905   23.727335 H          1 MOL1         0.0700
@<TRIPOS>BOND
    1     1     2    1
    2     1     3    2
    3     1     4    1
    4     4     5    1
    5     4     6    1
    6     4     7    1
    7     7     8    1
    8     7     9    1
    9     7    10    1
   10    10    11    1
   11    10    12    1
   12    10    13    1
@<TRIPOS>SUBSTRUCTURE
       1 MOL1            1 RESIDUE      1      MOL     
@<SCITEGIC>MOL_PROPERTY
VConf Rank
SciTegic.value.IntegerValue
187

@<SCITEGIC>MOL_PROPERTY
Conf_Id
SciTegic.value.IntegerValue
4

@<SCITEGIC>MOL_PROPERTY
Delta U+W
SciTegic.value.DoubleValue
0.281

@<SCITEGIC>MOL_PROPERTY
U+W
SciTegic.value.DoubleValue
-58.051

@<SCITEGIC>MOL_PROPERTY
Grad RMS
SciTegic.value.DoubleValue
0.000000

@<SCITEGIC>MOL_PROPERTY
U
SciTegic.value.DoubleValue
9.781

@<SCITEGIC>MOL_PROPERTY
W
SciTegic.value.DoubleValue
-67.832

@<SCITEGIC>MOL_PROPERTY
W(PB)
SciTegic.value.DoubleValue
-69.535

@<SCITEGIC>MOL_PROPERTY
W(SA)
SciTegic.value.DoubleValue
1.703

@<SCITEGIC>MOL_PROPERTY
Valence
SciTegic.value.DoubleValue
6.123

@<SCITEGIC>MOL_PROPERTY
Coulomb
SciTegic.value.DoubleValue
3.449

@<SCITEGIC>MOL_PROPERTY
VdW
SciTegic.value.DoubleValue
0.209

@<SCITEGIC>MOL_PROPERTY
VdW6
SciTegic.value.DoubleValue
-3.762

@<SCITEGIC>MOL_PROPERTY
VdW12
SciTegic.value.DoubleValue
3.972

@<SCITEGIC>MOL_PROPERTY
Bond
SciTegic.value.DoubleValue
0.078

@<SCITEGIC>MOL_PROPERTY
Angle
SciTegic.value.DoubleValue
2.428

@<SCITEGIC>MOL_PROPERTY
Pdih
SciTegic.value.DoubleValue
3.616

@<SCITEGIC>MOL_PROPERTY
Idih
SciTegic.value.DoubleValue
0.002

@<SCITEGIC>MOL_PROPERTY
Tether
SciTegic.value.DoubleValue
0.000

@<TRIPOS>MOLECULE
guest-6_confgen4.mol2 : confsearch ligand conformer 188
          13          12           1
SMALL
USER_CHARGES
 
@<TRIPOS>ATOM
       1    C1      19.325058   17.633777   21.100237 C.2        1 MOL1         0.6021
       2    O1      19.025412   18.013398   19.985784 O.co2      1 MOL1        -0.6904
       3    O2      19.733338   16.514718   21.339216 O.co2      1 MOL1        -0.6904
       4    C2      19.146263   18.600075   22.268580 C.3        1 MOL1        -0.2102
       5    H1      18.616252   18.059520   23.061848 H          1 MOL1         0.0687
       6    H2      18.489564   19.418953   21.950033 H          1 MOL1         0.0687
       7    C3      20.474394   19.168696   22.830786 C.3        1 MOL1        -0.1974
       8    H3      20.264816   19.727523   23.753099 H          1 MOL1         0.0689
       9    H4      21.140941   18.340052   23.108251 H          1 MOL1         0.0689
      10    C4      21.189095   20.099252   21.829189 C.3        1 MOL1        -0.2987
      11    H5      20.547984   20.947386   21.555260 H          1 MOL1         0.0700
      12    H6      22.113816   20.499377   22.264949 H          1 MOL1         0.0700
      13    H7      21.454075   19.560448   20.909787 H          1 MOL1         0.0700
@<TRIPOS>BOND
    1     1     2    1
    2     1     3    2
    3     1     4    1
    4     4     5    1
    5     4     6    1
    6     4     7    1
    7     7     8    1
    8     7     9    1
    9     7    10    1
   10    10    11    1
   11    10    12    1
   12    10    13    1
@<TRIPOS>SUBSTRUCTURE
       1 MOL1            1 RESIDUE      1      MOL     
@<SCITEGIC>MOL_PROPERTY
VConf Rank
SciTegic.value.IntegerValue
188

@<SCITEGIC>MOL_PROPERTY
Conf_Id
SciTegic.value.IntegerValue
36

@<SCITEGIC>MOL_PROPERTY
Delta U+W
SciTegic.value.DoubleValue
0.272

@<SCITEGIC>MOL_PROPERTY
U+W
SciTegic.value.DoubleValue
-58.060

@<SCITEGIC>MOL_PROPERTY
Grad RMS
SciTegic.value.DoubleValue
0.000000

@<SCITEGIC>MOL_PROPERTY
U
SciTegic.value.DoubleValue
9.781

@<SCITEGIC>MOL_PROPERTY
W
SciTegic.value.DoubleValue
-67.841

@<SCITEGIC>MOL_PROPERTY
W(PB)
SciTegic.value.DoubleValue
-69.537

@<SCITEGIC>MOL_PROPERTY
W(SA)
SciTegic.value.DoubleValue
1.696

@<SCITEGIC>MOL_PROPERTY
Valence
SciTegic.value.DoubleValue
6.123

@<SCITEGIC>MOL_PROPERTY
Coulomb
SciTegic.value.DoubleValue
3.449

@<SCITEGIC>MOL_PROPERTY
VdW
SciTegic.value.DoubleValue
0.209

@<SCITEGIC>MOL_PROPERTY
VdW6
SciTegic.value.DoubleValue
-3.762

@<SCITEGIC>MOL_PROPERTY
VdW12
SciTegic.value.DoubleValue
3.972

@<SCITEGIC>MOL_PROPERTY
Bond
SciTegic.value.DoubleValue
0.078

@<SCITEGIC>MOL_PROPERTY
Angle
SciTegic.value.DoubleValue
2.428

@<SCITEGIC>MOL_PROPERTY
Pdih
SciTegic.value.DoubleValue
3.616

@<SCITEGIC>MOL_PROPERTY
Idih
SciTegic.value.DoubleValue
0.002

@<SCITEGIC>MOL_PROPERTY
Tether
SciTegic.value.DoubleValue
0.000

@<TRIPOS>MOLECULE
guest-6_confgen4.mol2 : confsearch ligand conformer 189
          13          12           1
SMALL
USER_CHARGES
 
@<TRIPOS>ATOM
       1    C1      19.467779   17.322013   23.013163 C.2        1 MOL1         0.6021
       2    O1      20.080347   17.571315   24.032936 O.co2      1 MOL1        -0.6904
       3    O2      18.773336   16.334217   22.883534 O.co2      1 MOL1        -0.6904
       4    C2      19.555333   18.276396   21.820615 C.3        1 MOL1        -0.2102
       5    H1      18.533864   18.593454   21.578929 H          1 MOL1         0.0687
       6    H2      19.922176   17.698068   20.964285 H          1 MOL1         0.0687
       7    C3      20.453204   19.523421   22.032066 C.3        1 MOL1        -0.1974
       8    H3      20.085629   20.100004   22.892413 H          1 MOL1         0.0689
       9    H4      21.475642   19.203516   22.277090 H          1 MOL1         0.0689
      10    C4      20.480402   20.424346   20.780895 C.3        1 MOL1        -0.2987
      11    H5      19.472726   20.783051   20.533020 H          1 MOL1         0.0700
      12    H6      21.120100   21.300509   20.949359 H          1 MOL1         0.0700
      13    H7      20.873854   19.879335   19.912746 H          1 MOL1         0.0700
@<TRIPOS>BOND
    1     1     2    1
    2     1     3    2
    3     1     4    1
    4     4     5    1
    5     4     6    1
    6     4     7    1
    7     7     8    1
    8     7     9    1
    9     7    10    1
   10    10    11    1
   11    10    12    1
   12    10    13    1
@<TRIPOS>SUBSTRUCTURE
       1 MOL1            1 RESIDUE      1      MOL     
@<SCITEGIC>MOL_PROPERTY
VConf Rank
SciTegic.value.IntegerValue
189

@<SCITEGIC>MOL_PROPERTY
Conf_Id
SciTegic.value.IntegerValue
0

@<SCITEGIC>MOL_PROPERTY
Delta U+W
SciTegic.value.DoubleValue
0.000

@<SCITEGIC>MOL_PROPERTY
U+W
SciTegic.value.DoubleValue
-58.332

@<SCITEGIC>MOL_PROPERTY
Grad RMS
SciTegic.value.DoubleValue
0.000000

@<SCITEGIC>MOL_PROPERTY
U
SciTegic.value.DoubleValue
8.390

@<SCITEGIC>MOL_PROPERTY
W
SciTegic.value.DoubleValue
-66.722

@<SCITEGIC>MOL_PROPERTY
W(PB)
SciTegic.value.DoubleValue
-68.455

@<SCITEGIC>MOL_PROPERTY
W(SA)
SciTegic.value.DoubleValue
1.733

@<SCITEGIC>MOL_PROPERTY
Valence
SciTegic.value.DoubleValue
6.333

@<SCITEGIC>MOL_PROPERTY
Coulomb
SciTegic.value.DoubleValue
1.215

@<SCITEGIC>MOL_PROPERTY
VdW
SciTegic.value.DoubleValue
0.842

@<SCITEGIC>MOL_PROPERTY
VdW6
SciTegic.value.DoubleValue
-3.344

@<SCITEGIC>MOL_PROPERTY
VdW12
SciTegic.value.DoubleValue
4.186

@<SCITEGIC>MOL_PROPERTY
Bond
SciTegic.value.DoubleValue
0.091

@<SCITEGIC>MOL_PROPERTY
Angle
SciTegic.value.DoubleValue
2.713

@<SCITEGIC>MOL_PROPERTY
Pdih
SciTegic.value.DoubleValue
3.529

@<SCITEGIC>MOL_PROPERTY
Idih
SciTegic.value.DoubleValue
0.000

@<SCITEGIC>MOL_PROPERTY
Tether
SciTegic.value.DoubleValue
0.000

@<TRIPOS>MOLECULE
guest-6_confgen4.mol2 : confsearch ligand conformer 190
          13          12           1
SMALL
USER_CHARGES
 
@<TRIPOS>ATOM
       1    C1      17.962498   19.631628   21.866573 C.2        1 MOL1         0.6021
       2    O1      17.440797   19.812803   20.784739 O.co2      1 MOL1        -0.6904
       3    O2      17.575939   20.152378   22.893584 O.co2      1 MOL1        -0.6904
       4    C2      19.179891   18.715860   21.936020 C.3        1 MOL1        -0.2102
       5    H1      19.064505   17.936130   21.173311 H          1 MOL1         0.0687
       6    H2      19.175936   18.216149   22.912387 H          1 MOL1         0.0687
       7    C3      20.515714   19.469900   21.729022 C.3        1 MOL1        -0.1974
       8    H3      20.504305   19.974394   20.752714 H          1 MOL1         0.0689
       9    H4      20.615812   20.254367   22.492184 H          1 MOL1         0.0689
      10    C4      21.725693   18.517271   21.804778 C.3        1 MOL1        -0.2987
      11    H5      22.662681   19.069653   21.655824 H          1 MOL1         0.0700
      12    H6      21.775627   18.022844   22.783861 H          1 MOL1         0.0700
      13    H7      21.663277   17.740759   21.031026 H          1 MOL1         0.0700
@<TRIPOS>BOND
    1     1     2    1
    2     1     3    2
    3     1     4    1
    4     4     5    1
    5     4     6    1
    6     4     7    1
    7     7     8    1
    8     7     9    1
    9     7    10    1
   10    10    11    1
   11    10    12    1
   12    10    13    1
@<TRIPOS>SUBSTRUCTURE
       1 MOL1            1 RESIDUE      1      MOL     
@<SCITEGIC>MOL_PROPERTY
VConf Rank
SciTegic.value.IntegerValue
190

@<SCITEGIC>MOL_PROPERTY
Conf_Id
SciTegic.value.IntegerValue
1

@<SCITEGIC>MOL_PROPERTY
Delta U+W
SciTegic.value.DoubleValue
-1.339

@<SCITEGIC>MOL_PROPERTY
U+W
SciTegic.value.DoubleValue
-59.672

@<SCITEGIC>MOL_PROPERTY
Grad RMS
SciTegic.value.DoubleValue
0.000000

@<SCITEGIC>MOL_PROPERTY
U
SciTegic.value.DoubleValue
7.389

@<SCITEGIC>MOL_PROPERTY
W
SciTegic.value.DoubleValue
-67.061

@<SCITEGIC>MOL_PROPERTY
W(PB)
SciTegic.value.DoubleValue
-68.767

@<SCITEGIC>MOL_PROPERTY
W(SA)
SciTegic.value.DoubleValue
1.707

@<SCITEGIC>MOL_PROPERTY
Valence
SciTegic.value.DoubleValue
5.822

@<SCITEGIC>MOL_PROPERTY
Coulomb
SciTegic.value.DoubleValue
1.255

@<SCITEGIC>MOL_PROPERTY
VdW
SciTegic.value.DoubleValue
0.312

@<SCITEGIC>MOL_PROPERTY
VdW6
SciTegic.value.DoubleValue
-3.061

@<SCITEGIC>MOL_PROPERTY
VdW12
SciTegic.value.DoubleValue
3.372

@<SCITEGIC>MOL_PROPERTY
Bond
SciTegic.value.DoubleValue
0.059

@<SCITEGIC>MOL_PROPERTY
Angle
SciTegic.value.DoubleValue
2.241

@<SCITEGIC>MOL_PROPERTY
Pdih
SciTegic.value.DoubleValue
3.522

@<SCITEGIC>MOL_PROPERTY
Idih
SciTegic.value.DoubleValue
0.000

@<SCITEGIC>MOL_PROPERTY
Tether
SciTegic.value.DoubleValue
0.000

@<TRIPOS>MOLECULE
guest-6_confgen4.mol2 : confsearch ligand conformer 191
          13          12           1
SMALL
USER_CHARGES
 
@<TRIPOS>ATOM
       1    C1      21.369807   19.849485   21.056634 C.2        1 MOL1         0.6021
       2    O1      22.486249   19.868086   21.535497 O.co2      1 MOL1        -0.6904
       3    O2      21.152902   19.716435   19.868714 O.co2      1 MOL1        -0.6904
       4    C2      20.180427   20.039385   21.994739 C.3        1 MOL1        -0.2102
       5    H1      19.302748   20.316279   21.397833 H          1 MOL1         0.0687
       6    H2      20.406983   20.895954   22.640764 H          1 MOL1         0.0687
       7    C3      19.860489   18.802137   22.872347 C.3        1 MOL1        -0.1974
       8    H3      20.757877   18.508195   23.434677 H          1 MOL1         0.0689
       9    H4      19.098104   19.074957   23.614783 H          1 MOL1         0.0689
      10    C4      19.350431   17.605752   22.042628 C.3        1 MOL1        -0.2987
      11    H5      20.107007   17.276923   21.317857 H          1 MOL1         0.0700
      12    H6      19.114966   16.754859   22.695034 H          1 MOL1         0.0700
      13    H7      18.440194   17.871560   21.489269 H          1 MOL1         0.0700
@<TRIPOS>BOND
    1     1     2    1
    2     1     3    2
    3     1     4    1
    4     4     5    1
    5     4     6    1
    6     4     7    1
    7     7     8    1
    8     7     9    1
    9     7    10    1
   10    10    11    1
   11    10    12    1
   12    10    13    1
@<TRIPOS>SUBSTRUCTURE
       1 MOL1            1 RESIDUE      1      MOL     
@<SCITEGIC>MOL_PROPERTY
VConf Rank
SciTegic.value.IntegerValue
191

@<SCITEGIC>MOL_PROPERTY
Conf_Id
SciTegic.value.IntegerValue
4

@<SCITEGIC>MOL_PROPERTY
Delta U+W
SciTegic.value.DoubleValue
0.281

@<SCITEGIC>MOL_PROPERTY
U+W
SciTegic.value.DoubleValue
-58.051

@<SCITEGIC>MOL_PROPERTY
Grad RMS
SciTegic.value.DoubleValue
0.000000

@<SCITEGIC>MOL_PROPERTY
U
SciTegic.value.DoubleValue
9.781

@<SCITEGIC>MOL_PROPERTY
W
SciTegic.value.DoubleValue
-67.832

@<SCITEGIC>MOL_PROPERTY
W(PB)
SciTegic.value.DoubleValue
-69.535

@<SCITEGIC>MOL_PROPERTY
W(SA)
SciTegic.value.DoubleValue
1.703

@<SCITEGIC>MOL_PROPERTY
Valence
SciTegic.value.DoubleValue
6.123

@<SCITEGIC>MOL_PROPERTY
Coulomb
SciTegic.value.DoubleValue
3.449

@<SCITEGIC>MOL_PROPERTY
VdW
SciTegic.value.DoubleValue
0.209

@<SCITEGIC>MOL_PROPERTY
VdW6
SciTegic.value.DoubleValue
-3.762

@<SCITEGIC>MOL_PROPERTY
VdW12
SciTegic.value.DoubleValue
3.972

@<SCITEGIC>MOL_PROPERTY
Bond
SciTegic.value.DoubleValue
0.078

@<SCITEGIC>MOL_PROPERTY
Angle
SciTegic.value.DoubleValue
2.428

@<SCITEGIC>MOL_PROPERTY
Pdih
SciTegic.value.DoubleValue
3.616

@<SCITEGIC>MOL_PROPERTY
Idih
SciTegic.value.DoubleValue
0.002

@<SCITEGIC>MOL_PROPERTY
Tether
SciTegic.value.DoubleValue
0.000

@<TRIPOS>MOLECULE
guest-6_confgen4.mol2 : confsearch ligand conformer 192
          13          12           1
SMALL
USER_CHARGES
 
@<TRIPOS>ATOM
       1    C1      18.701727   17.926436   22.347502 C.2        1 MOL1         0.6021
       2    O1      17.887077   18.551377   22.996886 O.co2      1 MOL1        -0.6904
       3    O2      18.398922   17.129104   21.482246 O.co2      1 MOL1        -0.6904
       4    C2      20.183361   18.124980   22.657447 C.3        1 MOL1        -0.2102
       5    H1      20.634626   17.129763   22.748493 H          1 MOL1         0.0687
       6    H2      20.275704   18.605615   23.639155 H          1 MOL1         0.0687
       7    C3      20.951319   18.943391   21.587971 C.3        1 MOL1        -0.1974
       8    H3      22.026395   18.908048   21.811206 H          1 MOL1         0.0689
       9    H4      20.818077   18.476505   20.601976 H          1 MOL1         0.0689
      10    C4      20.496327   20.416433   21.532704 C.3        1 MOL1        -0.2987
      11    H5      20.641834   20.908775   22.503177 H          1 MOL1         0.0700
      12    H6      21.072281   20.971254   20.780675 H          1 MOL1         0.0700
      13    H7      19.433359   20.491495   21.267580 H          1 MOL1         0.0700
@<TRIPOS>BOND
    1     1     2    1
    2     1     3    2
    3     1     4    1
    4     4     5    1
    5     4     6    1
    6     4     7    1
    7     7     8    1
    8     7     9    1
    9     7    10    1
   10    10    11    1
   11    10    12    1
   12    10    13    1
@<TRIPOS>SUBSTRUCTURE
       1 MOL1            1 RESIDUE      1      MOL     
@<SCITEGIC>MOL_PROPERTY
VConf Rank
SciTegic.value.IntegerValue
192

@<SCITEGIC>MOL_PROPERTY
Conf_Id
SciTegic.value.IntegerValue
36

@<SCITEGIC>MOL_PROPERTY
Delta U+W
SciTegic.value.DoubleValue
0.272

@<SCITEGIC>MOL_PROPERTY
U+W
SciTegic.value.DoubleValue
-58.060

@<SCITEGIC>MOL_PROPERTY
Grad RMS
SciTegic.value.DoubleValue
0.000000

@<SCITEGIC>MOL_PROPERTY
U
SciTegic.value.DoubleValue
9.781

@<SCITEGIC>MOL_PROPERTY
W
SciTegic.value.DoubleValue
-67.841

@<SCITEGIC>MOL_PROPERTY
W(PB)
SciTegic.value.DoubleValue
-69.537

@<SCITEGIC>MOL_PROPERTY
W(SA)
SciTegic.value.DoubleValue
1.696

@<SCITEGIC>MOL_PROPERTY
Valence
SciTegic.value.DoubleValue
6.123

@<SCITEGIC>MOL_PROPERTY
Coulomb
SciTegic.value.DoubleValue
3.449

@<SCITEGIC>MOL_PROPERTY
VdW
SciTegic.value.DoubleValue
0.209

@<SCITEGIC>MOL_PROPERTY
VdW6
SciTegic.value.DoubleValue
-3.762

@<SCITEGIC>MOL_PROPERTY
VdW12
SciTegic.value.DoubleValue
3.972

@<SCITEGIC>MOL_PROPERTY
Bond
SciTegic.value.DoubleValue
0.078

@<SCITEGIC>MOL_PROPERTY
Angle
SciTegic.value.DoubleValue
2.428

@<SCITEGIC>MOL_PROPERTY
Pdih
SciTegic.value.DoubleValue
3.616

@<SCITEGIC>MOL_PROPERTY
Idih
SciTegic.value.DoubleValue
0.002

@<SCITEGIC>MOL_PROPERTY
Tether
SciTegic.value.DoubleValue
0.000

@<TRIPOS>MOLECULE
guest-6_confgen4.mol2 : confsearch ligand conformer 193
          13          12           1
SMALL
USER_CHARGES
 
@<TRIPOS>ATOM
       1    C1      20.076732   21.125076   21.642254 C.2        1 MOL1         0.6021
       2    O1      19.533713   21.263580   20.563701 O.co2      1 MOL1        -0.6904
       3    O2      20.480217   22.059697   22.304432 O.co2      1 MOL1        -0.6904
       4    C2      20.276098   19.722091   22.218941 C.3        1 MOL1        -0.2102
       5    H1      19.784403   19.697583   23.198723 H          1 MOL1         0.0687
       6    H2      21.350112   19.590225   22.396262 H          1 MOL1         0.0687
       7    C3      19.745360   18.560326   21.338840 C.3        1 MOL1        -0.1974
       8    H3      18.669556   18.695927   21.159922 H          1 MOL1         0.0689
       9    H4      20.237138   18.588480   20.356437 H          1 MOL1         0.0689
      10    C4      19.989669   17.188315   21.998942 C.3        1 MOL1        -0.2987
      11    H5      19.481662   17.123515   22.970154 H          1 MOL1         0.0700
      12    H6      19.607894   16.379590   21.362178 H          1 MOL1         0.0700
      13    H7      21.061837   17.015239   22.160262 H          1 MOL1         0.0700
@<TRIPOS>BOND
    1     1     2    1
    2     1     3    2
    3     1     4    1
    4     4     5    1
    5     4     6    1
    6     4     7    1
    7     7     8    1
    8     7     9    1
    9     7    10    1
   10    10    11    1
   11    10    12    1
   12    10    13    1
@<TRIPOS>SUBSTRUCTURE
       1 MOL1            1 RESIDUE      1      MOL     
@<SCITEGIC>MOL_PROPERTY
VConf Rank
SciTegic.value.IntegerValue
193

@<SCITEGIC>MOL_PROPERTY
Conf_Id
SciTegic.value.IntegerValue
0

@<SCITEGIC>MOL_PROPERTY
Delta U+W
SciTegic.value.DoubleValue
0.000

@<SCITEGIC>MOL_PROPERTY
U+W
SciTegic.value.DoubleValue
-58.332

@<SCITEGIC>MOL_PROPERTY
Grad RMS
SciTegic.value.DoubleValue
0.000000

@<SCITEGIC>MOL_PROPERTY
U
SciTegic.value.DoubleValue
8.390

@<SCITEGIC>MOL_PROPERTY
W
SciTegic.value.DoubleValue
-66.722

@<SCITEGIC>MOL_PROPERTY
W(PB)
SciTegic.value.DoubleValue
-68.455

@<SCITEGIC>MOL_PROPERTY
W(SA)
SciTegic.value.DoubleValue
1.733

@<SCITEGIC>MOL_PROPERTY
Valence
SciTegic.value.DoubleValue
6.333

@<SCITEGIC>MOL_PROPERTY
Coulomb
SciTegic.value.DoubleValue
1.215

@<SCITEGIC>MOL_PROPERTY
VdW
SciTegic.value.DoubleValue
0.842

@<SCITEGIC>MOL_PROPERTY
VdW6
SciTegic.value.DoubleValue
-3.344

@<SCITEGIC>MOL_PROPERTY
VdW12
SciTegic.value.DoubleValue
4.186

@<SCITEGIC>MOL_PROPERTY
Bond
SciTegic.value.DoubleValue
0.091

@<SCITEGIC>MOL_PROPERTY
Angle
SciTegic.value.DoubleValue
2.713

@<SCITEGIC>MOL_PROPERTY
Pdih
SciTegic.value.DoubleValue
3.529

@<SCITEGIC>MOL_PROPERTY
Idih
SciTegic.value.DoubleValue
0.000

@<SCITEGIC>MOL_PROPERTY
Tether
SciTegic.value.DoubleValue
0.000

@<TRIPOS>MOLECULE
guest-6_confgen4.mol2 : confsearch ligand conformer 194
          13          12           1
SMALL
USER_CHARGES
 
@<TRIPOS>ATOM
       1    C1      21.357685   18.657021   23.394628 C.2        1 MOL1         0.6021
       2    O1      21.761955   19.629309   24.000090 O.co2      1 MOL1        -0.6904
       3    O2      21.966488   17.608191   23.326257 O.co2      1 MOL1        -0.6904
       4    C2      20.022766   18.765061   22.665371 C.3        1 MOL1        -0.2102
       5    H1      19.376727   19.444404   23.234708 H          1 MOL1         0.0687
       6    H2      19.545389   17.777669   22.679045 H          1 MOL1         0.0687
       7    C3      20.169232   19.265717   21.208065 C.3        1 MOL1        -0.1974
       8    H3      20.657254   20.250426   21.206156 H          1 MOL1         0.0689
       9    H4      20.825833   18.583317   20.650367 H          1 MOL1         0.0689
      10    C4      18.803568   19.363979   20.499124 C.3        1 MOL1        -0.2987
      11    H5      18.927808   19.720234   19.468150 H          1 MOL1         0.0700
      12    H6      18.308908   18.384443   20.462015 H          1 MOL1         0.0700
      13    H7      18.139063   20.064366   21.022047 H          1 MOL1         0.0700
@<TRIPOS>BOND
    1     1     2    1
    2     1     3    2
    3     1     4    1
    4     4     5    1
    5     4     6    1
    6     4     7    1
    7     7     8    1
    8     7     9    1
    9     7    10    1
   10    10    11    1
   11    10    12    1
   12    10    13    1
@<TRIPOS>SUBSTRUCTURE
       1 MOL1            1 RESIDUE      1      MOL     
@<SCITEGIC>MOL_PROPERTY
VConf Rank
SciTegic.value.IntegerValue
194

@<SCITEGIC>MOL_PROPERTY
Conf_Id
SciTegic.value.IntegerValue
1

@<SCITEGIC>MOL_PROPERTY
Delta U+W
SciTegic.value.DoubleValue
-1.339

@<SCITEGIC>MOL_PROPERTY
U+W
SciTegic.value.DoubleValue
-59.672

@<SCITEGIC>MOL_PROPERTY
Grad RMS
SciTegic.value.DoubleValue
0.000000

@<SCITEGIC>MOL_PROPERTY
U
SciTegic.value.DoubleValue
7.389

@<SCITEGIC>MOL_PROPERTY
W
SciTegic.value.DoubleValue
-67.061

@<SCITEGIC>MOL_PROPERTY
W(PB)
SciTegic.value.DoubleValue
-68.767

@<SCITEGIC>MOL_PROPERTY
W(SA)
SciTegic.value.DoubleValue
1.707

@<SCITEGIC>MOL_PROPERTY
Valence
SciTegic.value.DoubleValue
5.822

@<SCITEGIC>MOL_PROPERTY
Coulomb
SciTegic.value.DoubleValue
1.255

@<SCITEGIC>MOL_PROPERTY
VdW
SciTegic.value.DoubleValue
0.312

@<SCITEGIC>MOL_PROPERTY
VdW6
SciTegic.value.DoubleValue
-3.061

@<SCITEGIC>MOL_PROPERTY
VdW12
SciTegic.value.DoubleValue
3.372

@<SCITEGIC>MOL_PROPERTY
Bond
SciTegic.value.DoubleValue
0.059

@<SCITEGIC>MOL_PROPERTY
Angle
SciTegic.value.DoubleValue
2.241

@<SCITEGIC>MOL_PROPERTY
Pdih
SciTegic.value.DoubleValue
3.522

@<SCITEGIC>MOL_PROPERTY
Idih
SciTegic.value.DoubleValue
0.000

@<SCITEGIC>MOL_PROPERTY
Tether
SciTegic.value.DoubleValue
0.000

@<TRIPOS>MOLECULE
guest-6_confgen4.mol2 : confsearch ligand conformer 195
          13          12           1
SMALL
USER_CHARGES
 
@<TRIPOS>ATOM
       1    C1      19.386930   18.700415   20.386330 C.2        1 MOL1         0.6021
       2    O1      19.132922   17.547122   20.100858 O.co2      1 MOL1        -0.6904
       3    O2      18.659589   19.633942   20.111728 O.co2      1 MOL1        -0.6904
       4    C2      20.706859   18.992965   21.095506 C.3        1 MOL1        -0.2102
       5    H1      20.931316   20.061829   20.993348 H          1 MOL1         0.0687
       6    H2      21.494107   18.451334   20.557673 H          1 MOL1         0.0687
       7    C3      20.728392   18.583431   22.590550 C.3        1 MOL1        -0.1974
       8    H3      20.461916   17.521340   22.684763 H          1 MOL1         0.0689
       9    H4      21.751238   18.687709   22.977573 H          1 MOL1         0.0689
      10    C4      19.774637   19.438169   23.450609 C.3        1 MOL1        -0.2987
      11    H5      18.734159   19.323275   23.118895 H          1 MOL1         0.0700
      12    H6      19.828713   19.136138   24.504624 H          1 MOL1         0.0700
      13    H7      20.037407   20.502342   23.388319 H          1 MOL1         0.0700
@<TRIPOS>BOND
    1     1     2    1
    2     1     3    2
    3     1     4    1
    4     4     5    1
    5     4     6    1
    6     4     7    1
    7     7     8    1
    8     7     9    1
    9     7    10    1
   10    10    11    1
   11    10    12    1
   12    10    13    1
@<TRIPOS>SUBSTRUCTURE
       1 MOL1            1 RESIDUE      1      MOL     
@<SCITEGIC>MOL_PROPERTY
VConf Rank
SciTegic.value.IntegerValue
195

@<SCITEGIC>MOL_PROPERTY
Conf_Id
SciTegic.value.IntegerValue
4

@<SCITEGIC>MOL_PROPERTY
Delta U+W
SciTegic.value.DoubleValue
0.281

@<SCITEGIC>MOL_PROPERTY
U+W
SciTegic.value.DoubleValue
-58.051

@<SCITEGIC>MOL_PROPERTY
Grad RMS
SciTegic.value.DoubleValue
0.000000

@<SCITEGIC>MOL_PROPERTY
U
SciTegic.value.DoubleValue
9.781

@<SCITEGIC>MOL_PROPERTY
W
SciTegic.value.DoubleValue
-67.832

@<SCITEGIC>MOL_PROPERTY
W(PB)
SciTegic.value.DoubleValue
-69.535

@<SCITEGIC>MOL_PROPERTY
W(SA)
SciTegic.value.DoubleValue
1.703

@<SCITEGIC>MOL_PROPERTY
Valence
SciTegic.value.DoubleValue
6.123

@<SCITEGIC>MOL_PROPERTY
Coulomb
SciTegic.value.DoubleValue
3.449

@<SCITEGIC>MOL_PROPERTY
VdW
SciTegic.value.DoubleValue
0.209

@<SCITEGIC>MOL_PROPERTY
VdW6
SciTegic.value.DoubleValue
-3.762

@<SCITEGIC>MOL_PROPERTY
VdW12
SciTegic.value.DoubleValue
3.972

@<SCITEGIC>MOL_PROPERTY
Bond
SciTegic.value.DoubleValue
0.078

@<SCITEGIC>MOL_PROPERTY
Angle
SciTegic.value.DoubleValue
2.428

@<SCITEGIC>MOL_PROPERTY
Pdih
SciTegic.value.DoubleValue
3.616

@<SCITEGIC>MOL_PROPERTY
Idih
SciTegic.value.DoubleValue
0.002

@<SCITEGIC>MOL_PROPERTY
Tether
SciTegic.value.DoubleValue
0.000

@<TRIPOS>MOLECULE
guest-6_confgen4.mol2 : confsearch ligand conformer 196
          13          12           1
SMALL
USER_CHARGES
 
@<TRIPOS>ATOM
       1    C1      21.730268   19.532342   22.534844 C.2        1 MOL1         0.6021
       2    O1      22.594242   18.963100   21.898120 O.co2      1 MOL1        -0.6904
       3    O2      21.803145   20.698124   22.869119 O.co2      1 MOL1        -0.6904
       4    C2      20.504056   18.733606   22.969757 C.3        1 MOL1        -0.2102
       5    H1      20.344774   18.933701   24.036049 H          1 MOL1         0.0687
       6    H2      20.730763   17.664222   22.878605 H          1 MOL1         0.0687
       7    C3      19.212692   19.074570   22.182701 C.3        1 MOL1        -0.1974
       8    H3      18.358898   18.571288   22.656637 H          1 MOL1         0.0689
       9    H4      19.017674   20.154323   22.246134 H          1 MOL1         0.0689
      10    C4      19.292529   18.645589   20.702995 C.3        1 MOL1        -0.2987
      11    H5      19.465038   17.564778   20.616505 H          1 MOL1         0.0700
      12    H6      18.356814   18.883041   20.180358 H          1 MOL1         0.0700
      13    H7      20.110117   19.164491   20.185196 H          1 MOL1         0.0700
@<TRIPOS>BOND
    1     1     2    1
    2     1     3    2
    3     1     4    1
    4     4     5    1
    5     4     6    1
    6     4     7    1
    7     7     8    1
    8     7     9    1
    9     7    10    1
   10    10    11    1
   11    10    12    1
   12    10    13    1
@<TRIPOS>SUBSTRUCTURE
       1 MOL1            1 RESIDUE      1      MOL     
@<SCITEGIC>MOL_PROPERTY
VConf Rank
SciTegic.value.IntegerValue
196

@<SCITEGIC>MOL_PROPERTY
Conf_Id
SciTegic.value.IntegerValue
36

@<SCITEGIC>MOL_PROPERTY
Delta U+W
SciTegic.value.DoubleValue
0.272

@<SCITEGIC>MOL_PROPERTY
U+W
SciTegic.value.DoubleValue
-58.060

@<SCITEGIC>MOL_PROPERTY
Grad RMS
SciTegic.value.DoubleValue
0.000000

@<SCITEGIC>MOL_PROPERTY
U
SciTegic.value.DoubleValue
9.781

@<SCITEGIC>MOL_PROPERTY
W
SciTegic.value.DoubleValue
-67.841

@<SCITEGIC>MOL_PROPERTY
W(PB)
SciTegic.value.DoubleValue
-69.537

@<SCITEGIC>MOL_PROPERTY
W(SA)
SciTegic.value.DoubleValue
1.696

@<SCITEGIC>MOL_PROPERTY
Valence
SciTegic.value.DoubleValue
6.123

@<SCITEGIC>MOL_PROPERTY
Coulomb
SciTegic.value.DoubleValue
3.449

@<SCITEGIC>MOL_PROPERTY
VdW
SciTegic.value.DoubleValue
0.209

@<SCITEGIC>MOL_PROPERTY
VdW6
SciTegic.value.DoubleValue
-3.762

@<SCITEGIC>MOL_PROPERTY
VdW12
SciTegic.value.DoubleValue
3.972

@<SCITEGIC>MOL_PROPERTY
Bond
SciTegic.value.DoubleValue
0.078

@<SCITEGIC>MOL_PROPERTY
Angle
SciTegic.value.DoubleValue
2.428

@<SCITEGIC>MOL_PROPERTY
Pdih
SciTegic.value.DoubleValue
3.616

@<SCITEGIC>MOL_PROPERTY
Idih
SciTegic.value.DoubleValue
0.002

@<SCITEGIC>MOL_PROPERTY
Tether
SciTegic.value.DoubleValue
0.000

@<TRIPOS>MOLECULE
guest-6_confgen4.mol2 : confsearch ligand conformer 197
          13          12           1
SMALL
USER_CHARGES
 
@<TRIPOS>ATOM
       1    C1      20.591771   19.203698   19.775728 C.2        1 MOL1         0.6021
       2    O1      21.721040   19.633053   19.908900 O.co2      1 MOL1        -0.6904
       3    O2      20.083716   19.004228   18.690884 O.co2      1 MOL1        -0.6904
       4    C2      19.746241   18.890800   21.011794 C.3        1 MOL1        -0.2102
       5    H1      19.452185   17.836301   20.949338 H          1 MOL1         0.0687
       6    H2      18.827165   19.484378   20.938989 H          1 MOL1         0.0687
       7    C3      20.436110   19.160978   22.374527 C.3        1 MOL1        -0.1974
       8    H3      21.358384   18.567427   22.444252 H          1 MOL1         0.0689
       9    H4      20.732667   20.217523   22.433863 H          1 MOL1         0.0689
      10    C4      19.510759   18.817550   23.559271 C.3        1 MOL1        -0.2987
      11    H5      19.224737   17.757670   23.540053 H          1 MOL1         0.0700
      12    H6      20.015647   19.015050   24.513912 H          1 MOL1         0.0700
      13    H7      18.593970   19.420987   23.529540 H          1 MOL1         0.0700
@<TRIPOS>BOND
    1     1     2    1
    2     1     3    2
    3     1     4    1
    4     4     5    1
    5     4     6    1
    6     4     7    1
    7     7     8    1
    8     7     9    1
    9     7    10    1
   10    10    11    1
   11    10    12    1
   12    10    13    1
@<TRIPOS>SUBSTRUCTURE
       1 MOL1            1 RESIDUE      1      MOL     
@<SCITEGIC>MOL_PROPERTY
VConf Rank
SciTegic.value.IntegerValue
197

@<SCITEGIC>MOL_PROPERTY
Conf_Id
SciTegic.value.IntegerValue
0

@<SCITEGIC>MOL_PROPERTY
Delta U+W
SciTegic.value.DoubleValue
0.000

@<SCITEGIC>MOL_PROPERTY
U+W
SciTegic.value.DoubleValue
-58.332

@<SCITEGIC>MOL_PROPERTY
Grad RMS
SciTegic.value.DoubleValue
0.000000

@<SCITEGIC>MOL_PROPERTY
U
SciTegic.value.DoubleValue
8.390

@<SCITEGIC>MOL_PROPERTY
W
SciTegic.value.DoubleValue
-66.722

@<SCITEGIC>MOL_PROPERTY
W(PB)
SciTegic.value.DoubleValue
-68.455

@<SCITEGIC>MOL_PROPERTY
W(SA)
SciTegic.value.DoubleValue
1.733

@<SCITEGIC>MOL_PROPERTY
Valence
SciTegic.value.DoubleValue
6.333

@<SCITEGIC>MOL_PROPERTY
Coulomb
SciTegic.value.DoubleValue
1.215

@<SCITEGIC>MOL_PROPERTY
VdW
SciTegic.value.DoubleValue
0.842

@<SCITEGIC>MOL_PROPERTY
VdW6
SciTegic.value.DoubleValue
-3.344

@<SCITEGIC>MOL_PROPERTY
VdW12
SciTegic.value.DoubleValue
4.186

@<SCITEGIC>MOL_PROPERTY
Bond
SciTegic.value.DoubleValue
0.091

@<SCITEGIC>MOL_PROPERTY
Angle
SciTegic.value.DoubleValue
2.713

@<SCITEGIC>MOL_PROPERTY
Pdih
SciTegic.value.DoubleValue
3.529

@<SCITEGIC>MOL_PROPERTY
Idih
SciTegic.value.DoubleValue
0.000

@<SCITEGIC>MOL_PROPERTY
Tether
SciTegic.value.DoubleValue
0.000

@<TRIPOS>MOLECULE
guest-6_confgen4.mol2 : confsearch ligand conformer 198
          13          12           1
SMALL
USER_CHARGES
 
@<TRIPOS>ATOM
       1    C1      19.518041   21.064686   22.201920 C.2        1 MOL1         0.6021
       2    O1      20.400786   21.736442   22.696759 O.co2      1 MOL1        -0.6904
       3    O2      18.336696   21.327462   22.305519 O.co2      1 MOL1        -0.6904
       4    C2      19.913255   19.813633   21.424635 C.3        1 MOL1        -0.2102
       5    H1      20.881978   20.001124   20.945634 H          1 MOL1         0.0687
       6    H2      19.179813   19.663869   20.622979 H          1 MOL1         0.0687
       7    C3      19.994898   18.549956   22.314748 C.3        1 MOL1        -0.1974
       8    H3      20.724853   18.715110   23.119553 H          1 MOL1         0.0689
       9    H4      19.022347   18.377725   22.796727 H          1 MOL1         0.0689
      10    C4      20.396294   17.303905   21.500175 C.3        1 MOL1        -0.2987
      11    H5      20.448843   16.418975   22.147785 H          1 MOL1         0.0700
      12    H6      19.664648   17.100642   20.707122 H          1 MOL1         0.0700
      13    H7      21.380223   17.440608   21.032465 H          1 MOL1         0.0700
@<TRIPOS>BOND
    1     1     2    1
    2     1     3    2
    3     1     4    1
    4     4     5    1
    5     4     6    1
    6     4     7    1
    7     7     8    1
    8     7     9    1
    9     7    10    1
   10    10    11    1
   11    10    12    1
   12    10    13    1
@<TRIPOS>SUBSTRUCTURE
       1 MOL1            1 RESIDUE      1      MOL     
@<SCITEGIC>MOL_PROPERTY
VConf Rank
SciTegic.value.IntegerValue
198

@<SCITEGIC>MOL_PROPERTY
Conf_Id
SciTegic.value.IntegerValue
1

@<SCITEGIC>MOL_PROPERTY
Delta U+W
SciTegic.value.DoubleValue
-1.339

@<SCITEGIC>MOL_PROPERTY
U+W
SciTegic.value.DoubleValue
-59.672

@<SCITEGIC>MOL_PROPERTY
Grad RMS
SciTegic.value.DoubleValue
0.000000

@<SCITEGIC>MOL_PROPERTY
U
SciTegic.value.DoubleValue
7.389

@<SCITEGIC>MOL_PROPERTY
W
SciTegic.value.DoubleValue
-67.061

@<SCITEGIC>MOL_PROPERTY
W(PB)
SciTegic.value.DoubleValue
-68.767

@<SCITEGIC>MOL_PROPERTY
W(SA)
SciTegic.value.DoubleValue
1.707

@<SCITEGIC>MOL_PROPERTY
Valence
SciTegic.value.DoubleValue
5.822

@<SCITEGIC>MOL_PROPERTY
Coulomb
SciTegic.value.DoubleValue
1.255

@<SCITEGIC>MOL_PROPERTY
VdW
SciTegic.value.DoubleValue
0.312

@<SCITEGIC>MOL_PROPERTY
VdW6
SciTegic.value.DoubleValue
-3.061

@<SCITEGIC>MOL_PROPERTY
VdW12
SciTegic.value.DoubleValue
3.372

@<SCITEGIC>MOL_PROPERTY
Bond
SciTegic.value.DoubleValue
0.059

@<SCITEGIC>MOL_PROPERTY
Angle
SciTegic.value.DoubleValue
2.241

@<SCITEGIC>MOL_PROPERTY
Pdih
SciTegic.value.DoubleValue
3.522

@<SCITEGIC>MOL_PROPERTY
Idih
SciTegic.value.DoubleValue
0.000

@<SCITEGIC>MOL_PROPERTY
Tether
SciTegic.value.DoubleValue
0.000

@<TRIPOS>MOLECULE
guest-6_confgen4.mol2 : confsearch ligand conformer 199
          13          12           1
SMALL
USER_CHARGES
 
@<TRIPOS>ATOM
       1    C1      20.364319   18.468634   23.701251 C.2        1 MOL1         0.6021
       2    O1      19.357969   18.185108   24.320098 O.co2      1 MOL1        -0.6904
       3    O2      21.408254   17.855740   23.803546 O.co2      1 MOL1        -0.6904
       4    C2      20.322304   19.680891   22.774216 C.3        1 MOL1        -0.2102
       5    H1      21.351313   19.989028   22.551778 H          1 MOL1         0.0687
       6    H2      19.859139   20.503383   23.332222 H          1 MOL1         0.0687
       7    C3      19.538878   19.445867   21.457269 C.3        1 MOL1        -0.1974
       8    H3      18.522852   19.097968   21.690892 H          1 MOL1         0.0689
       9    H4      19.430975   20.402014   20.927164 H          1 MOL1         0.0689
      10    C4      20.236506   18.430706   20.528457 C.3        1 MOL1        -0.2987
      11    H5      20.321718   17.447996   21.010999 H          1 MOL1         0.0700
      12    H6      19.667321   18.302474   19.598575 H          1 MOL1         0.0700
      13    H7      21.246636   18.770199   20.264310 H          1 MOL1         0.0700
@<TRIPOS>BOND
    1     1     2    1
    2     1     3    2
    3     1     4    1
    4     4     5    1
    5     4     6    1
    6     4     7    1
    7     7     8    1
    8     7     9    1
    9     7    10    1
   10    10    11    1
   11    10    12    1
   12    10    13    1
@<TRIPOS>SUBSTRUCTURE
       1 MOL1            1 RESIDUE      1      MOL     
@<SCITEGIC>MOL_PROPERTY
VConf Rank
SciTegic.value.IntegerValue
199

@<SCITEGIC>MOL_PROPERTY
Conf_Id
SciTegic.value.IntegerValue
4

@<SCITEGIC>MOL_PROPERTY
Delta U+W
SciTegic.value.DoubleValue
0.281

@<SCITEGIC>MOL_PROPERTY
U+W
SciTegic.value.DoubleValue
-58.051

@<SCITEGIC>MOL_PROPERTY
Grad RMS
SciTegic.value.DoubleValue
0.000000

@<SCITEGIC>MOL_PROPERTY
U
SciTegic.value.DoubleValue
9.781

@<SCITEGIC>MOL_PROPERTY
W
SciTegic.value.DoubleValue
-67.832

@<SCITEGIC>MOL_PROPERTY
W(PB)
SciTegic.value.DoubleValue
-69.535

@<SCITEGIC>MOL_PROPERTY
W(SA)
SciTegic.value.DoubleValue
1.703

@<SCITEGIC>MOL_PROPERTY
Valence
SciTegic.value.DoubleValue
6.123

@<SCITEGIC>MOL_PROPERTY
Coulomb
SciTegic.value.DoubleValue
3.449

@<SCITEGIC>MOL_PROPERTY
VdW
SciTegic.value.DoubleValue
0.209

@<SCITEGIC>MOL_PROPERTY
VdW6
SciTegic.value.DoubleValue
-3.762

@<SCITEGIC>MOL_PROPERTY
VdW12
SciTegic.value.DoubleValue
3.972

@<SCITEGIC>MOL_PROPERTY
Bond
SciTegic.value.DoubleValue
0.078

@<SCITEGIC>MOL_PROPERTY
Angle
SciTegic.value.DoubleValue
2.428

@<SCITEGIC>MOL_PROPERTY
Pdih
SciTegic.value.DoubleValue
3.616

@<SCITEGIC>MOL_PROPERTY
Idih
SciTegic.value.DoubleValue
0.002

@<SCITEGIC>MOL_PROPERTY
Tether
SciTegic.value.DoubleValue
0.000

@<TRIPOS>MOLECULE
guest-6_confgen4.mol2 : confsearch ligand conformer 200
          13          12           1
SMALL
USER_CHARGES
 
@<TRIPOS>ATOM
       1    C1      20.045112   20.589147   21.236892 C.2        1 MOL1         0.6021
       2    O1      20.909011   20.679604   20.387538 O.co2      1 MOL1        -0.6904
       3    O2      18.937484   21.074469   21.119757 O.co2      1 MOL1        -0.6904
       4    C2      20.377778   19.858595   22.535488 C.3        1 MOL1        -0.2102
       5    H1      20.048096   20.497214   23.363655 H          1 MOL1         0.0687
       6    H2      21.467870   19.769149   22.619070 H          1 MOL1         0.0687
       7    C3      19.716011   18.462738   22.665817 C.3        1 MOL1        -0.1974
       8    H3      19.883151   18.078606   23.681385 H          1 MOL1         0.0689
       9    H4      18.628433   18.558143   22.539359 H          1 MOL1         0.0689
      10    C4      20.272163   17.448112   21.645447 C.3        1 MOL1        -0.2987
      11    H5      21.355618   17.320844   21.769218 H          1 MOL1         0.0700
      12    H6      19.797695   16.467026   21.777532 H          1 MOL1         0.0700
      13    H7      20.082588   17.779528   20.615859 H          1 MOL1         0.0700
@<TRIPOS>BOND
    1     1     2    1
    2     1     3    2
    3     1     4    1
    4     4     5    1
    5     4     6    1
    6     4     7    1
    7     7     8    1
    8     7     9    1
    9     7    10    1
   10    10    11    1
   11    10    12    1
   12    10    13    1
@<TRIPOS>SUBSTRUCTURE
       1 MOL1            1 RESIDUE      1      MOL     
@<SCITEGIC>MOL_PROPERTY
VConf Rank
SciTegic.value.IntegerValue
200

@<SCITEGIC>MOL_PROPERTY
Conf_Id
SciTegic.value.IntegerValue
36

@<SCITEGIC>MOL_PROPERTY
Delta U+W
SciTegic.value.DoubleValue
0.272

@<SCITEGIC>MOL_PROPERTY
U+W
SciTegic.value.DoubleValue
-58.060

@<SCITEGIC>MOL_PROPERTY
Grad RMS
SciTegic.value.DoubleValue
0.000000

@<SCITEGIC>MOL_PROPERTY
U
SciTegic.value.DoubleValue
9.781

@<SCITEGIC>MOL_PROPERTY
W
SciTegic.value.DoubleValue
-67.841

@<SCITEGIC>MOL_PROPERTY
W(PB)
SciTegic.value.DoubleValue
-69.537

@<SCITEGIC>MOL_PROPERTY
W(SA)
SciTegic.value.DoubleValue
1.696

@<SCITEGIC>MOL_PROPERTY
Valence
SciTegic.value.DoubleValue
6.123

@<SCITEGIC>MOL_PROPERTY
Coulomb
SciTegic.value.DoubleValue
3.449

@<SCITEGIC>MOL_PROPERTY
VdW
SciTegic.value.DoubleValue
0.209

@<SCITEGIC>MOL_PROPERTY
VdW6
SciTegic.value.DoubleValue
-3.762

@<SCITEGIC>MOL_PROPERTY
VdW12
SciTegic.value.DoubleValue
3.972

@<SCITEGIC>MOL_PROPERTY
Bond
SciTegic.value.DoubleValue
0.078

@<SCITEGIC>MOL_PROPERTY
Angle
SciTegic.value.DoubleValue
2.428

@<SCITEGIC>MOL_PROPERTY
Pdih
SciTegic.value.DoubleValue
3.616

@<SCITEGIC>MOL_PROPERTY
Idih
SciTegic.value.DoubleValue
0.002

@<SCITEGIC>MOL_PROPERTY
Tether
SciTegic.value.DoubleValue
0.000

@<TRIPOS>MOLECULE
guest-6_confgen4.mol2 : confsearch ligand conformer 201
          13          12           1
SMALL
USER_CHARGES
 
@<TRIPOS>ATOM
       1    C1      20.863243   18.339459   19.975933 C.2        1 MOL1         0.6021
       2    O1      22.047275   18.422974   20.237507 O.co2      1 MOL1        -0.6904
       3    O2      20.448960   17.960776   18.899009 O.co2      1 MOL1        -0.6904
       4    C2      19.822516   18.721817   21.030149 C.3        1 MOL1        -0.2102
       5    H1      19.179448   17.847796   21.187910 H          1 MOL1         0.0687
       6    H2      19.192816   19.508961   20.598617 H          1 MOL1         0.0687
       7    C3      20.397801   19.199299   22.389198 C.3        1 MOL1        -0.1974
       8    H3      21.030834   18.410197   22.818548 H          1 MOL1         0.0689
       9    H4      21.044286   20.073367   22.228523 H          1 MOL1         0.0689
      10    C4      19.278251   19.561874   23.385683 C.3        1 MOL1        -0.2987
      11    H5      18.635603   18.694744   23.587209 H          1 MOL1         0.0700
      12    H6      19.704224   19.897144   24.340355 H          1 MOL1         0.0700
      13    H7      18.649135   20.371238   22.992408 H          1 MOL1         0.0700
@<TRIPOS>BOND
    1     1     2    1
    2     1     3    2
    3     1     4    1
    4     4     5    1
    5     4     6    1
    6     4     7    1
    7     7     8    1
    8     7     9    1
    9     7    10    1
   10    10    11    1
   11    10    12    1
   12    10    13    1
@<TRIPOS>SUBSTRUCTURE
       1 MOL1            1 RESIDUE      1      MOL     
@<SCITEGIC>MOL_PROPERTY
VConf Rank
SciTegic.value.IntegerValue
201

@<SCITEGIC>MOL_PROPERTY
Conf_Id
SciTegic.value.IntegerValue
0

@<SCITEGIC>MOL_PROPERTY
Delta U+W
SciTegic.value.DoubleValue
0.000

@<SCITEGIC>MOL_PROPERTY
U+W
SciTegic.value.DoubleValue
-58.332

@<SCITEGIC>MOL_PROPERTY
Grad RMS
SciTegic.value.DoubleValue
0.000000

@<SCITEGIC>MOL_PROPERTY
U
SciTegic.value.DoubleValue
8.390

@<SCITEGIC>MOL_PROPERTY
W
SciTegic.value.DoubleValue
-66.722

@<SCITEGIC>MOL_PROPERTY
W(PB)
SciTegic.value.DoubleValue
-68.455

@<SCITEGIC>MOL_PROPERTY
W(SA)
SciTegic.value.DoubleValue
1.733

@<SCITEGIC>MOL_PROPERTY
Valence
SciTegic.value.DoubleValue
6.333

@<SCITEGIC>MOL_PROPERTY
Coulomb
SciTegic.value.DoubleValue
1.215

@<SCITEGIC>MOL_PROPERTY
VdW
SciTegic.value.DoubleValue
0.842

@<SCITEGIC>MOL_PROPERTY
VdW6
SciTegic.value.DoubleValue
-3.344

@<SCITEGIC>MOL_PROPERTY
VdW12
SciTegic.value.DoubleValue
4.186

@<SCITEGIC>MOL_PROPERTY
Bond
SciTegic.value.DoubleValue
0.091

@<SCITEGIC>MOL_PROPERTY
Angle
SciTegic.value.DoubleValue
2.713

@<SCITEGIC>MOL_PROPERTY
Pdih
SciTegic.value.DoubleValue
3.529

@<SCITEGIC>MOL_PROPERTY
Idih
SciTegic.value.DoubleValue
0.000

@<SCITEGIC>MOL_PROPERTY
Tether
SciTegic.value.DoubleValue
0.000

@<TRIPOS>MOLECULE
guest-6_confgen4.mol2 : confsearch ligand conformer 202
          13          12           1
SMALL
USER_CHARGES
 
@<TRIPOS>ATOM
       1    C1      18.288437   18.808249   20.601825 C.2        1 MOL1         0.6021
       2    O1      17.243535   18.572612   21.174552 O.co2      1 MOL1        -0.6904
       3    O2      18.503201   18.504442   19.445565 O.co2      1 MOL1        -0.6904
       4    C2      19.397220   19.506281   21.382114 C.3        1 MOL1        -0.2102
       5    H1      18.929984   20.183489   22.107440 H          1 MOL1         0.0687
       6    H2      19.968766   20.127289   20.681612 H          1 MOL1         0.0687
       7    C3      20.340247   18.516626   22.108152 C.3        1 MOL1        -0.1974
       8    H3      19.755675   17.893550   22.799436 H          1 MOL1         0.0689
       9    H4      20.794742   17.837436   21.373334 H          1 MOL1         0.0689
      10    C4      21.448822   19.252753   22.886913 C.3        1 MOL1        -0.2987
      11    H5      22.106651   18.535150   23.394425 H          1 MOL1         0.0700
      12    H6      22.066217   19.859877   22.211798 H          1 MOL1         0.0700
      13    H7      21.019176   19.916382   23.648856 H          1 MOL1         0.0700
@<TRIPOS>BOND
    1     1     2    1
    2     1     3    2
    3     1     4    1
    4     4     5    1
    5     4     6    1
    6     4     7    1
    7     7     8    1
    8     7     9    1
    9     7    10    1
   10    10    11    1
   11    10    12    1
   12    10    13    1
@<TRIPOS>SUBSTRUCTURE
       1 MOL1            1 RESIDUE      1      MOL     
@<SCITEGIC>MOL_PROPERTY
VConf Rank
SciTegic.value.IntegerValue
202

@<SCITEGIC>MOL_PROPERTY
Conf_Id
SciTegic.value.IntegerValue
1

@<SCITEGIC>MOL_PROPERTY
Delta U+W
SciTegic.value.DoubleValue
-1.339

@<SCITEGIC>MOL_PROPERTY
U+W
SciTegic.value.DoubleValue
-59.672

@<SCITEGIC>MOL_PROPERTY
Grad RMS
SciTegic.value.DoubleValue
0.000000

@<SCITEGIC>MOL_PROPERTY
U
SciTegic.value.DoubleValue
7.389

@<SCITEGIC>MOL_PROPERTY
W
SciTegic.value.DoubleValue
-67.061

@<SCITEGIC>MOL_PROPERTY
W(PB)
SciTegic.value.DoubleValue
-68.767

@<SCITEGIC>MOL_PROPERTY
W(SA)
SciTegic.value.DoubleValue
1.707

@<SCITEGIC>MOL_PROPERTY
Valence
SciTegic.value.DoubleValue
5.822

@<SCITEGIC>MOL_PROPERTY
Coulomb
SciTegic.value.DoubleValue
1.255

@<SCITEGIC>MOL_PROPERTY
VdW
SciTegic.value.DoubleValue
0.312

@<SCITEGIC>MOL_PROPERTY
VdW6
SciTegic.value.DoubleValue
-3.061

@<SCITEGIC>MOL_PROPERTY
VdW12
SciTegic.value.DoubleValue
3.372

@<SCITEGIC>MOL_PROPERTY
Bond
SciTegic.value.DoubleValue
0.059

@<SCITEGIC>MOL_PROPERTY
Angle
SciTegic.value.DoubleValue
2.241

@<SCITEGIC>MOL_PROPERTY
Pdih
SciTegic.value.DoubleValue
3.522

@<SCITEGIC>MOL_PROPERTY
Idih
SciTegic.value.DoubleValue
0.000

@<SCITEGIC>MOL_PROPERTY
Tether
SciTegic.value.DoubleValue
0.000

@<TRIPOS>MOLECULE
guest-6_confgen4.mol2 : confsearch ligand conformer 203
          13          12           1
SMALL
USER_CHARGES
 
@<TRIPOS>ATOM
       1    C1      20.560193   19.311129   23.700984 C.2        1 MOL1         0.6021
       2    O1      21.746414   19.430496   23.934930 O.co2      1 MOL1        -0.6904
       3    O2      19.704362   20.009268   24.207005 O.co2      1 MOL1        -0.6904
       4    C2      20.121991   18.201531   22.748355 C.3        1 MOL1        -0.2102
       5    H1      19.049615   18.019552   22.890411 H          1 MOL1         0.0687
       6    H2      20.641650   17.285148   23.052630 H          1 MOL1         0.0687
       7    C3      20.420980   18.492200   21.255219 C.3        1 MOL1        -0.1974
       8    H3      21.490259   18.713668   21.130648 H          1 MOL1         0.0689
       9    H4      20.214804   17.589209   20.664481 H          1 MOL1         0.0689
      10    C4      19.579005   19.660037   20.700995 C.3        1 MOL1        -0.2987
      11    H5      19.793078   20.591967   21.240910 H          1 MOL1         0.0700
      12    H6      19.800188   19.826374   19.638683 H          1 MOL1         0.0700
      13    H7      18.505645   19.449430   20.795523 H          1 MOL1         0.0700
@<TRIPOS>BOND
    1     1     2    1
    2     1     3    2
    3     1     4    1
    4     4     5    1
    5     4     6    1
    6     4     7    1
    7     7     8    1
    8     7     9    1
    9     7    10    1
   10    10    11    1
   11    10    12    1
   12    10    13    1
@<TRIPOS>SUBSTRUCTURE
       1 MOL1            1 RESIDUE      1      MOL     
@<SCITEGIC>MOL_PROPERTY
VConf Rank
SciTegic.value.IntegerValue
203

@<SCITEGIC>MOL_PROPERTY
Conf_Id
SciTegic.value.IntegerValue
4

@<SCITEGIC>MOL_PROPERTY
Delta U+W
SciTegic.value.DoubleValue
0.281

@<SCITEGIC>MOL_PROPERTY
U+W
SciTegic.value.DoubleValue
-58.051

@<SCITEGIC>MOL_PROPERTY
Grad RMS
SciTegic.value.DoubleValue
0.000000

@<SCITEGIC>MOL_PROPERTY
U
SciTegic.value.DoubleValue
9.781

@<SCITEGIC>MOL_PROPERTY
W
SciTegic.value.DoubleValue
-67.832

@<SCITEGIC>MOL_PROPERTY
W(PB)
SciTegic.value.DoubleValue
-69.535

@<SCITEGIC>MOL_PROPERTY
W(SA)
SciTegic.value.DoubleValue
1.703

@<SCITEGIC>MOL_PROPERTY
Valence
SciTegic.value.DoubleValue
6.123

@<SCITEGIC>MOL_PROPERTY
Coulomb
SciTegic.value.DoubleValue
3.449

@<SCITEGIC>MOL_PROPERTY
VdW
SciTegic.value.DoubleValue
0.209

@<SCITEGIC>MOL_PROPERTY
VdW6
SciTegic.value.DoubleValue
-3.762

@<SCITEGIC>MOL_PROPERTY
VdW12
SciTegic.value.DoubleValue
3.972

@<SCITEGIC>MOL_PROPERTY
Bond
SciTegic.value.DoubleValue
0.078

@<SCITEGIC>MOL_PROPERTY
Angle
SciTegic.value.DoubleValue
2.428

@<SCITEGIC>MOL_PROPERTY
Pdih
SciTegic.value.DoubleValue
3.616

@<SCITEGIC>MOL_PROPERTY
Idih
SciTegic.value.DoubleValue
0.002

@<SCITEGIC>MOL_PROPERTY
Tether
SciTegic.value.DoubleValue
0.000

@<TRIPOS>MOLECULE
guest-6_confgen4.mol2 : confsearch ligand conformer 204
          13          12           1
SMALL
USER_CHARGES
 
@<TRIPOS>ATOM
       1    C1      18.357432   19.229002   21.780937 C.2        1 MOL1         0.6021
       2    O1      18.134218   19.575998   20.638275 O.co2      1 MOL1        -0.6904
       3    O2      17.627514   18.489842   22.410984 O.co2      1 MOL1        -0.6904
       4    C2      19.601015   19.777528   22.476167 C.3        1 MOL1        -0.2102
       5    H1      19.290067   20.142933   23.462158 H          1 MOL1         0.0687
       6    H2      19.962040   20.648256   21.915114 H          1 MOL1         0.0687
       7    C3      20.741783   18.741679   22.646462 C.3        1 MOL1        -0.1974
       8    H3      21.526943   19.172347   23.282796 H          1 MOL1         0.0689
       9    H4      20.358895   17.856245   23.173078 H          1 MOL1         0.0689
      10    C4      21.361289   18.318740   21.298403 C.3        1 MOL1        -0.2987
      11    H5      21.770452   19.186766   20.765011 H          1 MOL1         0.0700
      12    H6      22.177143   17.601295   21.455725 H          1 MOL1         0.0700
      13    H7      20.612219   17.842542   20.651907 H          1 MOL1         0.0700
@<TRIPOS>BOND
    1     1     2    1
    2     1     3    2
    3     1     4    1
    4     4     5    1
    5     4     6    1
    6     4     7    1
    7     7     8    1
    8     7     9    1
    9     7    10    1
   10    10    11    1
   11    10    12    1
   12    10    13    1
@<TRIPOS>SUBSTRUCTURE
       1 MOL1            1 RESIDUE      1      MOL     
@<SCITEGIC>MOL_PROPERTY
VConf Rank
SciTegic.value.IntegerValue
204

@<SCITEGIC>MOL_PROPERTY
Conf_Id
SciTegic.value.IntegerValue
36

@<SCITEGIC>MOL_PROPERTY
Delta U+W
SciTegic.value.DoubleValue
0.272

@<SCITEGIC>MOL_PROPERTY
U+W
SciTegic.value.DoubleValue
-58.060

@<SCITEGIC>MOL_PROPERTY
Grad RMS
SciTegic.value.DoubleValue
0.000000

@<SCITEGIC>MOL_PROPERTY
U
SciTegic.value.DoubleValue
9.781

@<SCITEGIC>MOL_PROPERTY
W
SciTegic.value.DoubleValue
-67.841

@<SCITEGIC>MOL_PROPERTY
W(PB)
SciTegic.value.DoubleValue
-69.537

@<SCITEGIC>MOL_PROPERTY
W(SA)
SciTegic.value.DoubleValue
1.696

@<SCITEGIC>MOL_PROPERTY
Valence
SciTegic.value.DoubleValue
6.123

@<SCITEGIC>MOL_PROPERTY
Coulomb
SciTegic.value.DoubleValue
3.449

@<SCITEGIC>MOL_PROPERTY
VdW
SciTegic.value.DoubleValue
0.209

@<SCITEGIC>MOL_PROPERTY
VdW6
SciTegic.value.DoubleValue
-3.762

@<SCITEGIC>MOL_PROPERTY
VdW12
SciTegic.value.DoubleValue
3.972

@<SCITEGIC>MOL_PROPERTY
Bond
SciTegic.value.DoubleValue
0.078

@<SCITEGIC>MOL_PROPERTY
Angle
SciTegic.value.DoubleValue
2.428

@<SCITEGIC>MOL_PROPERTY
Pdih
SciTegic.value.DoubleValue
3.616

@<SCITEGIC>MOL_PROPERTY
Idih
SciTegic.value.DoubleValue
0.002

@<SCITEGIC>MOL_PROPERTY
Tether
SciTegic.value.DoubleValue
0.000

@<TRIPOS>MOLECULE
guest-6_confgen4.mol2 : confsearch ligand conformer 205
          13          12           1
SMALL
USER_CHARGES
 
@<TRIPOS>ATOM
       1    C1      18.155135   18.443965   20.954812 C.2        1 MOL1         0.6021
       2    O1      17.444162   19.327806   21.391469 O.co2      1 MOL1        -0.6904
       3    O2      17.742596   17.559958   20.231528 O.co2      1 MOL1        -0.6904
       4    C2      19.641847   18.415971   21.314793 C.3        1 MOL1        -0.2102
       5    H1      20.206959   18.437297   20.375361 H          1 MOL1         0.0687
       6    H2      19.845968   17.448791   21.789382 H          1 MOL1         0.0687
       7    C3      20.123173   19.563970   22.240201 C.3        1 MOL1        -0.1974
       8    H3      19.915065   20.532340   21.764065 H          1 MOL1         0.0689
       9    H4      19.553573   19.542667   23.179805 H          1 MOL1         0.0689
      10    C4      21.630160   19.453594   22.547841 C.3        1 MOL1        -0.2987
      11    H5      22.224123   19.503718   21.625768 H          1 MOL1         0.0700
      12    H6      21.951904   20.273503   23.203194 H          1 MOL1         0.0700
      13    H7      21.859725   18.506066   23.052830 H          1 MOL1         0.0700
@<TRIPOS>BOND
    1     1     2    1
    2     1     3    2
    3     1     4    1
    4     4     5    1
    5     4     6    1
    6     4     7    1
    7     7     8    1
    8     7     9    1
    9     7    10    1
   10    10    11    1
   11    10    12    1
   12    10    13    1
@<TRIPOS>SUBSTRUCTURE
       1 MOL1            1 RESIDUE      1      MOL     
@<SCITEGIC>MOL_PROPERTY
VConf Rank
SciTegic.value.IntegerValue
205

@<SCITEGIC>MOL_PROPERTY
Conf_Id
SciTegic.value.IntegerValue
0

@<SCITEGIC>MOL_PROPERTY
Delta U+W
SciTegic.value.DoubleValue
0.000

@<SCITEGIC>MOL_PROPERTY
U+W
SciTegic.value.DoubleValue
-58.332

@<SCITEGIC>MOL_PROPERTY
Grad RMS
SciTegic.value.DoubleValue
0.000000

@<SCITEGIC>MOL_PROPERTY
U
SciTegic.value.DoubleValue
8.390

@<SCITEGIC>MOL_PROPERTY
W
SciTegic.value.DoubleValue
-66.722

@<SCITEGIC>MOL_PROPERTY
W(PB)
SciTegic.value.DoubleValue
-68.455

@<SCITEGIC>MOL_PROPERTY
W(SA)
SciTegic.value.DoubleValue
1.733

@<SCITEGIC>MOL_PROPERTY
Valence
SciTegic.value.DoubleValue
6.333

@<SCITEGIC>MOL_PROPERTY
Coulomb
SciTegic.value.DoubleValue
1.215

@<SCITEGIC>MOL_PROPERTY
VdW
SciTegic.value.DoubleValue
0.842

@<SCITEGIC>MOL_PROPERTY
VdW6
SciTegic.value.DoubleValue
-3.344

@<SCITEGIC>MOL_PROPERTY
VdW12
SciTegic.value.DoubleValue
4.186

@<SCITEGIC>MOL_PROPERTY
Bond
SciTegic.value.DoubleValue
0.091

@<SCITEGIC>MOL_PROPERTY
Angle
SciTegic.value.DoubleValue
2.713

@<SCITEGIC>MOL_PROPERTY
Pdih
SciTegic.value.DoubleValue
3.529

@<SCITEGIC>MOL_PROPERTY
Idih
SciTegic.value.DoubleValue
0.000

@<SCITEGIC>MOL_PROPERTY
Tether
SciTegic.value.DoubleValue
0.000

@<TRIPOS>MOLECULE
guest-6_confgen4.mol2 : confsearch ligand conformer 206
          13          12           1
SMALL
USER_CHARGES
 
@<TRIPOS>ATOM
       1    C1      20.732671   19.504420   19.910614 C.2        1 MOL1         0.6021
       2    O1      21.934076   19.662444   19.826852 O.co2      1 MOL1        -0.6904
       3    O2      19.936070   19.991085   19.133475 O.co2      1 MOL1        -0.6904
       4    C2      20.194207   18.665358   21.064533 C.3        1 MOL1        -0.2102
       5    H1      20.931924   17.886748   21.293791 H          1 MOL1         0.0687
       6    H2      19.284258   18.157748   20.721978 H          1 MOL1         0.0687
       7    C3      19.892411   19.502612   22.330934 C.3        1 MOL1        -0.1974
       8    H3      20.808186   20.014042   22.658984 H          1 MOL1         0.0689
       9    H4      19.160126   20.284997   22.087096 H          1 MOL1         0.0689
      10    C4      19.350347   18.626244   23.477858 C.3        1 MOL1        -0.2987
      11    H5      19.142495   19.236983   24.366147 H          1 MOL1         0.0700
      12    H6      18.417593   18.127227   23.183734 H          1 MOL1         0.0700
      13    H7      20.078311   17.854230   23.760026 H          1 MOL1         0.0700
@<TRIPOS>BOND
    1     1     2    1
    2     1     3    2
    3     1     4    1
    4     4     5    1
    5     4     6    1
    6     4     7    1
    7     7     8    1
    8     7     9    1
    9     7    10    1
   10    10    11    1
   11    10    12    1
   12    10    13    1
@<TRIPOS>SUBSTRUCTURE
       1 MOL1            1 RESIDUE      1      MOL     
@<SCITEGIC>MOL_PROPERTY
VConf Rank
SciTegic.value.IntegerValue
206

@<SCITEGIC>MOL_PROPERTY
Conf_Id
SciTegic.value.IntegerValue
1

@<SCITEGIC>MOL_PROPERTY
Delta U+W
SciTegic.value.DoubleValue
-1.339

@<SCITEGIC>MOL_PROPERTY
U+W
SciTegic.value.DoubleValue
-59.672

@<SCITEGIC>MOL_PROPERTY
Grad RMS
SciTegic.value.DoubleValue
0.000000

@<SCITEGIC>MOL_PROPERTY
U
SciTegic.value.DoubleValue
7.389

@<SCITEGIC>MOL_PROPERTY
W
SciTegic.value.DoubleValue
-67.061

@<SCITEGIC>MOL_PROPERTY
W(PB)
SciTegic.value.DoubleValue
-68.767

@<SCITEGIC>MOL_PROPERTY
W(SA)
SciTegic.value.DoubleValue
1.707

@<SCITEGIC>MOL_PROPERTY
Valence
SciTegic.value.DoubleValue
5.822

@<SCITEGIC>MOL_PROPERTY
Coulomb
SciTegic.value.DoubleValue
1.255

@<SCITEGIC>MOL_PROPERTY
VdW
SciTegic.value.DoubleValue
0.312

@<SCITEGIC>MOL_PROPERTY
VdW6
SciTegic.value.DoubleValue
-3.061

@<SCITEGIC>MOL_PROPERTY
VdW12
SciTegic.value.DoubleValue
3.372

@<SCITEGIC>MOL_PROPERTY
Bond
SciTegic.value.DoubleValue
0.059

@<SCITEGIC>MOL_PROPERTY
Angle
SciTegic.value.DoubleValue
2.241

@<SCITEGIC>MOL_PROPERTY
Pdih
SciTegic.value.DoubleValue
3.522

@<SCITEGIC>MOL_PROPERTY
Idih
SciTegic.value.DoubleValue
0.000

@<SCITEGIC>MOL_PROPERTY
Tether
SciTegic.value.DoubleValue
0.000

@<TRIPOS>MOLECULE
guest-6_confgen4.mol2 : confsearch ligand conformer 207
          13          12           1
SMALL
USER_CHARGES
 
@<TRIPOS>ATOM
       1    C1      21.120871   19.467182   23.400545 C.2        1 MOL1         0.6021
       2    O1      20.743936   19.076958   24.487625 O.co2      1 MOL1        -0.6904
       3    O2      22.290218   19.513810   23.074419 O.co2      1 MOL1        -0.6904
       4    C2      20.070321   19.957723   22.407347 C.3        1 MOL1        -0.2102
       5    H1      20.568940   20.557319   21.635886 H          1 MOL1         0.0687
       6    H2      19.398700   20.634243   22.949225 H          1 MOL1         0.0687
       7    C3      19.240714   18.825066   21.749943 C.3        1 MOL1        -0.1974
       8    H3      18.779231   18.205875   22.531965 H          1 MOL1         0.0689
       9    H4      18.418252   19.269685   21.173103 H          1 MOL1         0.0689
      10    C4      20.089210   17.937711   20.815822 C.3        1 MOL1        -0.2987
      11    H5      20.896831   17.440831   21.369614 H          1 MOL1         0.0700
      12    H6      19.468709   17.159697   20.352391 H          1 MOL1         0.0700
      13    H7      20.542250   18.533908   20.012892 H          1 MOL1         0.0700
@<TRIPOS>BOND
    1     1     2    1
    2     1     3    2
    3     1     4    1
    4     4     5    1
    5     4     6    1
    6     4     7    1
    7     7     8    1
    8     7     9    1
    9     7    10    1
   10    10    11    1
   11    10    12    1
   12    10    13    1
@<TRIPOS>SUBSTRUCTURE
       1 MOL1            1 RESIDUE      1      MOL     
@<SCITEGIC>MOL_PROPERTY
VConf Rank
SciTegic.value.IntegerValue
207

@<SCITEGIC>MOL_PROPERTY
Conf_Id
SciTegic.value.IntegerValue
4

@<SCITEGIC>MOL_PROPERTY
Delta U+W
SciTegic.value.DoubleValue
0.281

@<SCITEGIC>MOL_PROPERTY
U+W
SciTegic.value.DoubleValue
-58.051

@<SCITEGIC>MOL_PROPERTY
Grad RMS
SciTegic.value.DoubleValue
0.000000

@<SCITEGIC>MOL_PROPERTY
U
SciTegic.value.DoubleValue
9.781

@<SCITEGIC>MOL_PROPERTY
W
SciTegic.value.DoubleValue
-67.832

@<SCITEGIC>MOL_PROPERTY
W(PB)
SciTegic.value.DoubleValue
-69.535

@<SCITEGIC>MOL_PROPERTY
W(SA)
SciTegic.value.DoubleValue
1.703

@<SCITEGIC>MOL_PROPERTY
Valence
SciTegic.value.DoubleValue
6.123

@<SCITEGIC>MOL_PROPERTY
Coulomb
SciTegic.value.DoubleValue
3.449

@<SCITEGIC>MOL_PROPERTY
VdW
SciTegic.value.DoubleValue
0.209

@<SCITEGIC>MOL_PROPERTY
VdW6
SciTegic.value.DoubleValue
-3.762

@<SCITEGIC>MOL_PROPERTY
VdW12
SciTegic.value.DoubleValue
3.972

@<SCITEGIC>MOL_PROPERTY
Bond
SciTegic.value.DoubleValue
0.078

@<SCITEGIC>MOL_PROPERTY
Angle
SciTegic.value.DoubleValue
2.428

@<SCITEGIC>MOL_PROPERTY
Pdih
SciTegic.value.DoubleValue
3.616

@<SCITEGIC>MOL_PROPERTY
Idih
SciTegic.value.DoubleValue
0.002

@<SCITEGIC>MOL_PROPERTY
Tether
SciTegic.value.DoubleValue
0.000

@<TRIPOS>MOLECULE
guest-6_confgen4.mol2 : confsearch ligand conformer 208
          13          12           1
SMALL
USER_CHARGES
 
@<TRIPOS>ATOM
       1    C1      19.559426   19.016740   23.698904 C.2        1 MOL1         0.6021
       2    O1      18.491987   19.593419   23.761507 O.co2      1 MOL1        -0.6904
       3    O2      19.839164   18.050005   24.379542 O.co2      1 MOL1        -0.6904
       4    C2      20.619830   19.554651   22.741344 C.3        1 MOL1        -0.2102
       5    H1      21.560865   19.622390   23.300139 H          1 MOL1         0.0687
       6    H2      20.347586   20.577772   22.454300 H          1 MOL1         0.0687
       7    C3      20.832878   18.684054   21.476430 C.3        1 MOL1        -0.1974
       8    H3      21.707418   19.056957   20.925979 H          1 MOL1         0.0689
       9    H4      21.064311   17.651982   21.775071 H          1 MOL1         0.0689
      10    C4      19.606795   18.693032   20.540179 C.3        1 MOL1        -0.2987
      11    H5      19.371412   19.713826   20.211595 H          1 MOL1         0.0700
      12    H6      19.797746   18.084251   19.646860 H          1 MOL1         0.0700
      13    H7      18.721592   18.284097   21.045168 H          1 MOL1         0.0700
@<TRIPOS>BOND
    1     1     2    1
    2     1     3    2
    3     1     4    1
    4     4     5    1
    5     4     6    1
    6     4     7    1
    7     7     8    1
    8     7     9    1
    9     7    10    1
   10    10    11    1
   11    10    12    1
   12    10    13    1
@<TRIPOS>SUBSTRUCTURE
       1 MOL1            1 RESIDUE      1      MOL     
@<SCITEGIC>MOL_PROPERTY
VConf Rank
SciTegic.value.IntegerValue
208

@<SCITEGIC>MOL_PROPERTY
Conf_Id
SciTegic.value.IntegerValue
36

@<SCITEGIC>MOL_PROPERTY
Delta U+W
SciTegic.value.DoubleValue
0.272

@<SCITEGIC>MOL_PROPERTY
U+W
SciTegic.value.DoubleValue
-58.060

@<SCITEGIC>MOL_PROPERTY
Grad RMS
SciTegic.value.DoubleValue
0.000000

@<SCITEGIC>MOL_PROPERTY
U
SciTegic.value.DoubleValue
9.781

@<SCITEGIC>MOL_PROPERTY
W
SciTegic.value.DoubleValue
-67.841

@<SCITEGIC>MOL_PROPERTY
W(PB)
SciTegic.value.DoubleValue
-69.537

@<SCITEGIC>MOL_PROPERTY
W(SA)
SciTegic.value.DoubleValue
1.696

@<SCITEGIC>MOL_PROPERTY
Valence
SciTegic.value.DoubleValue
6.123

@<SCITEGIC>MOL_PROPERTY
Coulomb
SciTegic.value.DoubleValue
3.449

@<SCITEGIC>MOL_PROPERTY
VdW
SciTegic.value.DoubleValue
0.209

@<SCITEGIC>MOL_PROPERTY
VdW6
SciTegic.value.DoubleValue
-3.762

@<SCITEGIC>MOL_PROPERTY
VdW12
SciTegic.value.DoubleValue
3.972

@<SCITEGIC>MOL_PROPERTY
Bond
SciTegic.value.DoubleValue
0.078

@<SCITEGIC>MOL_PROPERTY
Angle
SciTegic.value.DoubleValue
2.428

@<SCITEGIC>MOL_PROPERTY
Pdih
SciTegic.value.DoubleValue
3.616

@<SCITEGIC>MOL_PROPERTY
Idih
SciTegic.value.DoubleValue
0.002

@<SCITEGIC>MOL_PROPERTY
Tether
SciTegic.value.DoubleValue
0.000

@<TRIPOS>MOLECULE
guest-6_confgen4.mol2 : confsearch ligand conformer 209
          13          12           1
SMALL
USER_CHARGES
 
@<TRIPOS>ATOM
       1    C1      20.160704   17.833313   20.041618 C.2        1 MOL1         0.6021
       2    O1      21.285689   18.121367   19.682782 O.co2      1 MOL1        -0.6904
       3    O2      19.446452   17.066965   19.427331 O.co2      1 MOL1        -0.6904
       4    C2      19.589622   18.447790   21.321057 C.3        1 MOL1        -0.2102
       5    H1      19.307738   17.621199   21.984102 H          1 MOL1         0.0687
       6    H2      18.664553   18.969993   21.049230 H          1 MOL1         0.0687
       7    C3      20.537072   19.419841   22.071664 C.3        1 MOL1        -0.1974
       8    H3      21.464645   18.895396   22.340590 H          1 MOL1         0.0689
       9    H4      20.820734   20.245817   21.404541 H          1 MOL1         0.0689
      10    C4      19.877960   19.987980   23.344701 C.3        1 MOL1        -0.2987
      11    H5      19.612822   19.182938   24.042650 H          1 MOL1         0.0700
      12    H6      20.562693   20.672888   23.861711 H          1 MOL1         0.0700
      13    H7      18.963708   20.544158   23.099075 H          1 MOL1         0.0700
@<TRIPOS>BOND
    1     1     2    1
    2     1     3    2
    3     1     4    1
    4     4     5    1
    5     4     6    1
    6     4     7    1
    7     7     8    1
    8     7     9    1
    9     7    10    1
   10    10    11    1
   11    10    12    1
   12    10    13    1
@<TRIPOS>SUBSTRUCTURE
       1 MOL1            1 RESIDUE      1      MOL     
@<SCITEGIC>MOL_PROPERTY
VConf Rank
SciTegic.value.IntegerValue
209

@<SCITEGIC>MOL_PROPERTY
Conf_Id
SciTegic.value.IntegerValue
0

@<SCITEGIC>MOL_PROPERTY
Delta U+W
SciTegic.value.DoubleValue
0.000

@<SCITEGIC>MOL_PROPERTY
U+W
SciTegic.value.DoubleValue
-58.332

@<SCITEGIC>MOL_PROPERTY
Grad RMS
SciTegic.value.DoubleValue
0.000000

@<SCITEGIC>MOL_PROPERTY
U
SciTegic.value.DoubleValue
8.390

@<SCITEGIC>MOL_PROPERTY
W
SciTegic.value.DoubleValue
-66.722

@<SCITEGIC>MOL_PROPERTY
W(PB)
SciTegic.value.DoubleValue
-68.455

@<SCITEGIC>MOL_PROPERTY
W(SA)
SciTegic.value.DoubleValue
1.733

@<SCITEGIC>MOL_PROPERTY
Valence
SciTegic.value.DoubleValue
6.333

@<SCITEGIC>MOL_PROPERTY
Coulomb
SciTegic.value.DoubleValue
1.215

@<SCITEGIC>MOL_PROPERTY
VdW
SciTegic.value.DoubleValue
0.842

@<SCITEGIC>MOL_PROPERTY
VdW6
SciTegic.value.DoubleValue
-3.344

@<SCITEGIC>MOL_PROPERTY
VdW12
SciTegic.value.DoubleValue
4.186

@<SCITEGIC>MOL_PROPERTY
Bond
SciTegic.value.DoubleValue
0.091

@<SCITEGIC>MOL_PROPERTY
Angle
SciTegic.value.DoubleValue
2.713

@<SCITEGIC>MOL_PROPERTY
Pdih
SciTegic.value.DoubleValue
3.529

@<SCITEGIC>MOL_PROPERTY
Idih
SciTegic.value.DoubleValue
0.000

@<SCITEGIC>MOL_PROPERTY
Tether
SciTegic.value.DoubleValue
0.000

@<TRIPOS>MOLECULE
guest-6_confgen4.mol2 : confsearch ligand conformer 210
          13          12           1
SMALL
USER_CHARGES
 
@<TRIPOS>ATOM
       1    C1      21.309030   19.468632   23.424105 C.2        1 MOL1         0.6021
       2    O1      20.889991   19.240195   24.541058 O.co2      1 MOL1        -0.6904
       3    O2      22.185355   20.275975   23.188286 O.co2      1 MOL1        -0.6904
       4    C2      20.688411   18.714884   22.252698 C.3        1 MOL1        -0.2102
       5    H1      20.394829   17.718509   22.604928 H          1 MOL1         0.0687
       6    H2      21.463075   18.572658   21.489360 H          1 MOL1         0.0687
       7    C3      19.467577   19.445380   21.642954 C.3        1 MOL1        -0.1974
       8    H3      18.702716   19.591066   22.418574 H          1 MOL1         0.0689
       9    H4      19.771191   20.445309   21.302686 H          1 MOL1         0.0689
      10    C4      18.863693   18.658606   20.462445 C.3        1 MOL1        -0.2987
      11    H5      18.000171   19.191794   20.043755 H          1 MOL1         0.0700
      12    H6      19.601668   18.525948   19.660355 H          1 MOL1         0.0700
      13    H7      18.524968   17.665179   20.784817 H          1 MOL1         0.0700
@<TRIPOS>BOND
    1     1     2    1
    2     1     3    2
    3     1     4    1
    4     4     5    1
    5     4     6    1
    6     4     7    1
    7     7     8    1
    8     7     9    1
    9     7    10    1
   10    10    11    1
   11    10    12    1
   12    10    13    1
@<TRIPOS>SUBSTRUCTURE
       1 MOL1            1 RESIDUE      1      MOL     
@<SCITEGIC>MOL_PROPERTY
VConf Rank
SciTegic.value.IntegerValue
210

@<SCITEGIC>MOL_PROPERTY
Conf_Id
SciTegic.value.IntegerValue
1

@<SCITEGIC>MOL_PROPERTY
Delta U+W
SciTegic.value.DoubleValue
-1.339

@<SCITEGIC>MOL_PROPERTY
U+W
SciTegic.value.DoubleValue
-59.672

@<SCITEGIC>MOL_PROPERTY
Grad RMS
SciTegic.value.DoubleValue
0.000000

@<SCITEGIC>MOL_PROPERTY
U
SciTegic.value.DoubleValue
7.389

@<SCITEGIC>MOL_PROPERTY
W
SciTegic.value.DoubleValue
-67.061

@<SCITEGIC>MOL_PROPERTY
W(PB)
SciTegic.value.DoubleValue
-68.767

@<SCITEGIC>MOL_PROPERTY
W(SA)
SciTegic.value.DoubleValue
1.707

@<SCITEGIC>MOL_PROPERTY
Valence
SciTegic.value.DoubleValue
5.822

@<SCITEGIC>MOL_PROPERTY
Coulomb
SciTegic.value.DoubleValue
1.255

@<SCITEGIC>MOL_PROPERTY
VdW
SciTegic.value.DoubleValue
0.312

@<SCITEGIC>MOL_PROPERTY
VdW6
SciTegic.value.DoubleValue
-3.061

@<SCITEGIC>MOL_PROPERTY
VdW12
SciTegic.value.DoubleValue
3.372

@<SCITEGIC>MOL_PROPERTY
Bond
SciTegic.value.DoubleValue
0.059

@<SCITEGIC>MOL_PROPERTY
Angle
SciTegic.value.DoubleValue
2.241

@<SCITEGIC>MOL_PROPERTY
Pdih
SciTegic.value.DoubleValue
3.522

@<SCITEGIC>MOL_PROPERTY
Idih
SciTegic.value.DoubleValue
0.000

@<SCITEGIC>MOL_PROPERTY
Tether
SciTegic.value.DoubleValue
0.000

@<TRIPOS>MOLECULE
guest-6_confgen4.mol2 : confsearch ligand conformer 211
          13          12           1
SMALL
USER_CHARGES
 
@<TRIPOS>ATOM
       1    C1      19.139838   18.138186   23.242631 C.2        1 MOL1         0.6021
       2    O1      19.757929   17.585070   24.130395 O.co2      1 MOL1        -0.6904
       3    O2      18.111943   18.758517   23.428445 O.co2      1 MOL1        -0.6904
       4    C2      19.665352   18.015442   21.814521 C.3        1 MOL1        -0.2102
       5    H1      18.857970   18.276410   21.119310 H          1 MOL1         0.0687
       6    H2      19.901762   16.958561   21.642772 H          1 MOL1         0.0687
       7    C3      20.920052   18.878261   21.523644 C.3        1 MOL1        -0.1974
       8    H3      21.708035   18.638411   22.251296 H          1 MOL1         0.0689
       9    H4      21.315209   18.616190   20.532663 H          1 MOL1         0.0689
      10    C4      20.618337   20.390686   21.561952 C.3        1 MOL1        -0.2987
      11    H5      20.262136   20.697063   22.554465 H          1 MOL1         0.0700
      12    H6      21.521430   20.971235   21.332859 H          1 MOL1         0.0700
      13    H7      19.848190   20.655977   20.825823 H          1 MOL1         0.0700
@<TRIPOS>BOND
    1     1     2    1
    2     1     3    2
    3     1     4    1
    4     4     5    1
    5     4     6    1
    6     4     7    1
    7     7     8    1
    8     7     9    1
    9     7    10    1
   10    10    11    1
   11    10    12    1
   12    10    13    1
@<TRIPOS>SUBSTRUCTURE
       1 MOL1            1 RESIDUE      1      MOL     
@<SCITEGIC>MOL_PROPERTY
VConf Rank
SciTegic.value.IntegerValue
211

@<SCITEGIC>MOL_PROPERTY
Conf_Id
SciTegic.value.IntegerValue
4

@<SCITEGIC>MOL_PROPERTY
Delta U+W
SciTegic.value.DoubleValue
0.281

@<SCITEGIC>MOL_PROPERTY
U+W
SciTegic.value.DoubleValue
-58.051

@<SCITEGIC>MOL_PROPERTY
Grad RMS
SciTegic.value.DoubleValue
0.000000

@<SCITEGIC>MOL_PROPERTY
U
SciTegic.value.DoubleValue
9.781

@<SCITEGIC>MOL_PROPERTY
W
SciTegic.value.DoubleValue
-67.832

@<SCITEGIC>MOL_PROPERTY
W(PB)
SciTegic.value.DoubleValue
-69.535

@<SCITEGIC>MOL_PROPERTY
W(SA)
SciTegic.value.DoubleValue
1.703

@<SCITEGIC>MOL_PROPERTY
Valence
SciTegic.value.DoubleValue
6.123

@<SCITEGIC>MOL_PROPERTY
Coulomb
SciTegic.value.DoubleValue
3.449

@<SCITEGIC>MOL_PROPERTY
VdW
SciTegic.value.DoubleValue
0.209

@<SCITEGIC>MOL_PROPERTY
VdW6
SciTegic.value.DoubleValue
-3.762

@<SCITEGIC>MOL_PROPERTY
VdW12
SciTegic.value.DoubleValue
3.972

@<SCITEGIC>MOL_PROPERTY
Bond
SciTegic.value.DoubleValue
0.078

@<SCITEGIC>MOL_PROPERTY
Angle
SciTegic.value.DoubleValue
2.428

@<SCITEGIC>MOL_PROPERTY
Pdih
SciTegic.value.DoubleValue
3.616

@<SCITEGIC>MOL_PROPERTY
Idih
SciTegic.value.DoubleValue
0.002

@<SCITEGIC>MOL_PROPERTY
Tether
SciTegic.value.DoubleValue
0.000

@<TRIPOS>MOLECULE
guest-6_confgen4.mol2 : confsearch ligand conformer 212
          13          12           1
SMALL
USER_CHARGES
 
@<TRIPOS>ATOM
       1    C1      20.882835   20.541006   22.383658 C.2        1 MOL1         0.6021
       2    O1      21.439722   20.468870   23.460960 O.co2      1 MOL1        -0.6904
       3    O2      21.327899   21.163790   21.440177 O.co2      1 MOL1        -0.6904
       4    C2      19.535559   19.843069   22.214970 C.3        1 MOL1        -0.2102
       5    H1      18.849392   20.563681   21.754234 H          1 MOL1         0.0687
       6    H2      19.132323   19.612553   23.208726 H          1 MOL1         0.0687
       7    C3      19.590569   18.557822   21.349840 C.3        1 MOL1        -0.1974
       8    H3      18.566610   18.209728   21.156938 H          1 MOL1         0.0689
       9    H4      20.034086   18.791598   20.371799 H          1 MOL1         0.0689
      10    C4      20.388997   17.424418   22.026477 C.3        1 MOL1        -0.2987
      11    H5      19.948896   17.159525   22.996804 H          1 MOL1         0.0700
      12    H6      20.391754   16.524501   21.397797 H          1 MOL1         0.0700
      13    H7      21.432370   17.722614   22.194637 H          1 MOL1         0.0700
@<TRIPOS>BOND
    1     1     2    1
    2     1     3    2
    3     1     4    1
    4     4     5    1
    5     4     6    1
    6     4     7    1
    7     7     8    1
    8     7     9    1
    9     7    10    1
   10    10    11    1
   11    10    12    1
   12    10    13    1
@<TRIPOS>SUBSTRUCTURE
       1 MOL1            1 RESIDUE      1      MOL     
@<SCITEGIC>MOL_PROPERTY
VConf Rank
SciTegic.value.IntegerValue
212

@<SCITEGIC>MOL_PROPERTY
Conf_Id
SciTegic.value.IntegerValue
36

@<SCITEGIC>MOL_PROPERTY
Delta U+W
SciTegic.value.DoubleValue
0.272

@<SCITEGIC>MOL_PROPERTY
U+W
SciTegic.value.DoubleValue
-58.060

@<SCITEGIC>MOL_PROPERTY
Grad RMS
SciTegic.value.DoubleValue
0.000000

@<SCITEGIC>MOL_PROPERTY
U
SciTegic.value.DoubleValue
9.781

@<SCITEGIC>MOL_PROPERTY
W
SciTegic.value.DoubleValue
-67.841

@<SCITEGIC>MOL_PROPERTY
W(PB)
SciTegic.value.DoubleValue
-69.537

@<SCITEGIC>MOL_PROPERTY
W(SA)
SciTegic.value.DoubleValue
1.696

@<SCITEGIC>MOL_PROPERTY
Valence
SciTegic.value.DoubleValue
6.123

@<SCITEGIC>MOL_PROPERTY
Coulomb
SciTegic.value.DoubleValue
3.449

@<SCITEGIC>MOL_PROPERTY
VdW
SciTegic.value.DoubleValue
0.209

@<SCITEGIC>MOL_PROPERTY
VdW6
SciTegic.value.DoubleValue
-3.762

@<SCITEGIC>MOL_PROPERTY
VdW12
SciTegic.value.DoubleValue
3.972

@<SCITEGIC>MOL_PROPERTY
Bond
SciTegic.value.DoubleValue
0.078

@<SCITEGIC>MOL_PROPERTY
Angle
SciTegic.value.DoubleValue
2.428

@<SCITEGIC>MOL_PROPERTY
Pdih
SciTegic.value.DoubleValue
3.616

@<SCITEGIC>MOL_PROPERTY
Idih
SciTegic.value.DoubleValue
0.002

@<SCITEGIC>MOL_PROPERTY
Tether
SciTegic.value.DoubleValue
0.000

@<TRIPOS>MOLECULE
guest-6_confgen4.mol2 : confsearch ligand conformer 213
          13          12           1
SMALL
USER_CHARGES
 
@<TRIPOS>ATOM
       1    C1      18.561883   17.965153   22.979014 C.2        1 MOL1         0.6021
       2    O1      19.281274   17.220091   23.615165 O.co2      1 MOL1        -0.6904
       3    O2      17.353515   17.979867   23.099124 O.co2      1 MOL1        -0.6904
       4    C2      19.176319   18.940379   21.972991 C.3        1 MOL1        -0.2102
       5    H1      18.863664   19.950586   22.262934 H          1 MOL1         0.0687
       6    H2      18.722921   18.732767   20.996433 H          1 MOL1         0.0687
       7    C3      20.721875   18.885895   21.853636 C.3        1 MOL1        -0.1974
       8    H3      21.174201   19.091339   22.833916 H          1 MOL1         0.0689
       9    H4      21.033296   17.871994   21.565929 H          1 MOL1         0.0689
      10    C4      21.249296   19.900615   20.819225 C.3        1 MOL1        -0.2987
      11    H5      20.977328   20.926355   21.101030 H          1 MOL1         0.0700
      12    H6      22.343580   19.847364   20.748783 H          1 MOL1         0.0700
      13    H7      20.835241   19.697240   19.822871 H          1 MOL1         0.0700
@<TRIPOS>BOND
    1     1     2    1
    2     1     3    2
    3     1     4    1
    4     4     5    1
    5     4     6    1
    6     4     7    1
    7     7     8    1
    8     7     9    1
    9     7    10    1
   10    10    11    1
   11    10    12    1
   12    10    13    1
@<TRIPOS>SUBSTRUCTURE
       1 MOL1            1 RESIDUE      1      MOL     
@<SCITEGIC>MOL_PROPERTY
VConf Rank
SciTegic.value.IntegerValue
213

@<SCITEGIC>MOL_PROPERTY
Conf_Id
SciTegic.value.IntegerValue
0

@<SCITEGIC>MOL_PROPERTY
Delta U+W
SciTegic.value.DoubleValue
0.000

@<SCITEGIC>MOL_PROPERTY
U+W
SciTegic.value.DoubleValue
-58.332

@<SCITEGIC>MOL_PROPERTY
Grad RMS
SciTegic.value.DoubleValue
0.000000

@<SCITEGIC>MOL_PROPERTY
U
SciTegic.value.DoubleValue
8.390

@<SCITEGIC>MOL_PROPERTY
W
SciTegic.value.DoubleValue
-66.722

@<SCITEGIC>MOL_PROPERTY
W(PB)
SciTegic.value.DoubleValue
-68.455

@<SCITEGIC>MOL_PROPERTY
W(SA)
SciTegic.value.DoubleValue
1.733

@<SCITEGIC>MOL_PROPERTY
Valence
SciTegic.value.DoubleValue
6.333

@<SCITEGIC>MOL_PROPERTY
Coulomb
SciTegic.value.DoubleValue
1.215

@<SCITEGIC>MOL_PROPERTY
VdW
SciTegic.value.DoubleValue
0.842

@<SCITEGIC>MOL_PROPERTY
VdW6
SciTegic.value.DoubleValue
-3.344

@<SCITEGIC>MOL_PROPERTY
VdW12
SciTegic.value.DoubleValue
4.186

@<SCITEGIC>MOL_PROPERTY
Bond
SciTegic.value.DoubleValue
0.091

@<SCITEGIC>MOL_PROPERTY
Angle
SciTegic.value.DoubleValue
2.713

@<SCITEGIC>MOL_PROPERTY
Pdih
SciTegic.value.DoubleValue
3.529

@<SCITEGIC>MOL_PROPERTY
Idih
SciTegic.value.DoubleValue
0.000

@<SCITEGIC>MOL_PROPERTY
Tether
SciTegic.value.DoubleValue
0.000

@<TRIPOS>MOLECULE
guest-6_confgen4.mol2 : confsearch ligand conformer 214
          13          12           1
SMALL
USER_CHARGES
 
@<TRIPOS>ATOM
       1    C1      20.653501   17.285251   22.802409 C.2        1 MOL1         0.6021
       2    O1      21.556327   16.682784   22.257157 O.co2      1 MOL1        -0.6904
       3    O2      19.863211   16.764670   23.563854 O.co2      1 MOL1        -0.6904
       4    C2      20.492041   18.771195   22.500084 C.3        1 MOL1        -0.2102
       5    H1      21.488200   19.192935   22.318918 H          1 MOL1         0.0687
       6    H2      20.091973   19.260465   23.396509 H          1 MOL1         0.0687
       7    C3      19.569460   19.044285   21.287601 C.3        1 MOL1        -0.1974
       8    H3      19.974543   18.541472   20.398271 H          1 MOL1         0.0689
       9    H4      18.578034   18.609132   21.476120 H          1 MOL1         0.0689
      10    C4      19.427039   20.553919   21.008295 C.3        1 MOL1        -0.2987
      11    H5      18.769948   20.727359   20.146081 H          1 MOL1         0.0700
      12    H6      18.995595   21.074436   21.873439 H          1 MOL1         0.0700
      13    H7      20.402806   21.006235   20.787286 H          1 MOL1         0.0700
@<TRIPOS>BOND
    1     1     2    1
    2     1     3    2
    3     1     4    1
    4     4     5    1
    5     4     6    1
    6     4     7    1
    7     7     8    1
    8     7     9    1
    9     7    10    1
   10    10    11    1
   11    10    12    1
   12    10    13    1
@<TRIPOS>SUBSTRUCTURE
       1 MOL1            1 RESIDUE      1      MOL     
@<SCITEGIC>MOL_PROPERTY
VConf Rank
SciTegic.value.IntegerValue
214

@<SCITEGIC>MOL_PROPERTY
Conf_Id
SciTegic.value.IntegerValue
1

@<SCITEGIC>MOL_PROPERTY
Delta U+W
SciTegic.value.DoubleValue
-1.339

@<SCITEGIC>MOL_PROPERTY
U+W
SciTegic.value.DoubleValue
-59.672

@<SCITEGIC>MOL_PROPERTY
Grad RMS
SciTegic.value.DoubleValue
0.000000

@<SCITEGIC>MOL_PROPERTY
U
SciTegic.value.DoubleValue
7.389

@<SCITEGIC>MOL_PROPERTY
W
SciTegic.value.DoubleValue
-67.061

@<SCITEGIC>MOL_PROPERTY
W(PB)
SciTegic.value.DoubleValue
-68.767

@<SCITEGIC>MOL_PROPERTY
W(SA)
SciTegic.value.DoubleValue
1.707

@<SCITEGIC>MOL_PROPERTY
Valence
SciTegic.value.DoubleValue
5.822

@<SCITEGIC>MOL_PROPERTY
Coulomb
SciTegic.value.DoubleValue
1.255

@<SCITEGIC>MOL_PROPERTY
VdW
SciTegic.value.DoubleValue
0.312

@<SCITEGIC>MOL_PROPERTY
VdW6
SciTegic.value.DoubleValue
-3.061

@<SCITEGIC>MOL_PROPERTY
VdW12
SciTegic.value.DoubleValue
3.372

@<SCITEGIC>MOL_PROPERTY
Bond
SciTegic.value.DoubleValue
0.059

@<SCITEGIC>MOL_PROPERTY
Angle
SciTegic.value.DoubleValue
2.241

@<SCITEGIC>MOL_PROPERTY
Pdih
SciTegic.value.DoubleValue
3.522

@<SCITEGIC>MOL_PROPERTY
Idih
SciTegic.value.DoubleValue
0.000

@<SCITEGIC>MOL_PROPERTY
Tether
SciTegic.value.DoubleValue
0.000

@<TRIPOS>MOLECULE
guest-6_confgen4.mol2 : confsearch ligand conformer 215
          13          12           1
SMALL
USER_CHARGES
 
@<TRIPOS>ATOM
       1    C1      19.382005   17.652742   22.960956 C.2        1 MOL1         0.6021
       2    O1      20.153479   16.873384   23.483955 O.co2      1 MOL1        -0.6904
       3    O2      18.375538   18.063989   23.502993 O.co2      1 MOL1        -0.6904
       4    C2      19.676437   18.109721   21.534349 C.3        1 MOL1        -0.2102
       5    H1      18.759466   18.530557   21.103827 H          1 MOL1         0.0687
       6    H2      19.919974   17.215547   20.948236 H          1 MOL1         0.0687
       7    C3      20.836816   19.131604   21.422034 C.3        1 MOL1        -0.1974
       8    H3      21.739082   18.716670   21.892850 H          1 MOL1         0.0689
       9    H4      21.077534   19.287694   20.361579 H          1 MOL1         0.0689
      10    C4      20.491231   20.490404   22.065586 C.3        1 MOL1        -0.2987
      11    H5      20.287602   20.378404   23.138815 H          1 MOL1         0.0700
      12    H6      21.324726   21.195639   21.951460 H          1 MOL1         0.0700
      13    H7      19.604293   20.933654   21.594137 H          1 MOL1         0.0700
@<TRIPOS>BOND
    1     1     2    1
    2     1     3    2
    3     1     4    1
    4     4     5    1
    5     4     6    1
    6     4     7    1
    7     7     8    1
    8     7     9    1
    9     7    10    1
   10    10    11    1
   11    10    12    1
   12    10    13    1
@<TRIPOS>SUBSTRUCTURE
       1 MOL1            1 RESIDUE      1      MOL     
@<SCITEGIC>MOL_PROPERTY
VConf Rank
SciTegic.value.IntegerValue
215

@<SCITEGIC>MOL_PROPERTY
Conf_Id
SciTegic.value.IntegerValue
4

@<SCITEGIC>MOL_PROPERTY
Delta U+W
SciTegic.value.DoubleValue
0.281

@<SCITEGIC>MOL_PROPERTY
U+W
SciTegic.value.DoubleValue
-58.051

@<SCITEGIC>MOL_PROPERTY
Grad RMS
SciTegic.value.DoubleValue
0.000000

@<SCITEGIC>MOL_PROPERTY
U
SciTegic.value.DoubleValue
9.781

@<SCITEGIC>MOL_PROPERTY
W
SciTegic.value.DoubleValue
-67.832

@<SCITEGIC>MOL_PROPERTY
W(PB)
SciTegic.value.DoubleValue
-69.535

@<SCITEGIC>MOL_PROPERTY
W(SA)
SciTegic.value.DoubleValue
1.703

@<SCITEGIC>MOL_PROPERTY
Valence
SciTegic.value.DoubleValue
6.123

@<SCITEGIC>MOL_PROPERTY
Coulomb
SciTegic.value.DoubleValue
3.449

@<SCITEGIC>MOL_PROPERTY
VdW
SciTegic.value.DoubleValue
0.209

@<SCITEGIC>MOL_PROPERTY
VdW6
SciTegic.value.DoubleValue
-3.762

@<SCITEGIC>MOL_PROPERTY
VdW12
SciTegic.value.DoubleValue
3.972

@<SCITEGIC>MOL_PROPERTY
Bond
SciTegic.value.DoubleValue
0.078

@<SCITEGIC>MOL_PROPERTY
Angle
SciTegic.value.DoubleValue
2.428

@<SCITEGIC>MOL_PROPERTY
Pdih
SciTegic.value.DoubleValue
3.616

@<SCITEGIC>MOL_PROPERTY
Idih
SciTegic.value.DoubleValue
0.002

@<SCITEGIC>MOL_PROPERTY
Tether
SciTegic.value.DoubleValue
0.000

@<TRIPOS>MOLECULE
guest-6_confgen4.mol2 : confsearch ligand conformer 216
          13          12           1
SMALL
USER_CHARGES
 
@<TRIPOS>ATOM
       1    C1      19.061590   20.415641   22.029093 C.2        1 MOL1         0.6021
       2    O1      18.434331   20.439244   23.069235 O.co2      1 MOL1        -0.6904
       3    O2      19.505181   21.411016   21.491920 O.co2      1 MOL1        -0.6904
       4    C2      19.274244   19.069916   21.340235 C.3        1 MOL1        -0.2102
       5    H1      19.010390   19.198085   20.283666 H          1 MOL1         0.0687
       6    H2      18.564769   18.345175   21.758185 H          1 MOL1         0.0687
       7    C3      20.721077   18.523597   21.447696 C.3        1 MOL1        -0.1974
       8    H3      20.820519   17.639030   20.803861 H          1 MOL1         0.0689
       9    H4      21.426866   19.273924   21.064559 H          1 MOL1         0.0689
      10    C4      21.101626   18.140363   22.892771 C.3        1 MOL1        -0.2987
      11    H5      20.421426   17.374363   23.287693 H          1 MOL1         0.0700
      12    H6      22.122952   17.739659   22.930523 H          1 MOL1         0.0700
      13    H7      21.056040   19.013162   23.557580 H          1 MOL1         0.0700
@<TRIPOS>BOND
    1     1     2    1
    2     1     3    2
    3     1     4    1
    4     4     5    1
    5     4     6    1
    6     4     7    1
    7     7     8    1
    8     7     9    1
    9     7    10    1
   10    10    11    1
   11    10    12    1
   12    10    13    1
@<TRIPOS>SUBSTRUCTURE
       1 MOL1            1 RESIDUE      1      MOL     
@<SCITEGIC>MOL_PROPERTY
VConf Rank
SciTegic.value.IntegerValue
216

@<SCITEGIC>MOL_PROPERTY
Conf_Id
SciTegic.value.IntegerValue
36

@<SCITEGIC>MOL_PROPERTY
Delta U+W
SciTegic.value.DoubleValue
0.272

@<SCITEGIC>MOL_PROPERTY
U+W
SciTegic.value.DoubleValue
-58.060

@<SCITEGIC>MOL_PROPERTY
Grad RMS
SciTegic.value.DoubleValue
0.000000

@<SCITEGIC>MOL_PROPERTY
U
SciTegic.value.DoubleValue
9.781

@<SCITEGIC>MOL_PROPERTY
W
SciTegic.value.DoubleValue
-67.841

@<SCITEGIC>MOL_PROPERTY
W(PB)
SciTegic.value.DoubleValue
-69.537

@<SCITEGIC>MOL_PROPERTY
W(SA)
SciTegic.value.DoubleValue
1.696

@<SCITEGIC>MOL_PROPERTY
Valence
SciTegic.value.DoubleValue
6.123

@<SCITEGIC>MOL_PROPERTY
Coulomb
SciTegic.value.DoubleValue
3.449

@<SCITEGIC>MOL_PROPERTY
VdW
SciTegic.value.DoubleValue
0.209

@<SCITEGIC>MOL_PROPERTY
VdW6
SciTegic.value.DoubleValue
-3.762

@<SCITEGIC>MOL_PROPERTY
VdW12
SciTegic.value.DoubleValue
3.972

@<SCITEGIC>MOL_PROPERTY
Bond
SciTegic.value.DoubleValue
0.078

@<SCITEGIC>MOL_PROPERTY
Angle
SciTegic.value.DoubleValue
2.428

@<SCITEGIC>MOL_PROPERTY
Pdih
SciTegic.value.DoubleValue
3.616

@<SCITEGIC>MOL_PROPERTY
Idih
SciTegic.value.DoubleValue
0.002

@<SCITEGIC>MOL_PROPERTY
Tether
SciTegic.value.DoubleValue
0.000

@<TRIPOS>MOLECULE
guest-6_confgen4.mol2 : confsearch ligand conformer 217
          13          12           1
SMALL
USER_CHARGES
 
@<TRIPOS>ATOM
       1    C1      20.555649   20.493242   20.393977 C.2        1 MOL1         0.6021
       2    O1      21.369708   21.125160   21.038428 O.co2      1 MOL1        -0.6904
       3    O2      20.248869   20.778784   19.254176 O.co2      1 MOL1        -0.6904
       4    C2      19.868474   19.277710   21.019240 C.3        1 MOL1        -0.2102
       5    H1      20.074558   18.416250   20.372901 H          1 MOL1         0.0687
       6    H2      18.787303   19.456192   20.979868 H          1 MOL1         0.0687
       7    C3      20.291439   18.951331   22.475446 C.3        1 MOL1        -0.1974
       8    H3      21.375632   18.775678   22.513211 H          1 MOL1         0.0689
       9    H4      20.086862   19.816932   23.120920 H          1 MOL1         0.0689
      10    C4      19.549120   17.714490   23.020443 C.3        1 MOL1        -0.2987
      11    H5      19.762384   16.827441   22.409554 H          1 MOL1         0.0700
      12    H6      19.861135   17.499384   24.050799 H          1 MOL1         0.0700
      13    H7      18.463259   17.877050   23.022087 H          1 MOL1         0.0700
@<TRIPOS>BOND
    1     1     2    1
    2     1     3    2
    3     1     4    1
    4     4     5    1
    5     4     6    1
    6     4     7    1
    7     7     8    1
    8     7     9    1
    9     7    10    1
   10    10    11    1
   11    10    12    1
   12    10    13    1
@<TRIPOS>SUBSTRUCTURE
       1 MOL1            1 RESIDUE      1      MOL     
@<SCITEGIC>MOL_PROPERTY
VConf Rank
SciTegic.value.IntegerValue
217

@<SCITEGIC>MOL_PROPERTY
Conf_Id
SciTegic.value.IntegerValue
0

@<SCITEGIC>MOL_PROPERTY
Delta U+W
SciTegic.value.DoubleValue
0.000

@<SCITEGIC>MOL_PROPERTY
U+W
SciTegic.value.DoubleValue
-58.332

@<SCITEGIC>MOL_PROPERTY
Grad RMS
SciTegic.value.DoubleValue
0.000000

@<SCITEGIC>MOL_PROPERTY
U
SciTegic.value.DoubleValue
8.390

@<SCITEGIC>MOL_PROPERTY
W
SciTegic.value.DoubleValue
-66.722

@<SCITEGIC>MOL_PROPERTY
W(PB)
SciTegic.value.DoubleValue
-68.455

@<SCITEGIC>MOL_PROPERTY
W(SA)
SciTegic.value.DoubleValue
1.733

@<SCITEGIC>MOL_PROPERTY
Valence
SciTegic.value.DoubleValue
6.333

@<SCITEGIC>MOL_PROPERTY
Coulomb
SciTegic.value.DoubleValue
1.215

@<SCITEGIC>MOL_PROPERTY
VdW
SciTegic.value.DoubleValue
0.842

@<SCITEGIC>MOL_PROPERTY
VdW6
SciTegic.value.DoubleValue
-3.344

@<SCITEGIC>MOL_PROPERTY
VdW12
SciTegic.value.DoubleValue
4.186

@<SCITEGIC>MOL_PROPERTY
Bond
SciTegic.value.DoubleValue
0.091

@<SCITEGIC>MOL_PROPERTY
Angle
SciTegic.value.DoubleValue
2.713

@<SCITEGIC>MOL_PROPERTY
Pdih
SciTegic.value.DoubleValue
3.529

@<SCITEGIC>MOL_PROPERTY
Idih
SciTegic.value.DoubleValue
0.000

@<SCITEGIC>MOL_PROPERTY
Tether
SciTegic.value.DoubleValue
0.000

@<TRIPOS>MOLECULE
guest-6_confgen4.mol2 : confsearch ligand conformer 218
          13          12           1
SMALL
USER_CHARGES
 
@<TRIPOS>ATOM
       1    C1      19.256972   20.968436   22.282695 C.2        1 MOL1         0.6021
       2    O1      19.158099   21.734385   21.345194 O.co2      1 MOL1        -0.6904
       3    O2      19.381985   21.331088   23.435177 O.co2      1 MOL1        -0.6904
       4    C2      19.242275   19.470877   21.995291 C.3        1 MOL1        -0.2102
       5    H1      18.595072   19.296193   21.127170 H          1 MOL1         0.0687
       6    H2      18.779681   18.963614   22.850691 H          1 MOL1         0.0687
       7    C3      20.653644   18.892250   21.732469 C.3        1 MOL1        -0.1974
       8    H3      21.110934   19.414348   20.880343 H          1 MOL1         0.0689
       9    H4      21.295527   19.081592   22.604226 H          1 MOL1         0.0689
      10    C4      20.604599   17.378148   21.445449 C.3        1 MOL1        -0.2987
      11    H5      21.613629   16.986484   21.261820 H          1 MOL1         0.0700
      12    H6      20.178115   16.830699   22.296311 H          1 MOL1         0.0700
      13    H7      19.992143   17.166024   20.559189 H          1 MOL1         0.0700
@<TRIPOS>BOND
    1     1     2    1
    2     1     3    2
    3     1     4    1
    4     4     5    1
    5     4     6    1
    6     4     7    1
    7     7     8    1
    8     7     9    1
    9     7    10    1
   10    10    11    1
   11    10    12    1
   12    10    13    1
@<TRIPOS>SUBSTRUCTURE
       1 MOL1            1 RESIDUE      1      MOL     
@<SCITEGIC>MOL_PROPERTY
VConf Rank
SciTegic.value.IntegerValue
218

@<SCITEGIC>MOL_PROPERTY
Conf_Id
SciTegic.value.IntegerValue
1

@<SCITEGIC>MOL_PROPERTY
Delta U+W
SciTegic.value.DoubleValue
-1.339

@<SCITEGIC>MOL_PROPERTY
U+W
SciTegic.value.DoubleValue
-59.672

@<SCITEGIC>MOL_PROPERTY
Grad RMS
SciTegic.value.DoubleValue
0.000000

@<SCITEGIC>MOL_PROPERTY
U
SciTegic.value.DoubleValue
7.389

@<SCITEGIC>MOL_PROPERTY
W
SciTegic.value.DoubleValue
-67.061

@<SCITEGIC>MOL_PROPERTY
W(PB)
SciTegic.value.DoubleValue
-68.767

@<SCITEGIC>MOL_PROPERTY
W(SA)
SciTegic.value.DoubleValue
1.707

@<SCITEGIC>MOL_PROPERTY
Valence
SciTegic.value.DoubleValue
5.822

@<SCITEGIC>MOL_PROPERTY
Coulomb
SciTegic.value.DoubleValue
1.255

@<SCITEGIC>MOL_PROPERTY
VdW
SciTegic.value.DoubleValue
0.312

@<SCITEGIC>MOL_PROPERTY
VdW6
SciTegic.value.DoubleValue
-3.061

@<SCITEGIC>MOL_PROPERTY
VdW12
SciTegic.value.DoubleValue
3.372

@<SCITEGIC>MOL_PROPERTY
Bond
SciTegic.value.DoubleValue
0.059

@<SCITEGIC>MOL_PROPERTY
Angle
SciTegic.value.DoubleValue
2.241

@<SCITEGIC>MOL_PROPERTY
Pdih
SciTegic.value.DoubleValue
3.522

@<SCITEGIC>MOL_PROPERTY
Idih
SciTegic.value.DoubleValue
0.000

@<SCITEGIC>MOL_PROPERTY
Tether
SciTegic.value.DoubleValue
0.000

@<TRIPOS>MOLECULE
guest-6_confgen4.mol2 : confsearch ligand conformer 219
          13          12           1
SMALL
USER_CHARGES
 
@<TRIPOS>ATOM
       1    C1      18.586169   18.874080   22.909797 C.2        1 MOL1         0.6021
       2    O1      18.283827   17.776601   23.334330 O.co2      1 MOL1        -0.6904
       3    O2      18.419874   19.902735   23.534393 O.co2      1 MOL1        -0.6904
       4    C2      19.172490   18.965835   21.503192 C.3        1 MOL1        -0.2102
       5    H1      19.089088   20.002578   21.154630 H          1 MOL1         0.0687
       6    H2      18.539747   18.358638   20.844910 H          1 MOL1         0.0687
       7    C3      20.641652   18.482868   21.395290 C.3        1 MOL1        -0.1974
       8    H3      20.721546   17.458419   21.785218 H          1 MOL1         0.0689
       9    H4      20.929765   18.440725   20.336003 H          1 MOL1         0.0689
      10    C4      21.623017   19.404897   22.148095 C.3        1 MOL1        -0.2987
      11    H5      21.391242   19.435942   23.221009 H          1 MOL1         0.0700
      12    H6      22.654455   19.046413   22.035314 H          1 MOL1         0.0700
      13    H7      21.575312   20.430278   21.758595 H          1 MOL1         0.0700
@<TRIPOS>BOND
    1     1     2    1
    2     1     3    2
    3     1     4    1
    4     4     5    1
    5     4     6    1
    6     4     7    1
    7     7     8    1
    8     7     9    1
    9     7    10    1
   10    10    11    1
   11    10    12    1
   12    10    13    1
@<TRIPOS>SUBSTRUCTURE
       1 MOL1            1 RESIDUE      1      MOL     
@<SCITEGIC>MOL_PROPERTY
VConf Rank
SciTegic.value.IntegerValue
219

@<SCITEGIC>MOL_PROPERTY
Conf_Id
SciTegic.value.IntegerValue
4

@<SCITEGIC>MOL_PROPERTY
Delta U+W
SciTegic.value.DoubleValue
0.281

@<SCITEGIC>MOL_PROPERTY
U+W
SciTegic.value.DoubleValue
-58.051

@<SCITEGIC>MOL_PROPERTY
Grad RMS
SciTegic.value.DoubleValue
0.000000

@<SCITEGIC>MOL_PROPERTY
U
SciTegic.value.DoubleValue
9.781

@<SCITEGIC>MOL_PROPERTY
W
SciTegic.value.DoubleValue
-67.832

@<SCITEGIC>MOL_PROPERTY
W(PB)
SciTegic.value.DoubleValue
-69.535

@<SCITEGIC>MOL_PROPERTY
W(SA)
SciTegic.value.DoubleValue
1.703

@<SCITEGIC>MOL_PROPERTY
Valence
SciTegic.value.DoubleValue
6.123

@<SCITEGIC>MOL_PROPERTY
Coulomb
SciTegic.value.DoubleValue
3.449

@<SCITEGIC>MOL_PROPERTY
VdW
SciTegic.value.DoubleValue
0.209

@<SCITEGIC>MOL_PROPERTY
VdW6
SciTegic.value.DoubleValue
-3.762

@<SCITEGIC>MOL_PROPERTY
VdW12
SciTegic.value.DoubleValue
3.972

@<SCITEGIC>MOL_PROPERTY
Bond
SciTegic.value.DoubleValue
0.078

@<SCITEGIC>MOL_PROPERTY
Angle
SciTegic.value.DoubleValue
2.428

@<SCITEGIC>MOL_PROPERTY
Pdih
SciTegic.value.DoubleValue
3.616

@<SCITEGIC>MOL_PROPERTY
Idih
SciTegic.value.DoubleValue
0.002

@<SCITEGIC>MOL_PROPERTY
Tether
SciTegic.value.DoubleValue
0.000

@<TRIPOS>MOLECULE
guest-6_confgen4.mol2 : confsearch ligand conformer 220
          13          12           1
SMALL
USER_CHARGES
 
@<TRIPOS>ATOM
       1    C1      18.480901   18.636595   22.647986 C.2        1 MOL1         0.6021
       2    O1      17.807698   19.646287   22.591193 O.co2      1 MOL1        -0.6904
       3    O2      18.038870   17.524425   22.438740 O.co2      1 MOL1        -0.6904
       4    C2      19.951388   18.765740   23.037493 C.3        1 MOL1        -0.2102
       5    H1      20.149898   18.020414   23.816897 H          1 MOL1         0.0687
       6    H2      20.108877   19.750775   23.493771 H          1 MOL1         0.0687
       7    C3      20.939988   18.557839   21.861575 C.3        1 MOL1        -0.1974
       8    H3      21.964649   18.517485   22.255672 H          1 MOL1         0.0689
       9    H4      20.746254   17.586286   21.385684 H          1 MOL1         0.0689
      10    C4      20.849130   19.681298   20.808241 C.3        1 MOL1        -0.2987
      11    H5      21.061508   20.659731   21.258746 H          1 MOL1         0.0700
      12    H6      21.574290   19.514432   20.001151 H          1 MOL1         0.0700
      13    H7      19.847559   19.721869   20.359870 H          1 MOL1         0.0700
@<TRIPOS>BOND
    1     1     2    1
    2     1     3    2
    3     1     4    1
    4     4     5    1
    5     4     6    1
    6     4     7    1
    7     7     8    1
    8     7     9    1
    9     7    10    1
   10    10    11    1
   11    10    12    1
   12    10    13    1
@<TRIPOS>SUBSTRUCTURE
       1 MOL1            1 RESIDUE      1      MOL     
@<SCITEGIC>MOL_PROPERTY
VConf Rank
SciTegic.value.IntegerValue
220

@<SCITEGIC>MOL_PROPERTY
Conf_Id
SciTegic.value.IntegerValue
36

@<SCITEGIC>MOL_PROPERTY
Delta U+W
SciTegic.value.DoubleValue
0.272

@<SCITEGIC>MOL_PROPERTY
U+W
SciTegic.value.DoubleValue
-58.060

@<SCITEGIC>MOL_PROPERTY
Grad RMS
SciTegic.value.DoubleValue
0.000000

@<SCITEGIC>MOL_PROPERTY
U
SciTegic.value.DoubleValue
9.781

@<SCITEGIC>MOL_PROPERTY
W
SciTegic.value.DoubleValue
-67.841

@<SCITEGIC>MOL_PROPERTY
W(PB)
SciTegic.value.DoubleValue
-69.537

@<SCITEGIC>MOL_PROPERTY
W(SA)
SciTegic.value.DoubleValue
1.696

@<SCITEGIC>MOL_PROPERTY
Valence
SciTegic.value.DoubleValue
6.123

@<SCITEGIC>MOL_PROPERTY
Coulomb
SciTegic.value.DoubleValue
3.449

@<SCITEGIC>MOL_PROPERTY
VdW
SciTegic.value.DoubleValue
0.209

@<SCITEGIC>MOL_PROPERTY
VdW6
SciTegic.value.DoubleValue
-3.762

@<SCITEGIC>MOL_PROPERTY
VdW12
SciTegic.value.DoubleValue
3.972

@<SCITEGIC>MOL_PROPERTY
Bond
SciTegic.value.DoubleValue
0.078

@<SCITEGIC>MOL_PROPERTY
Angle
SciTegic.value.DoubleValue
2.428

@<SCITEGIC>MOL_PROPERTY
Pdih
SciTegic.value.DoubleValue
3.616

@<SCITEGIC>MOL_PROPERTY
Idih
SciTegic.value.DoubleValue
0.002

@<SCITEGIC>MOL_PROPERTY
Tether
SciTegic.value.DoubleValue
0.000

@<TRIPOS>MOLECULE
guest-6_confgen4.mol2 : confsearch ligand conformer 221
          13          12           1
SMALL
USER_CHARGES
 
@<TRIPOS>ATOM
       1    C1      18.875542   20.487971   22.830761 C.2        1 MOL1         0.6021
       2    O1      17.813493   19.906043   22.934399 O.co2      1 MOL1        -0.6904
       3    O2      19.056336   21.613788   23.248669 O.co2      1 MOL1        -0.6904
       4    C2      20.057627   19.797711   22.147461 C.3        1 MOL1        -0.2102
       5    H1      20.885529   19.777696   22.866152 H          1 MOL1         0.0687
       6    H2      20.372746   20.436351   21.313689 H          1 MOL1         0.0687
       7    C3      19.780158   18.362021   21.630004 C.3        1 MOL1        -0.1974
       8    H3      19.461723   17.724406   22.466546 H          1 MOL1         0.0689
       9    H4      18.948252   18.383857   20.912223 H          1 MOL1         0.0689
      10    C4      21.025122   17.748238   20.958314 C.3        1 MOL1        -0.2987
      11    H5      21.862884   17.686633   21.665337 H          1 MOL1         0.0700
      12    H6      20.809664   16.733507   20.598933 H          1 MOL1         0.0700
      13    H7      21.345314   18.351421   20.098564 H          1 MOL1         0.0700
@<TRIPOS>BOND
    1     1     2    1
    2     1     3    2
    3     1     4    1
    4     4     5    1
    5     4     6    1
    6     4     7    1
    7     7     8    1
    8     7     9    1
    9     7    10    1
   10    10    11    1
   11    10    12    1
   12    10    13    1
@<TRIPOS>SUBSTRUCTURE
       1 MOL1            1 RESIDUE      1      MOL     
@<SCITEGIC>MOL_PROPERTY
VConf Rank
SciTegic.value.IntegerValue
221

@<SCITEGIC>MOL_PROPERTY
Conf_Id
SciTegic.value.IntegerValue
0

@<SCITEGIC>MOL_PROPERTY
Delta U+W
SciTegic.value.DoubleValue
0.000

@<SCITEGIC>MOL_PROPERTY
U+W
SciTegic.value.DoubleValue
-58.332

@<SCITEGIC>MOL_PROPERTY
Grad RMS
SciTegic.value.DoubleValue
0.000000

@<SCITEGIC>MOL_PROPERTY
U
SciTegic.value.DoubleValue
8.390

@<SCITEGIC>MOL_PROPERTY
W
SciTegic.value.DoubleValue
-66.722

@<SCITEGIC>MOL_PROPERTY
W(PB)
SciTegic.value.DoubleValue
-68.455

@<SCITEGIC>MOL_PROPERTY
W(SA)
SciTegic.value.DoubleValue
1.733

@<SCITEGIC>MOL_PROPERTY
Valence
SciTegic.value.DoubleValue
6.333

@<SCITEGIC>MOL_PROPERTY
Coulomb
SciTegic.value.DoubleValue
1.215

@<SCITEGIC>MOL_PROPERTY
VdW
SciTegic.value.DoubleValue
0.842

@<SCITEGIC>MOL_PROPERTY
VdW6
SciTegic.value.DoubleValue
-3.344

@<SCITEGIC>MOL_PROPERTY
VdW12
SciTegic.value.DoubleValue
4.186

@<SCITEGIC>MOL_PROPERTY
Bond
SciTegic.value.DoubleValue
0.091

@<SCITEGIC>MOL_PROPERTY
Angle
SciTegic.value.DoubleValue
2.713

@<SCITEGIC>MOL_PROPERTY
Pdih
SciTegic.value.DoubleValue
3.529

@<SCITEGIC>MOL_PROPERTY
Idih
SciTegic.value.DoubleValue
0.000

@<SCITEGIC>MOL_PROPERTY
Tether
SciTegic.value.DoubleValue
0.000

@<TRIPOS>MOLECULE
guest-6_confgen4.mol2 : confsearch ligand conformer 222
          13          12           1
SMALL
USER_CHARGES
 
@<TRIPOS>ATOM
       1    C1      18.889537   19.785310   20.190571 C.2        1 MOL1         0.6021
       2    O1      18.401147   18.953032   19.452906 O.co2      1 MOL1        -0.6904
       3    O2      19.152830   20.918775   19.842299 O.co2      1 MOL1        -0.6904
       4    C2      19.206617   19.379719   21.625999 C.3        1 MOL1        -0.2102
       5    H1      18.461296   18.640764   21.944529 H          1 MOL1         0.0687
       6    H2      19.081157   20.261834   22.265648 H          1 MOL1         0.0687
       7    C3      20.633224   18.801849   21.789431 C.3        1 MOL1        -0.1974
       8    H3      20.750495   17.925217   21.137062 H          1 MOL1         0.0689
       9    H4      21.370463   19.546630   21.458366 H          1 MOL1         0.0689
      10    C4      20.922325   18.401837   23.250150 C.3        1 MOL1        -0.2987
      11    H5      21.937393   17.994749   23.345951 H          1 MOL1         0.0700
      12    H6      20.840444   19.269145   23.918452 H          1 MOL1         0.0700
      13    H7      20.215747   17.635274   23.594657 H          1 MOL1         0.0700
@<TRIPOS>BOND
    1     1     2    1
    2     1     3    2
    3     1     4    1
    4     4     5    1
    5     4     6    1
    6     4     7    1
    7     7     8    1
    8     7     9    1
    9     7    10    1
   10    10    11    1
   11    10    12    1
   12    10    13    1
@<TRIPOS>SUBSTRUCTURE
       1 MOL1            1 RESIDUE      1      MOL     
@<SCITEGIC>MOL_PROPERTY
VConf Rank
SciTegic.value.IntegerValue
222

@<SCITEGIC>MOL_PROPERTY
Conf_Id
SciTegic.value.IntegerValue
1

@<SCITEGIC>MOL_PROPERTY
Delta U+W
SciTegic.value.DoubleValue
-1.339

@<SCITEGIC>MOL_PROPERTY
U+W
SciTegic.value.DoubleValue
-59.672

@<SCITEGIC>MOL_PROPERTY
Grad RMS
SciTegic.value.DoubleValue
0.000000

@<SCITEGIC>MOL_PROPERTY
U
SciTegic.value.DoubleValue
7.389

@<SCITEGIC>MOL_PROPERTY
W
SciTegic.value.DoubleValue
-67.061

@<SCITEGIC>MOL_PROPERTY
W(PB)
SciTegic.value.DoubleValue
-68.767

@<SCITEGIC>MOL_PROPERTY
W(SA)
SciTegic.value.DoubleValue
1.707

@<SCITEGIC>MOL_PROPERTY
Valence
SciTegic.value.DoubleValue
5.822

@<SCITEGIC>MOL_PROPERTY
Coulomb
SciTegic.value.DoubleValue
1.255

@<SCITEGIC>MOL_PROPERTY
VdW
SciTegic.value.DoubleValue
0.312

@<SCITEGIC>MOL_PROPERTY
VdW6
SciTegic.value.DoubleValue
-3.061

@<SCITEGIC>MOL_PROPERTY
VdW12
SciTegic.value.DoubleValue
3.372

@<SCITEGIC>MOL_PROPERTY
Bond
SciTegic.value.DoubleValue
0.059

@<SCITEGIC>MOL_PROPERTY
Angle
SciTegic.value.DoubleValue
2.241

@<SCITEGIC>MOL_PROPERTY
Pdih
SciTegic.value.DoubleValue
3.522

@<SCITEGIC>MOL_PROPERTY
Idih
SciTegic.value.DoubleValue
0.000

@<SCITEGIC>MOL_PROPERTY
Tether
SciTegic.value.DoubleValue
0.000

@<TRIPOS>MOLECULE
guest-6_confgen4.mol2 : confsearch ligand conformer 223
          13          12           1
SMALL
USER_CHARGES
 
@<TRIPOS>ATOM
       1    C1      21.083650   19.313887   23.470875 C.2        1 MOL1         0.6021
       2    O1      22.009494   18.559587   23.694354 O.co2      1 MOL1        -0.6904
       3    O2      21.140753   20.514584   23.646860 O.co2      1 MOL1        -0.6904
       4    C2      19.769252   18.714458   22.977144 C.3        1 MOL1        -0.2102
       5    H1      18.968650   19.448450   23.130706 H          1 MOL1         0.0687
       6    H2      19.539441   17.856203   23.619772 H          1 MOL1         0.0687
       7    C3      19.797125   18.256818   21.496223 C.3        1 MOL1        -0.1974
       8    H3      20.628047   17.553696   21.344196 H          1 MOL1         0.0689
       9    H4      18.873071   17.706568   21.272121 H          1 MOL1         0.0689
      10    C4      19.929607   19.439926   20.515084 C.3        1 MOL1        -0.2987
      11    H5      20.866596   19.987771   20.681656 H          1 MOL1         0.0700
      12    H6      19.926361   19.083629   19.476749 H          1 MOL1         0.0700
      13    H7      19.096137   20.144433   20.635036 H          1 MOL1         0.0700
@<TRIPOS>BOND
    1     1     2    1
    2     1     3    2
    3     1     4    1
    4     4     5    1
    5     4     6    1
    6     4     7    1
    7     7     8    1
    8     7     9    1
    9     7    10    1
   10    10    11    1
   11    10    12    1
   12    10    13    1
@<TRIPOS>SUBSTRUCTURE
       1 MOL1            1 RESIDUE      1      MOL     
@<SCITEGIC>MOL_PROPERTY
VConf Rank
SciTegic.value.IntegerValue
223

@<SCITEGIC>MOL_PROPERTY
Conf_Id
SciTegic.value.IntegerValue
4

@<SCITEGIC>MOL_PROPERTY
Delta U+W
SciTegic.value.DoubleValue
0.281

@<SCITEGIC>MOL_PROPERTY
U+W
SciTegic.value.DoubleValue
-58.051

@<SCITEGIC>MOL_PROPERTY
Grad RMS
SciTegic.value.DoubleValue
0.000000

@<SCITEGIC>MOL_PROPERTY
U
SciTegic.value.DoubleValue
9.781

@<SCITEGIC>MOL_PROPERTY
W
SciTegic.value.DoubleValue
-67.832

@<SCITEGIC>MOL_PROPERTY
W(PB)
SciTegic.value.DoubleValue
-69.535

@<SCITEGIC>MOL_PROPERTY
W(SA)
SciTegic.value.DoubleValue
1.703

@<SCITEGIC>MOL_PROPERTY
Valence
SciTegic.value.DoubleValue
6.123

@<SCITEGIC>MOL_PROPERTY
Coulomb
SciTegic.value.DoubleValue
3.449

@<SCITEGIC>MOL_PROPERTY
VdW
SciTegic.value.DoubleValue
0.209

@<SCITEGIC>MOL_PROPERTY
VdW6
SciTegic.value.DoubleValue
-3.762

@<SCITEGIC>MOL_PROPERTY
VdW12
SciTegic.value.DoubleValue
3.972

@<SCITEGIC>MOL_PROPERTY
Bond
SciTegic.value.DoubleValue
0.078

@<SCITEGIC>MOL_PROPERTY
Angle
SciTegic.value.DoubleValue
2.428

@<SCITEGIC>MOL_PROPERTY
Pdih
SciTegic.value.DoubleValue
3.616

@<SCITEGIC>MOL_PROPERTY
Idih
SciTegic.value.DoubleValue
0.002

@<SCITEGIC>MOL_PROPERTY
Tether
SciTegic.value.DoubleValue
0.000

@<TRIPOS>MOLECULE
guest-6_confgen4.mol2 : confsearch ligand conformer 224
          13          12           1
SMALL
USER_CHARGES
 
@<TRIPOS>ATOM
       1    C1      18.676343   19.318269   23.002955 C.2        1 MOL1         0.6021
       2    O1      18.312130   18.302247   23.560588 O.co2      1 MOL1        -0.6904
       3    O2      18.642974   20.416028   23.522482 O.co2      1 MOL1        -0.6904
       4    C2      19.168671   19.218310   21.561308 C.3        1 MOL1        -0.2102
       5    H1      18.659494   20.001320   20.986836 H          1 MOL1         0.0687
       6    H2      18.843029   18.257280   21.144576 H          1 MOL1         0.0687
       7    C3      20.702559   19.376983   21.402096 C.3        1 MOL1        -0.1974
       8    H3      20.948516   19.443368   20.333466 H          1 MOL1         0.0689
       9    H4      21.023778   20.323354   21.859395 H          1 MOL1         0.0689
      10    C4      21.485491   18.203994   22.027428 C.3        1 MOL1        -0.2987
      11    H5      21.195476   17.249675   21.568562 H          1 MOL1         0.0700
      12    H6      22.565137   18.337377   21.880227 H          1 MOL1         0.0700
      13    H7      21.297413   18.134970   23.107099 H          1 MOL1         0.0700
@<TRIPOS>BOND
    1     1     2    1
    2     1     3    2
    3     1     4    1
    4     4     5    1
    5     4     6    1
    6     4     7    1
    7     7     8    1
    8     7     9    1
    9     7    10    1
   10    10    11    1
   11    10    12    1
   12    10    13    1
@<TRIPOS>SUBSTRUCTURE
       1 MOL1            1 RESIDUE      1      MOL     
@<SCITEGIC>MOL_PROPERTY
VConf Rank
SciTegic.value.IntegerValue
224

@<SCITEGIC>MOL_PROPERTY
Conf_Id
SciTegic.value.IntegerValue
36

@<SCITEGIC>MOL_PROPERTY
Delta U+W
SciTegic.value.DoubleValue
0.272

@<SCITEGIC>MOL_PROPERTY
U+W
SciTegic.value.DoubleValue
-58.060

@<SCITEGIC>MOL_PROPERTY
Grad RMS
SciTegic.value.DoubleValue
0.000000

@<SCITEGIC>MOL_PROPERTY
U
SciTegic.value.DoubleValue
9.781

@<SCITEGIC>MOL_PROPERTY
W
SciTegic.value.DoubleValue
-67.841

@<SCITEGIC>MOL_PROPERTY
W(PB)
SciTegic.value.DoubleValue
-69.537

@<SCITEGIC>MOL_PROPERTY
W(SA)
SciTegic.value.DoubleValue
1.696

@<SCITEGIC>MOL_PROPERTY
Valence
SciTegic.value.DoubleValue
6.123

@<SCITEGIC>MOL_PROPERTY
Coulomb
SciTegic.value.DoubleValue
3.449

@<SCITEGIC>MOL_PROPERTY
VdW
SciTegic.value.DoubleValue
0.209

@<SCITEGIC>MOL_PROPERTY
VdW6
SciTegic.value.DoubleValue
-3.762

@<SCITEGIC>MOL_PROPERTY
VdW12
SciTegic.value.DoubleValue
3.972

@<SCITEGIC>MOL_PROPERTY
Bond
SciTegic.value.DoubleValue
0.078

@<SCITEGIC>MOL_PROPERTY
Angle
SciTegic.value.DoubleValue
2.428

@<SCITEGIC>MOL_PROPERTY
Pdih
SciTegic.value.DoubleValue
3.616

@<SCITEGIC>MOL_PROPERTY
Idih
SciTegic.value.DoubleValue
0.002

@<SCITEGIC>MOL_PROPERTY
Tether
SciTegic.value.DoubleValue
0.000

@<TRIPOS>MOLECULE
guest-6_confgen4.mol2 : confsearch ligand conformer 225
          13          12           1
SMALL
USER_CHARGES
 
@<TRIPOS>ATOM
       1    C1      20.842847   17.040236   21.997780 C.2        1 MOL1         0.6021
       2    O1      22.018212   17.281056   21.803221 O.co2      1 MOL1        -0.6904
       3    O2      20.424660   15.921674   22.218537 O.co2      1 MOL1        -0.6904
       4    C2      19.818734   18.176490   21.969472 C.3        1 MOL1        -0.2102
       5    H1      19.303908   18.177854   22.937609 H          1 MOL1         0.0687
       6    H2      19.070129   17.924086   21.209065 H          1 MOL1         0.0687
       7    C3      20.398482   19.586592   21.684053 C.3        1 MOL1        -0.1974
       8    H3      21.150527   19.836384   22.445490 H          1 MOL1         0.0689
       9    H4      20.916531   19.582288   20.714846 H          1 MOL1         0.0689
      10    C4      19.295829   20.664510   21.674871 C.3        1 MOL1        -0.2987
      11    H5      18.782847   20.710113   22.644558 H          1 MOL1         0.0700
      12    H6      19.724738   21.654427   21.471503 H          1 MOL1         0.0700
      13    H7      18.546946   20.453935   20.900045 H          1 MOL1         0.0700
@<TRIPOS>BOND
    1     1     2    1
    2     1     3    2
    3     1     4    1
    4     4     5    1
    5     4     6    1
    6     4     7    1
    7     7     8    1
    8     7     9    1
    9     7    10    1
   10    10    11    1
   11    10    12    1
   12    10    13    1
@<TRIPOS>SUBSTRUCTURE
       1 MOL1            1 RESIDUE      1      MOL     
@<SCITEGIC>MOL_PROPERTY
VConf Rank
SciTegic.value.IntegerValue
225

@<SCITEGIC>MOL_PROPERTY
Conf_Id
SciTegic.value.IntegerValue
0

@<SCITEGIC>MOL_PROPERTY
Delta U+W
SciTegic.value.DoubleValue
0.000

@<SCITEGIC>MOL_PROPERTY
U+W
SciTegic.value.DoubleValue
-58.332

@<SCITEGIC>MOL_PROPERTY
Grad RMS
SciTegic.value.DoubleValue
0.000000

@<SCITEGIC>MOL_PROPERTY
U
SciTegic.value.DoubleValue
8.390

@<SCITEGIC>MOL_PROPERTY
W
SciTegic.value.DoubleValue
-66.722

@<SCITEGIC>MOL_PROPERTY
W(PB)
SciTegic.value.DoubleValue
-68.455

@<SCITEGIC>MOL_PROPERTY
W(SA)
SciTegic.value.DoubleValue
1.733

@<SCITEGIC>MOL_PROPERTY
Valence
SciTegic.value.DoubleValue
6.333

@<SCITEGIC>MOL_PROPERTY
Coulomb
SciTegic.value.DoubleValue
1.215

@<SCITEGIC>MOL_PROPERTY
VdW
SciTegic.value.DoubleValue
0.842

@<SCITEGIC>MOL_PROPERTY
VdW6
SciTegic.value.DoubleValue
-3.344

@<SCITEGIC>MOL_PROPERTY
VdW12
SciTegic.value.DoubleValue
4.186

@<SCITEGIC>MOL_PROPERTY
Bond
SciTegic.value.DoubleValue
0.091

@<SCITEGIC>MOL_PROPERTY
Angle
SciTegic.value.DoubleValue
2.713

@<SCITEGIC>MOL_PROPERTY
Pdih
SciTegic.value.DoubleValue
3.529

@<SCITEGIC>MOL_PROPERTY
Idih
SciTegic.value.DoubleValue
0.000

@<SCITEGIC>MOL_PROPERTY
Tether
SciTegic.value.DoubleValue
0.000

@<TRIPOS>MOLECULE
guest-6_confgen4.mol2 : confsearch ligand conformer 226
          13          12           1
SMALL
USER_CHARGES
 
@<TRIPOS>ATOM
       1    C1      21.992888   18.506711   21.428891 C.2        1 MOL1         0.6021
       2    O1      22.269933   17.331649   21.562450 O.co2      1 MOL1        -0.6904
       3    O2      22.809814   19.402027   21.508896 O.co2      1 MOL1        -0.6904
       4    C2      20.537840   18.879317   21.165265 C.3        1 MOL1        -0.2102
       5    H1      20.078850   18.071622   20.582190 H          1 MOL1         0.0687
       6    H2      20.524072   19.778971   20.538007 H          1 MOL1         0.0687
       7    C3      19.731783   19.123127   22.463986 C.3        1 MOL1        -0.1974
       8    H3      19.760832   18.219258   23.088485 H          1 MOL1         0.0689
       9    H4      20.206059   19.927002   23.044219 H          1 MOL1         0.0689
      10    C4      18.266498   19.497349   22.163670 C.3        1 MOL1        -0.2987
      11    H5      17.711660   19.666183   23.095824 H          1 MOL1         0.0700
      12    H6      18.210542   20.415889   21.564746 H          1 MOL1         0.0700
      13    H7      17.761902   18.695031   21.609392 H          1 MOL1         0.0700
@<TRIPOS>BOND
    1     1     2    1
    2     1     3    2
    3     1     4    1
    4     4     5    1
    5     4     6    1
    6     4     7    1
    7     7     8    1
    8     7     9    1
    9     7    10    1
   10    10    11    1
   11    10    12    1
   12    10    13    1
@<TRIPOS>SUBSTRUCTURE
       1 MOL1            1 RESIDUE      1      MOL     
@<SCITEGIC>MOL_PROPERTY
VConf Rank
SciTegic.value.IntegerValue
226

@<SCITEGIC>MOL_PROPERTY
Conf_Id
SciTegic.value.IntegerValue
1

@<SCITEGIC>MOL_PROPERTY
Delta U+W
SciTegic.value.DoubleValue
-1.339

@<SCITEGIC>MOL_PROPERTY
U+W
SciTegic.value.DoubleValue
-59.672

@<SCITEGIC>MOL_PROPERTY
Grad RMS
SciTegic.value.DoubleValue
0.000000

@<SCITEGIC>MOL_PROPERTY
U
SciTegic.value.DoubleValue
7.389

@<SCITEGIC>MOL_PROPERTY
W
SciTegic.value.DoubleValue
-67.061

@<SCITEGIC>MOL_PROPERTY
W(PB)
SciTegic.value.DoubleValue
-68.767

@<SCITEGIC>MOL_PROPERTY
W(SA)
SciTegic.value.DoubleValue
1.707

@<SCITEGIC>MOL_PROPERTY
Valence
SciTegic.value.DoubleValue
5.822

@<SCITEGIC>MOL_PROPERTY
Coulomb
SciTegic.value.DoubleValue
1.255

@<SCITEGIC>MOL_PROPERTY
VdW
SciTegic.value.DoubleValue
0.312

@<SCITEGIC>MOL_PROPERTY
VdW6
SciTegic.value.DoubleValue
-3.061

@<SCITEGIC>MOL_PROPERTY
VdW12
SciTegic.value.DoubleValue
3.372

@<SCITEGIC>MOL_PROPERTY
Bond
SciTegic.value.DoubleValue
0.059

@<SCITEGIC>MOL_PROPERTY
Angle
SciTegic.value.DoubleValue
2.241

@<SCITEGIC>MOL_PROPERTY
Pdih
SciTegic.value.DoubleValue
3.522

@<SCITEGIC>MOL_PROPERTY
Idih
SciTegic.value.DoubleValue
0.000

@<SCITEGIC>MOL_PROPERTY
Tether
SciTegic.value.DoubleValue
0.000

@<TRIPOS>MOLECULE
guest-6_confgen4.mol2 : confsearch ligand conformer 227
          13          12           1
SMALL
USER_CHARGES
 
@<TRIPOS>ATOM
       1    C1      19.862480   18.080813   23.531631 C.2        1 MOL1         0.6021
       2    O1      20.862103   17.679127   24.093326 O.co2      1 MOL1        -0.6904
       3    O2      18.909679   18.554580   24.117822 O.co2      1 MOL1        -0.6904
       4    C2      19.787743   17.949151   22.012485 C.3        1 MOL1        -0.2102
       5    H1      18.740043   18.046488   21.702423 H          1 MOL1         0.0687
       6    H2      20.100150   16.929624   21.756844 H          1 MOL1         0.0687
       7    C3      20.668903   18.966543   21.243192 C.3        1 MOL1        -0.1974
       8    H3      21.708659   18.889204   21.590825 H          1 MOL1         0.0689
       9    H4      20.672588   18.704965   20.176216 H          1 MOL1         0.0689
      10    C4      20.172248   20.418188   21.404398 C.3        1 MOL1        -0.2987
      11    H5      20.197358   20.729294   22.457209 H          1 MOL1         0.0700
      12    H6      20.805025   21.109298   20.832509 H          1 MOL1         0.0700
      13    H7      19.141203   20.522733   21.041896 H          1 MOL1         0.0700
@<TRIPOS>BOND
    1     1     2    1
    2     1     3    2
    3     1     4    1
    4     4     5    1
    5     4     6    1
    6     4     7    1
    7     7     8    1
    8     7     9    1
    9     7    10    1
   10    10    11    1
   11    10    12    1
   12    10    13    1
@<TRIPOS>SUBSTRUCTURE
       1 MOL1            1 RESIDUE      1      MOL     
@<SCITEGIC>MOL_PROPERTY
VConf Rank
SciTegic.value.IntegerValue
227

@<SCITEGIC>MOL_PROPERTY
Conf_Id
SciTegic.value.IntegerValue
4

@<SCITEGIC>MOL_PROPERTY
Delta U+W
SciTegic.value.DoubleValue
0.281

@<SCITEGIC>MOL_PROPERTY
U+W
SciTegic.value.DoubleValue
-58.051

@<SCITEGIC>MOL_PROPERTY
Grad RMS
SciTegic.value.DoubleValue
0.000000

@<SCITEGIC>MOL_PROPERTY
U
SciTegic.value.DoubleValue
9.781

@<SCITEGIC>MOL_PROPERTY
W
SciTegic.value.DoubleValue
-67.832

@<SCITEGIC>MOL_PROPERTY
W(PB)
SciTegic.value.DoubleValue
-69.535

@<SCITEGIC>MOL_PROPERTY
W(SA)
SciTegic.value.DoubleValue
1.703

@<SCITEGIC>MOL_PROPERTY
Valence
SciTegic.value.DoubleValue
6.123

@<SCITEGIC>MOL_PROPERTY
Coulomb
SciTegic.value.DoubleValue
3.449

@<SCITEGIC>MOL_PROPERTY
VdW
SciTegic.value.DoubleValue
0.209

@<SCITEGIC>MOL_PROPERTY
VdW6
SciTegic.value.DoubleValue
-3.762

@<SCITEGIC>MOL_PROPERTY
VdW12
SciTegic.value.DoubleValue
3.972

@<SCITEGIC>MOL_PROPERTY
Bond
SciTegic.value.DoubleValue
0.078

@<SCITEGIC>MOL_PROPERTY
Angle
SciTegic.value.DoubleValue
2.428

@<SCITEGIC>MOL_PROPERTY
Pdih
SciTegic.value.DoubleValue
3.616

@<SCITEGIC>MOL_PROPERTY
Idih
SciTegic.value.DoubleValue
0.002

@<SCITEGIC>MOL_PROPERTY
Tether
SciTegic.value.DoubleValue
0.000

@<TRIPOS>MOLECULE
guest-6_confgen4.mol2 : confsearch ligand conformer 228
          13          12           1
SMALL
USER_CHARGES
 
@<TRIPOS>ATOM
       1    C1      19.749231   18.072791   23.504755 C.2        1 MOL1         0.6021
       2    O1      19.527961   18.860799   24.402524 O.co2      1 MOL1        -0.6904
       3    O2      19.148686   17.025269   23.370071 O.co2      1 MOL1        -0.6904
       4    C2      20.864113   18.396535   22.513316 C.3        1 MOL1        -0.2102
       5    H1      21.487536   17.499525   22.417906 H          1 MOL1         0.0687
       6    H2      21.500176   19.180026   22.943260 H          1 MOL1         0.0687
       7    C3      20.361442   18.826527   21.111258 C.3        1 MOL1        -0.1974
       8    H3      21.217857   18.891873   20.426308 H          1 MOL1         0.0689
       9    H4      19.692466   18.053643   20.707473 H          1 MOL1         0.0689
      10    C4      19.631851   20.185559   21.136844 C.3        1 MOL1        -0.2987
      11    H5      20.290564   20.977500   21.516736 H          1 MOL1         0.0700
      12    H6      19.306924   20.469251   20.127370 H          1 MOL1         0.0700
      13    H7      18.742204   20.143876   21.779197 H          1 MOL1         0.0700
@<TRIPOS>BOND
    1     1     2    1
    2     1     3    2
    3     1     4    1
    4     4     5    1
    5     4     6    1
    6     4     7    1
    7     7     8    1
    8     7     9    1
    9     7    10    1
   10    10    11    1
   11    10    12    1
   12    10    13    1
@<TRIPOS>SUBSTRUCTURE
       1 MOL1            1 RESIDUE      1      MOL     
@<SCITEGIC>MOL_PROPERTY
VConf Rank
SciTegic.value.IntegerValue
228

@<SCITEGIC>MOL_PROPERTY
Conf_Id
SciTegic.value.IntegerValue
36

@<SCITEGIC>MOL_PROPERTY
Delta U+W
SciTegic.value.DoubleValue
0.272

@<SCITEGIC>MOL_PROPERTY
U+W
SciTegic.value.DoubleValue
-58.060

@<SCITEGIC>MOL_PROPERTY
Grad RMS
SciTegic.value.DoubleValue
0.000000

@<SCITEGIC>MOL_PROPERTY
U
SciTegic.value.DoubleValue
9.781

@<SCITEGIC>MOL_PROPERTY
W
SciTegic.value.DoubleValue
-67.841

@<SCITEGIC>MOL_PROPERTY
W(PB)
SciTegic.value.DoubleValue
-69.537

@<SCITEGIC>MOL_PROPERTY
W(SA)
SciTegic.value.DoubleValue
1.696

@<SCITEGIC>MOL_PROPERTY
Valence
SciTegic.value.DoubleValue
6.123

@<SCITEGIC>MOL_PROPERTY
Coulomb
SciTegic.value.DoubleValue
3.449

@<SCITEGIC>MOL_PROPERTY
VdW
SciTegic.value.DoubleValue
0.209

@<SCITEGIC>MOL_PROPERTY
VdW6
SciTegic.value.DoubleValue
-3.762

@<SCITEGIC>MOL_PROPERTY
VdW12
SciTegic.value.DoubleValue
3.972

@<SCITEGIC>MOL_PROPERTY
Bond
SciTegic.value.DoubleValue
0.078

@<SCITEGIC>MOL_PROPERTY
Angle
SciTegic.value.DoubleValue
2.428

@<SCITEGIC>MOL_PROPERTY
Pdih
SciTegic.value.DoubleValue
3.616

@<SCITEGIC>MOL_PROPERTY
Idih
SciTegic.value.DoubleValue
0.002

@<SCITEGIC>MOL_PROPERTY
Tether
SciTegic.value.DoubleValue
0.000

@<TRIPOS>MOLECULE
guest-6_confgen4.mol2 : confsearch ligand conformer 229
          13          12           1
SMALL
USER_CHARGES
 
@<TRIPOS>ATOM
       1    C1      18.423707   20.086168   22.722438 C.2        1 MOL1         0.6021
       2    O1      17.866815   20.512023   21.729539 O.co2      1 MOL1        -0.6904
       3    O2      18.034651   20.317315   23.849382 O.co2      1 MOL1        -0.6904
       4    C2      19.674382   19.216695   22.579227 C.3        1 MOL1        -0.2102
       5    H1      19.471114   18.264567   23.083680 H          1 MOL1         0.0687
       6    H2      20.480863   19.708370   23.136166 H          1 MOL1         0.0687
       7    C3      20.133813   18.948341   21.122221 C.3        1 MOL1        -0.1974
       8    H3      19.323188   18.458241   20.565047 H          1 MOL1         0.0689
       9    H4      20.334109   19.903830   20.617566 H          1 MOL1         0.0689
      10    C4      21.397726   18.066121   21.076988 C.3        1 MOL1        -0.2987
      11    H5      21.213834   17.091713   21.548408 H          1 MOL1         0.0700
      12    H6      21.707336   17.887359   20.038988 H          1 MOL1         0.0700
      13    H7      22.232854   18.548900   21.601401 H          1 MOL1         0.0700
@<TRIPOS>BOND
    1     1     2    1
    2     1     3    2
    3     1     4    1
    4     4     5    1
    5     4     6    1
    6     4     7    1
    7     7     8    1
    8     7     9    1
    9     7    10    1
   10    10    11    1
   11    10    12    1
   12    10    13    1
@<TRIPOS>SUBSTRUCTURE
       1 MOL1            1 RESIDUE      1      MOL     
@<SCITEGIC>MOL_PROPERTY
VConf Rank
SciTegic.value.IntegerValue
229

@<SCITEGIC>MOL_PROPERTY
Conf_Id
SciTegic.value.IntegerValue
0

@<SCITEGIC>MOL_PROPERTY
Delta U+W
SciTegic.value.DoubleValue
0.000

@<SCITEGIC>MOL_PROPERTY
U+W
SciTegic.value.DoubleValue
-58.332

@<SCITEGIC>MOL_PROPERTY
Grad RMS
SciTegic.value.DoubleValue
0.000000

@<SCITEGIC>MOL_PROPERTY
U
SciTegic.value.DoubleValue
8.390

@<SCITEGIC>MOL_PROPERTY
W
SciTegic.value.DoubleValue
-66.722

@<SCITEGIC>MOL_PROPERTY
W(PB)
SciTegic.value.DoubleValue
-68.455

@<SCITEGIC>MOL_PROPERTY
W(SA)
SciTegic.value.DoubleValue
1.733

@<SCITEGIC>MOL_PROPERTY
Valence
SciTegic.value.DoubleValue
6.333

@<SCITEGIC>MOL_PROPERTY
Coulomb
SciTegic.value.DoubleValue
1.215

@<SCITEGIC>MOL_PROPERTY
VdW
SciTegic.value.DoubleValue
0.842

@<SCITEGIC>MOL_PROPERTY
VdW6
SciTegic.value.DoubleValue
-3.344

@<SCITEGIC>MOL_PROPERTY
VdW12
SciTegic.value.DoubleValue
4.186

@<SCITEGIC>MOL_PROPERTY
Bond
SciTegic.value.DoubleValue
0.091

@<SCITEGIC>MOL_PROPERTY
Angle
SciTegic.value.DoubleValue
2.713

@<SCITEGIC>MOL_PROPERTY
Pdih
SciTegic.value.DoubleValue
3.529

@<SCITEGIC>MOL_PROPERTY
Idih
SciTegic.value.DoubleValue
0.000

@<SCITEGIC>MOL_PROPERTY
Tether
SciTegic.value.DoubleValue
0.000

@<TRIPOS>MOLECULE
guest-6_confgen4.mol2 : confsearch ligand conformer 230
          13          12           1
SMALL
USER_CHARGES
 
@<TRIPOS>ATOM
       1    C1      20.005592   19.823498   23.792970 C.2        1 MOL1         0.6021
       2    O1      20.157282   19.017427   24.688850 O.co2      1 MOL1        -0.6904
       3    O2      19.459992   20.898333   23.942672 O.co2      1 MOL1        -0.6904
       4    C2      20.510544   19.458521   22.401096 C.3        1 MOL1        -0.2102
       5    H1      21.402292   18.830225   22.515323 H          1 MOL1         0.0687
       6    H2      20.827285   20.381335   21.899989 H          1 MOL1         0.0687
       7    C3      19.448602   18.725669   21.546078 C.3        1 MOL1        -0.1974
       8    H3      19.131738   17.808598   22.062215 H          1 MOL1         0.0689
       9    H4      18.556689   19.360044   21.446662 H          1 MOL1         0.0689
      10    C4      19.989487   18.370841   20.146496 C.3        1 MOL1        -0.2987
      11    H5      19.223036   17.852379   19.555724 H          1 MOL1         0.0700
      12    H6      20.285355   19.275320   19.598832 H          1 MOL1         0.0700
      13    H7      20.864782   17.711946   20.219116 H          1 MOL1         0.0700
@<TRIPOS>BOND
    1     1     2    1
    2     1     3    2
    3     1     4    1
    4     4     5    1
    5     4     6    1
    6     4     7    1
    7     7     8    1
    8     7     9    1
    9     7    10    1
   10    10    11    1
   11    10    12    1
   12    10    13    1
@<TRIPOS>SUBSTRUCTURE
       1 MOL1            1 RESIDUE      1      MOL     
@<SCITEGIC>MOL_PROPERTY
VConf Rank
SciTegic.value.IntegerValue
230

@<SCITEGIC>MOL_PROPERTY
Conf_Id
SciTegic.value.IntegerValue
1

@<SCITEGIC>MOL_PROPERTY
Delta U+W
SciTegic.value.DoubleValue
-1.339

@<SCITEGIC>MOL_PROPERTY
U+W
SciTegic.value.DoubleValue
-59.672

@<SCITEGIC>MOL_PROPERTY
Grad RMS
SciTegic.value.DoubleValue
0.000000

@<SCITEGIC>MOL_PROPERTY
U
SciTegic.value.DoubleValue
7.389

@<SCITEGIC>MOL_PROPERTY
W
SciTegic.value.DoubleValue
-67.061

@<SCITEGIC>MOL_PROPERTY
W(PB)
SciTegic.value.DoubleValue
-68.767

@<SCITEGIC>MOL_PROPERTY
W(SA)
SciTegic.value.DoubleValue
1.707

@<SCITEGIC>MOL_PROPERTY
Valence
SciTegic.value.DoubleValue
5.822

@<SCITEGIC>MOL_PROPERTY
Coulomb
SciTegic.value.DoubleValue
1.255

@<SCITEGIC>MOL_PROPERTY
VdW
SciTegic.value.DoubleValue
0.312

@<SCITEGIC>MOL_PROPERTY
VdW6
SciTegic.value.DoubleValue
-3.061

@<SCITEGIC>MOL_PROPERTY
VdW12
SciTegic.value.DoubleValue
3.372

@<SCITEGIC>MOL_PROPERTY
Bond
SciTegic.value.DoubleValue
0.059

@<SCITEGIC>MOL_PROPERTY
Angle
SciTegic.value.DoubleValue
2.241

@<SCITEGIC>MOL_PROPERTY
Pdih
SciTegic.value.DoubleValue
3.522

@<SCITEGIC>MOL_PROPERTY
Idih
SciTegic.value.DoubleValue
0.000

@<SCITEGIC>MOL_PROPERTY
Tether
SciTegic.value.DoubleValue
0.000

@<TRIPOS>MOLECULE
guest-6_confgen4.mol2 : confsearch ligand conformer 231
          13          12           1
SMALL
USER_CHARGES
 
@<TRIPOS>ATOM
       1    C1      21.275894   20.271541   22.429113 C.2        1 MOL1         0.6021
       2    O1      22.315955   20.294573   21.801545 O.co2      1 MOL1        -0.6904
       3    O2      20.660142   21.271101   22.741574 O.co2      1 MOL1        -0.6904
       4    C2      20.735474   18.916182   22.878199 C.3        1 MOL1        -0.2102
       5    H1      20.002709   19.077638   23.678370 H          1 MOL1         0.0687
       6    H2      21.571117   18.361481   23.321363 H          1 MOL1         0.0687
       7    C3      20.105018   18.075151   21.738667 C.3        1 MOL1        -0.1974
       8    H3      20.833378   17.954436   20.924516 H          1 MOL1         0.0689
       9    H4      19.883105   17.067403   22.115591 H          1 MOL1         0.0689
      10    C4      18.808258   18.704268   21.188617 C.3        1 MOL1        -0.2987
      11    H5      19.001507   19.697559   20.762173 H          1 MOL1         0.0700
      12    H6      18.377917   18.075129   20.398625 H          1 MOL1         0.0700
      13    H7      18.057709   18.813546   21.982422 H          1 MOL1         0.0700
@<TRIPOS>BOND
    1     1     2    1
    2     1     3    2
    3     1     4    1
    4     4     5    1
    5     4     6    1
    6     4     7    1
    7     7     8    1
    8     7     9    1
    9     7    10    1
   10    10    11    1
   11    10    12    1
   12    10    13    1
@<TRIPOS>SUBSTRUCTURE
       1 MOL1            1 RESIDUE      1      MOL     
@<SCITEGIC>MOL_PROPERTY
VConf Rank
SciTegic.value.IntegerValue
231

@<SCITEGIC>MOL_PROPERTY
Conf_Id
SciTegic.value.IntegerValue
4

@<SCITEGIC>MOL_PROPERTY
Delta U+W
SciTegic.value.DoubleValue
0.281

@<SCITEGIC>MOL_PROPERTY
U+W
SciTegic.value.DoubleValue
-58.051

@<SCITEGIC>MOL_PROPERTY
Grad RMS
SciTegic.value.DoubleValue
0.000000

@<SCITEGIC>MOL_PROPERTY
U
SciTegic.value.DoubleValue
9.781

@<SCITEGIC>MOL_PROPERTY
W
SciTegic.value.DoubleValue
-67.832

@<SCITEGIC>MOL_PROPERTY
W(PB)
SciTegic.value.DoubleValue
-69.535

@<SCITEGIC>MOL_PROPERTY
W(SA)
SciTegic.value.DoubleValue
1.703

@<SCITEGIC>MOL_PROPERTY
Valence
SciTegic.value.DoubleValue
6.123

@<SCITEGIC>MOL_PROPERTY
Coulomb
SciTegic.value.DoubleValue
3.449

@<SCITEGIC>MOL_PROPERTY
VdW
SciTegic.value.DoubleValue
0.209

@<SCITEGIC>MOL_PROPERTY
VdW6
SciTegic.value.DoubleValue
-3.762

@<SCITEGIC>MOL_PROPERTY
VdW12
SciTegic.value.DoubleValue
3.972

@<SCITEGIC>MOL_PROPERTY
Bond
SciTegic.value.DoubleValue
0.078

@<SCITEGIC>MOL_PROPERTY
Angle
SciTegic.value.DoubleValue
2.428

@<SCITEGIC>MOL_PROPERTY
Pdih
SciTegic.value.DoubleValue
3.616

@<SCITEGIC>MOL_PROPERTY
Idih
SciTegic.value.DoubleValue
0.002

@<SCITEGIC>MOL_PROPERTY
Tether
SciTegic.value.DoubleValue
0.000

@<TRIPOS>MOLECULE
guest-6_confgen4.mol2 : confsearch ligand conformer 232
          13          12           1
SMALL
USER_CHARGES
 
@<TRIPOS>ATOM
       1    C1      20.830222   19.606975   23.511202 C.2        1 MOL1         0.6021
       2    O1      20.035144   20.347072   24.055273 O.co2      1 MOL1        -0.6904
       3    O2      21.562906   18.850013   24.116413 O.co2      1 MOL1        -0.6904
       4    C2      20.941830   19.654361   21.989354 C.3        1 MOL1        -0.2102
       5    H1      22.007727   19.724330   21.741657 H          1 MOL1         0.0687
       6    H2      20.472099   20.578656   21.631139 H          1 MOL1         0.0687
       7    C3      20.324633   18.428024   21.269282 C.3        1 MOL1        -0.1974
       8    H3      20.581003   18.470771   20.201893 H          1 MOL1         0.0689
       9    H4      20.772404   17.505551   21.664841 H          1 MOL1         0.0689
      10    C4      18.790214   18.367266   21.416909 C.3        1 MOL1        -0.2987
      11    H5      18.320450   19.270998   21.007052 H          1 MOL1         0.0700
      12    H6      18.383980   17.500105   20.880159 H          1 MOL1         0.0700
      13    H7      18.498398   18.279053   22.471843 H          1 MOL1         0.0700
@<TRIPOS>BOND
    1     1     2    1
    2     1     3    2
    3     1     4    1
    4     4     5    1
    5     4     6    1
    6     4     7    1
    7     7     8    1
    8     7     9    1
    9     7    10    1
   10    10    11    1
   11    10    12    1
   12    10    13    1
@<TRIPOS>SUBSTRUCTURE
       1 MOL1            1 RESIDUE      1      MOL     
@<SCITEGIC>MOL_PROPERTY
VConf Rank
SciTegic.value.IntegerValue
232

@<SCITEGIC>MOL_PROPERTY
Conf_Id
SciTegic.value.IntegerValue
36

@<SCITEGIC>MOL_PROPERTY
Delta U+W
SciTegic.value.DoubleValue
0.272

@<SCITEGIC>MOL_PROPERTY
U+W
SciTegic.value.DoubleValue
-58.060

@<SCITEGIC>MOL_PROPERTY
Grad RMS
SciTegic.value.DoubleValue
0.000000

@<SCITEGIC>MOL_PROPERTY
U
SciTegic.value.DoubleValue
9.781

@<SCITEGIC>MOL_PROPERTY
W
SciTegic.value.DoubleValue
-67.841

@<SCITEGIC>MOL_PROPERTY
W(PB)
SciTegic.value.DoubleValue
-69.537

@<SCITEGIC>MOL_PROPERTY
W(SA)
SciTegic.value.DoubleValue
1.696

@<SCITEGIC>MOL_PROPERTY
Valence
SciTegic.value.DoubleValue
6.123

@<SCITEGIC>MOL_PROPERTY
Coulomb
SciTegic.value.DoubleValue
3.449

@<SCITEGIC>MOL_PROPERTY
VdW
SciTegic.value.DoubleValue
0.209

@<SCITEGIC>MOL_PROPERTY
VdW6
SciTegic.value.DoubleValue
-3.762

@<SCITEGIC>MOL_PROPERTY
VdW12
SciTegic.value.DoubleValue
3.972

@<SCITEGIC>MOL_PROPERTY
Bond
SciTegic.value.DoubleValue
0.078

@<SCITEGIC>MOL_PROPERTY
Angle
SciTegic.value.DoubleValue
2.428

@<SCITEGIC>MOL_PROPERTY
Pdih
SciTegic.value.DoubleValue
3.616

@<SCITEGIC>MOL_PROPERTY
Idih
SciTegic.value.DoubleValue
0.002

@<SCITEGIC>MOL_PROPERTY
Tether
SciTegic.value.DoubleValue
0.000

@<TRIPOS>MOLECULE
guest-6_confgen4.mol2 : confsearch ligand conformer 233
          13          12           1
SMALL
USER_CHARGES
 
@<TRIPOS>ATOM
       1    C1      17.891875   18.915507   21.807764 C.2        1 MOL1         0.6021
       2    O1      17.673136   18.833260   23.000541 O.co2      1 MOL1        -0.6904
       3    O2      17.009841   18.931061   20.973156 O.co2      1 MOL1        -0.6904
       4    C2      19.333430   19.004696   21.303138 C.3        1 MOL1        -0.2102
       5    H1      19.419139   19.927779   20.717553 H          1 MOL1         0.0687
       6    H2      19.490151   18.169870   20.609710 H          1 MOL1         0.0687
       7    C3      20.425565   18.981263   22.404343 C.3        1 MOL1        -0.1974
       8    H3      20.264986   19.816901   23.099812 H          1 MOL1         0.0689
       9    H4      20.336039   18.056858   22.991892 H          1 MOL1         0.0689
      10    C4      21.842487   19.075316   21.803244 C.3        1 MOL1        -0.2987
      11    H5      21.967605   20.007022   21.235978 H          1 MOL1         0.0700
      12    H6      22.600938   19.057244   22.596770 H          1 MOL1         0.0700
      13    H7      22.039198   18.232866   21.127148 H          1 MOL1         0.0700
@<TRIPOS>BOND
    1     1     2    1
    2     1     3    2
    3     1     4    1
    4     4     5    1
    5     4     6    1
    6     4     7    1
    7     7     8    1
    8     7     9    1
    9     7    10    1
   10    10    11    1
   11    10    12    1
   12    10    13    1
@<TRIPOS>SUBSTRUCTURE
       1 MOL1            1 RESIDUE      1      MOL     
@<SCITEGIC>MOL_PROPERTY
VConf Rank
SciTegic.value.IntegerValue
233

@<SCITEGIC>MOL_PROPERTY
Conf_Id
SciTegic.value.IntegerValue
0

@<SCITEGIC>MOL_PROPERTY
Delta U+W
SciTegic.value.DoubleValue
0.000

@<SCITEGIC>MOL_PROPERTY
U+W
SciTegic.value.DoubleValue
-58.332

@<SCITEGIC>MOL_PROPERTY
Grad RMS
SciTegic.value.DoubleValue
0.000000

@<SCITEGIC>MOL_PROPERTY
U
SciTegic.value.DoubleValue
8.390

@<SCITEGIC>MOL_PROPERTY
W
SciTegic.value.DoubleValue
-66.722

@<SCITEGIC>MOL_PROPERTY
W(PB)
SciTegic.value.DoubleValue
-68.455

@<SCITEGIC>MOL_PROPERTY
W(SA)
SciTegic.value.DoubleValue
1.733

@<SCITEGIC>MOL_PROPERTY
Valence
SciTegic.value.DoubleValue
6.333

@<SCITEGIC>MOL_PROPERTY
Coulomb
SciTegic.value.DoubleValue
1.215

@<SCITEGIC>MOL_PROPERTY
VdW
SciTegic.value.DoubleValue
0.842

@<SCITEGIC>MOL_PROPERTY
VdW6
SciTegic.value.DoubleValue
-3.344

@<SCITEGIC>MOL_PROPERTY
VdW12
SciTegic.value.DoubleValue
4.186

@<SCITEGIC>MOL_PROPERTY
Bond
SciTegic.value.DoubleValue
0.091

@<SCITEGIC>MOL_PROPERTY
Angle
SciTegic.value.DoubleValue
2.713

@<SCITEGIC>MOL_PROPERTY
Pdih
SciTegic.value.DoubleValue
3.529

@<SCITEGIC>MOL_PROPERTY
Idih
SciTegic.value.DoubleValue
0.000

@<SCITEGIC>MOL_PROPERTY
Tether
SciTegic.value.DoubleValue
0.000

@<TRIPOS>MOLECULE
guest-6_confgen4.mol2 : confsearch ligand conformer 234
          13          12           1
SMALL
USER_CHARGES
 
@<TRIPOS>ATOM
       1    C1      20.748815   17.076613   21.657477 C.2        1 MOL1         0.6021
       2    O1      21.951720   16.979927   21.519520 O.co2      1 MOL1        -0.6904
       3    O2      19.960627   16.230406   21.285921 O.co2      1 MOL1        -0.6904
       4    C2      20.197219   18.336791   22.315650 C.3        1 MOL1        -0.2102
       5    H1      20.928529   18.683356   23.055986 H          1 MOL1         0.0687
       6    H2      19.286563   18.065247   22.863363 H          1 MOL1         0.0687
       7    C3      19.891802   19.464493   21.300339 C.3        1 MOL1        -0.1974
       8    H3      20.808408   19.721174   20.751002 H          1 MOL1         0.0689
       9    H4      19.166048   19.102994   20.558434 H          1 MOL1         0.0689
      10    C4      19.336425   20.723189   21.996421 C.3        1 MOL1        -0.2987
      11    H5      19.126178   21.510782   21.261061 H          1 MOL1         0.0700
      12    H6      18.402683   20.498116   22.528421 H          1 MOL1         0.0700
      13    H7      20.057657   21.121049   22.722429 H          1 MOL1         0.0700
@<TRIPOS>BOND
    1     1     2    1
    2     1     3    2
    3     1     4    1
    4     4     5    1
    5     4     6    1
    6     4     7    1
    7     7     8    1
    8     7     9    1
    9     7    10    1
   10    10    11    1
   11    10    12    1
   12    10    13    1
@<TRIPOS>SUBSTRUCTURE
       1 MOL1            1 RESIDUE      1      MOL     
@<SCITEGIC>MOL_PROPERTY
VConf Rank
SciTegic.value.IntegerValue
234

@<SCITEGIC>MOL_PROPERTY
Conf_Id
SciTegic.value.IntegerValue
1

@<SCITEGIC>MOL_PROPERTY
Delta U+W
SciTegic.value.DoubleValue
-1.339

@<SCITEGIC>MOL_PROPERTY
U+W
SciTegic.value.DoubleValue
-59.672

@<SCITEGIC>MOL_PROPERTY
Grad RMS
SciTegic.value.DoubleValue
0.000000

@<SCITEGIC>MOL_PROPERTY
U
SciTegic.value.DoubleValue
7.389

@<SCITEGIC>MOL_PROPERTY
W
SciTegic.value.DoubleValue
-67.061

@<SCITEGIC>MOL_PROPERTY
W(PB)
SciTegic.value.DoubleValue
-68.767

@<SCITEGIC>MOL_PROPERTY
W(SA)
SciTegic.value.DoubleValue
1.707

@<SCITEGIC>MOL_PROPERTY
Valence
SciTegic.value.DoubleValue
5.822

@<SCITEGIC>MOL_PROPERTY
Coulomb
SciTegic.value.DoubleValue
1.255

@<SCITEGIC>MOL_PROPERTY
VdW
SciTegic.value.DoubleValue
0.312

@<SCITEGIC>MOL_PROPERTY
VdW6
SciTegic.value.DoubleValue
-3.061

@<SCITEGIC>MOL_PROPERTY
VdW12
SciTegic.value.DoubleValue
3.372

@<SCITEGIC>MOL_PROPERTY
Bond
SciTegic.value.DoubleValue
0.059

@<SCITEGIC>MOL_PROPERTY
Angle
SciTegic.value.DoubleValue
2.241

@<SCITEGIC>MOL_PROPERTY
Pdih
SciTegic.value.DoubleValue
3.522

@<SCITEGIC>MOL_PROPERTY
Idih
SciTegic.value.DoubleValue
0.000

@<SCITEGIC>MOL_PROPERTY
Tether
SciTegic.value.DoubleValue
0.000

@<TRIPOS>MOLECULE
guest-6_confgen4.mol2 : confsearch ligand conformer 235
          13          12           1
SMALL
USER_CHARGES
 
@<TRIPOS>ATOM
       1    C1      18.791045   18.544335   20.878311 C.2        1 MOL1         0.6021
       2    O1      18.607873   19.309878   19.952843 O.co2      1 MOL1        -0.6904
       3    O2      18.715629   17.336390   20.773032 O.co2      1 MOL1        -0.6904
       4    C2      19.096544   19.135404   22.252369 C.3        1 MOL1        -0.2102
       5    H1      18.917417   18.366132   23.013567 H          1 MOL1         0.0687
       6    H2      18.368796   19.935408   22.433372 H          1 MOL1         0.0687
       7    C3      20.532285   19.702735   22.394221 C.3        1 MOL1        -0.1974
       8    H3      20.715456   20.442119   21.601958 H          1 MOL1         0.0689
       9    H4      20.615114   20.237519   23.350264 H          1 MOL1         0.0689
      10    C4      21.610662   18.600972   22.338088 C.3        1 MOL1        -0.2987
      11    H5      21.586041   18.073293   21.375396 H          1 MOL1         0.0700
      12    H6      22.612188   19.033311   22.461076 H          1 MOL1         0.0700
      13    H7      21.459133   17.862511   23.136278 H          1 MOL1         0.0700
@<TRIPOS>BOND
    1     1     2    1
    2     1     3    2
    3     1     4    1
    4     4     5    1
    5     4     6    1
    6     4     7    1
    7     7     8    1
    8     7     9    1
    9     7    10    1
   10    10    11    1
   11    10    12    1
   12    10    13    1
@<TRIPOS>SUBSTRUCTURE
       1 MOL1            1 RESIDUE      1      MOL     
@<SCITEGIC>MOL_PROPERTY
VConf Rank
SciTegic.value.IntegerValue
235

@<SCITEGIC>MOL_PROPERTY
Conf_Id
SciTegic.value.IntegerValue
4

@<SCITEGIC>MOL_PROPERTY
Delta U+W
SciTegic.value.DoubleValue
0.281

@<SCITEGIC>MOL_PROPERTY
U+W
SciTegic.value.DoubleValue
-58.051

@<SCITEGIC>MOL_PROPERTY
Grad RMS
SciTegic.value.DoubleValue
0.000000

@<SCITEGIC>MOL_PROPERTY
U
SciTegic.value.DoubleValue
9.781

@<SCITEGIC>MOL_PROPERTY
W
SciTegic.value.DoubleValue
-67.832

@<SCITEGIC>MOL_PROPERTY
W(PB)
SciTegic.value.DoubleValue
-69.535

@<SCITEGIC>MOL_PROPERTY
W(SA)
SciTegic.value.DoubleValue
1.703

@<SCITEGIC>MOL_PROPERTY
Valence
SciTegic.value.DoubleValue
6.123

@<SCITEGIC>MOL_PROPERTY
Coulomb
SciTegic.value.DoubleValue
3.449

@<SCITEGIC>MOL_PROPERTY
VdW
SciTegic.value.DoubleValue
0.209

@<SCITEGIC>MOL_PROPERTY
VdW6
SciTegic.value.DoubleValue
-3.762

@<SCITEGIC>MOL_PROPERTY
VdW12
SciTegic.value.DoubleValue
3.972

@<SCITEGIC>MOL_PROPERTY
Bond
SciTegic.value.DoubleValue
0.078

@<SCITEGIC>MOL_PROPERTY
Angle
SciTegic.value.DoubleValue
2.428

@<SCITEGIC>MOL_PROPERTY
Pdih
SciTegic.value.DoubleValue
3.616

@<SCITEGIC>MOL_PROPERTY
Idih
SciTegic.value.DoubleValue
0.002

@<SCITEGIC>MOL_PROPERTY
Tether
SciTegic.value.DoubleValue
0.000

@<TRIPOS>MOLECULE
guest-6_confgen4.mol2 : confsearch ligand conformer 236
          13          12           1
SMALL
USER_CHARGES
 
@<TRIPOS>ATOM
       1    C1      20.982022   20.197889   22.971243 C.2        1 MOL1         0.6021
       2    O1      22.089518   19.787266   23.255400 O.co2      1 MOL1        -0.6904
       3    O2      20.748362   21.357757   22.695190 O.co2      1 MOL1        -0.6904
       4    C2      19.814756   19.214233   22.996475 C.3        1 MOL1        -0.2102
       5    H1      19.003169   19.684352   23.564543 H          1 MOL1         0.0687
       6    H2      20.118919   18.322258   23.557859 H          1 MOL1         0.0687
       7    C3      19.294889   18.810196   21.592969 C.3        1 MOL1        -0.1974
       8    H3      18.370215   18.227816   21.705592 H          1 MOL1         0.0689
       9    H4      19.032019   19.713160   21.024219 H          1 MOL1         0.0689
      10    C4      20.322421   17.975958   20.800408 C.3        1 MOL1        -0.2987
      11    H5      20.582615   17.056737   21.341446 H          1 MOL1         0.0700
      12    H6      19.916185   17.690353   19.821379 H          1 MOL1         0.0700
      13    H7      21.245920   18.545202   20.630297 H          1 MOL1         0.0700
@<TRIPOS>BOND
    1     1     2    1
    2     1     3    2
    3     1     4    1
    4     4     5    1
    5     4     6    1
    6     4     7    1
    7     7     8    1
    8     7     9    1
    9     7    10    1
   10    10    11    1
   11    10    12    1
   12    10    13    1
@<TRIPOS>SUBSTRUCTURE
       1 MOL1            1 RESIDUE      1      MOL     
@<SCITEGIC>MOL_PROPERTY
VConf Rank
SciTegic.value.IntegerValue
236

@<SCITEGIC>MOL_PROPERTY
Conf_Id
SciTegic.value.IntegerValue
36

@<SCITEGIC>MOL_PROPERTY
Delta U+W
SciTegic.value.DoubleValue
0.272

@<SCITEGIC>MOL_PROPERTY
U+W
SciTegic.value.DoubleValue
-58.060

@<SCITEGIC>MOL_PROPERTY
Grad RMS
SciTegic.value.DoubleValue
0.000000

@<SCITEGIC>MOL_PROPERTY
U
SciTegic.value.DoubleValue
9.781

@<SCITEGIC>MOL_PROPERTY
W
SciTegic.value.DoubleValue
-67.841

@<SCITEGIC>MOL_PROPERTY
W(PB)
SciTegic.value.DoubleValue
-69.537

@<SCITEGIC>MOL_PROPERTY
W(SA)
SciTegic.value.DoubleValue
1.696

@<SCITEGIC>MOL_PROPERTY
Valence
SciTegic.value.DoubleValue
6.123

@<SCITEGIC>MOL_PROPERTY
Coulomb
SciTegic.value.DoubleValue
3.449

@<SCITEGIC>MOL_PROPERTY
VdW
SciTegic.value.DoubleValue
0.209

@<SCITEGIC>MOL_PROPERTY
VdW6
SciTegic.value.DoubleValue
-3.762

@<SCITEGIC>MOL_PROPERTY
VdW12
SciTegic.value.DoubleValue
3.972

@<SCITEGIC>MOL_PROPERTY
Bond
SciTegic.value.DoubleValue
0.078

@<SCITEGIC>MOL_PROPERTY
Angle
SciTegic.value.DoubleValue
2.428

@<SCITEGIC>MOL_PROPERTY
Pdih
SciTegic.value.DoubleValue
3.616

@<SCITEGIC>MOL_PROPERTY
Idih
SciTegic.value.DoubleValue
0.002

@<SCITEGIC>MOL_PROPERTY
Tether
SciTegic.value.DoubleValue
0.000

@<TRIPOS>MOLECULE
guest-6_confgen4.mol2 : confsearch ligand conformer 237
          13          12           1
SMALL
USER_CHARGES
 
@<TRIPOS>ATOM
       1    C1      19.670102   18.612222   23.887824 C.2        1 MOL1         0.6021
       2    O1      20.805404   18.390794   24.261172 O.co2      1 MOL1        -0.6904
       3    O2      18.710674   18.577260   24.631512 O.co2      1 MOL1        -0.6904
       4    C2      19.404858   18.953058   22.420119 C.3        1 MOL1        -0.2102
       5    H1      18.904607   19.928495   22.395433 H          1 MOL1         0.0687
       6    H2      18.688964   18.216251   22.036779 H          1 MOL1         0.0687
       7    C3      20.659329   18.986039   21.508434 C.3        1 MOL1        -0.1974
       8    H3      21.376686   19.722907   21.895965 H          1 MOL1         0.0689
       9    H4      21.160827   18.008572   21.536927 H          1 MOL1         0.0689
      10    C4      20.295508   19.336949   20.051611 C.3        1 MOL1        -0.2987
      11    H5      19.820072   20.324864   19.992406 H          1 MOL1         0.0700
      12    H6      21.194926   19.355451   19.422356 H          1 MOL1         0.0700
      13    H7      19.602434   18.596782   19.630512 H          1 MOL1         0.0700
@<TRIPOS>BOND
    1     1     2    1
    2     1     3    2
    3     1     4    1
    4     4     5    1
    5     4     6    1
    6     4     7    1
    7     7     8    1
    8     7     9    1
    9     7    10    1
   10    10    11    1
   11    10    12    1
   12    10    13    1
@<TRIPOS>SUBSTRUCTURE
       1 MOL1            1 RESIDUE      1      MOL     
@<SCITEGIC>MOL_PROPERTY
VConf Rank
SciTegic.value.IntegerValue
237

@<SCITEGIC>MOL_PROPERTY
Conf_Id
SciTegic.value.IntegerValue
0

@<SCITEGIC>MOL_PROPERTY
Delta U+W
SciTegic.value.DoubleValue
0.000

@<SCITEGIC>MOL_PROPERTY
U+W
SciTegic.value.DoubleValue
-58.332

@<SCITEGIC>MOL_PROPERTY
Grad RMS
SciTegic.value.DoubleValue
0.000000

@<SCITEGIC>MOL_PROPERTY
U
SciTegic.value.DoubleValue
8.390

@<SCITEGIC>MOL_PROPERTY
W
SciTegic.value.DoubleValue
-66.722

@<SCITEGIC>MOL_PROPERTY
W(PB)
SciTegic.value.DoubleValue
-68.455

@<SCITEGIC>MOL_PROPERTY
W(SA)
SciTegic.value.DoubleValue
1.733

@<SCITEGIC>MOL_PROPERTY
Valence
SciTegic.value.DoubleValue
6.333

@<SCITEGIC>MOL_PROPERTY
Coulomb
SciTegic.value.DoubleValue
1.215

@<SCITEGIC>MOL_PROPERTY
VdW
SciTegic.value.DoubleValue
0.842

@<SCITEGIC>MOL_PROPERTY
VdW6
SciTegic.value.DoubleValue
-3.344

@<SCITEGIC>MOL_PROPERTY
VdW12
SciTegic.value.DoubleValue
4.186

@<SCITEGIC>MOL_PROPERTY
Bond
SciTegic.value.DoubleValue
0.091

@<SCITEGIC>MOL_PROPERTY
Angle
SciTegic.value.DoubleValue
2.713

@<SCITEGIC>MOL_PROPERTY
Pdih
SciTegic.value.DoubleValue
3.529

@<SCITEGIC>MOL_PROPERTY
Idih
SciTegic.value.DoubleValue
0.000

@<SCITEGIC>MOL_PROPERTY
Tether
SciTegic.value.DoubleValue
0.000

@<TRIPOS>MOLECULE
guest-6_confgen4.mol2 : confsearch ligand conformer 238
          13          12           1
SMALL
USER_CHARGES
 
@<TRIPOS>ATOM
       1    C1      19.606702   17.917980   20.083908 C.2        1 MOL1         0.6021
       2    O1      19.505775   18.553223   19.053548 O.co2      1 MOL1        -0.6904
       3    O2      19.103606   16.825029   20.250381 O.co2      1 MOL1        -0.6904
       4    C2      20.391479   18.534047   21.237201 C.3        1 MOL1        -0.2102
       5    H1      21.197015   19.146115   20.813521 H          1 MOL1         0.0687
       6    H2      20.865379   17.720939   21.800488 H          1 MOL1         0.0687
       7    C3      19.510210   19.390717   22.178121 C.3        1 MOL1        -0.1974
       8    H3      19.033121   20.195487   21.601447 H          1 MOL1         0.0689
       9    H4      18.701514   18.770018   22.588691 H          1 MOL1         0.0689
      10    C4      20.332252   19.998759   23.332167 C.3        1 MOL1        -0.2987
      11    H5      19.690847   20.602047   23.987837 H          1 MOL1         0.0700
      12    H6      20.795330   19.211675   23.941767 H          1 MOL1         0.0700
      13    H7      21.129445   20.648101   22.946946 H          1 MOL1         0.0700
@<TRIPOS>BOND
    1     1     2    1
    2     1     3    2
    3     1     4    1
    4     4     5    1
    5     4     6    1
    6     4     7    1
    7     7     8    1
    8     7     9    1
    9     7    10    1
   10    10    11    1
   11    10    12    1
   12    10    13    1
@<TRIPOS>SUBSTRUCTURE
       1 MOL1            1 RESIDUE      1      MOL     
@<SCITEGIC>MOL_PROPERTY
VConf Rank
SciTegic.value.IntegerValue
238

@<SCITEGIC>MOL_PROPERTY
Conf_Id
SciTegic.value.IntegerValue
1

@<SCITEGIC>MOL_PROPERTY
Delta U+W
SciTegic.value.DoubleValue
-1.339

@<SCITEGIC>MOL_PROPERTY
U+W
SciTegic.value.DoubleValue
-59.672

@<SCITEGIC>MOL_PROPERTY
Grad RMS
SciTegic.value.DoubleValue
0.000000

@<SCITEGIC>MOL_PROPERTY
U
SciTegic.value.DoubleValue
7.389

@<SCITEGIC>MOL_PROPERTY
W
SciTegic.value.DoubleValue
-67.061

@<SCITEGIC>MOL_PROPERTY
W(PB)
SciTegic.value.DoubleValue
-68.767

@<SCITEGIC>MOL_PROPERTY
W(SA)
SciTegic.value.DoubleValue
1.707

@<SCITEGIC>MOL_PROPERTY
Valence
SciTegic.value.DoubleValue
5.822

@<SCITEGIC>MOL_PROPERTY
Coulomb
SciTegic.value.DoubleValue
1.255

@<SCITEGIC>MOL_PROPERTY
VdW
SciTegic.value.DoubleValue
0.312

@<SCITEGIC>MOL_PROPERTY
VdW6
SciTegic.value.DoubleValue
-3.061

@<SCITEGIC>MOL_PROPERTY
VdW12
SciTegic.value.DoubleValue
3.372

@<SCITEGIC>MOL_PROPERTY
Bond
SciTegic.value.DoubleValue
0.059

@<SCITEGIC>MOL_PROPERTY
Angle
SciTegic.value.DoubleValue
2.241

@<SCITEGIC>MOL_PROPERTY
Pdih
SciTegic.value.DoubleValue
3.522

@<SCITEGIC>MOL_PROPERTY
Idih
SciTegic.value.DoubleValue
0.000

@<SCITEGIC>MOL_PROPERTY
Tether
SciTegic.value.DoubleValue
0.000

@<TRIPOS>MOLECULE
guest-6_confgen4.mol2 : confsearch ligand conformer 239
          13          12           1
SMALL
USER_CHARGES
 
@<TRIPOS>ATOM
       1    C1      19.219192   17.990768   20.798888 C.2        1 MOL1         0.6021
       2    O1      18.183901   18.476284   20.388345 O.co2      1 MOL1        -0.6904
       3    O2      20.000496   17.384563   20.093208 O.co2      1 MOL1        -0.6904
       4    C2      19.534882   18.119785   22.286981 C.3        1 MOL1        -0.2102
       5    H1      20.302058   17.380760   22.548841 H          1 MOL1         0.0687
       6    H2      18.628267   17.844050   22.838710 H          1 MOL1         0.0687
       7    C3      19.989910   19.537525   22.718607 C.3        1 MOL1        -0.1974
       8    H3      19.233587   20.274844   22.414868 H          1 MOL1         0.0689
       9    H4      20.048280   19.578578   23.814865 H          1 MOL1         0.0689
      10    C4      21.361084   19.923364   22.126205 C.3        1 MOL1        -0.2987
      11    H5      21.327436   19.935883   21.028690 H          1 MOL1         0.0700
      12    H6      21.662185   20.922651   22.466586 H          1 MOL1         0.0700
      13    H7      22.136906   19.210953   22.435984 H          1 MOL1         0.0700
@<TRIPOS>BOND
    1     1     2    1
    2     1     3    2
    3     1     4    1
    4     4     5    1
    5     4     6    1
    6     4     7    1
    7     7     8    1
    8     7     9    1
    9     7    10    1
   10    10    11    1
   11    10    12    1
   12    10    13    1
@<TRIPOS>SUBSTRUCTURE
       1 MOL1            1 RESIDUE      1      MOL     
@<SCITEGIC>MOL_PROPERTY
VConf Rank
SciTegic.value.IntegerValue
239

@<SCITEGIC>MOL_PROPERTY
Conf_Id
SciTegic.value.IntegerValue
4

@<SCITEGIC>MOL_PROPERTY
Delta U+W
SciTegic.value.DoubleValue
0.281

@<SCITEGIC>MOL_PROPERTY
U+W
SciTegic.value.DoubleValue
-58.051

@<SCITEGIC>MOL_PROPERTY
Grad RMS
SciTegic.value.DoubleValue
0.000000

@<SCITEGIC>MOL_PROPERTY
U
SciTegic.value.DoubleValue
9.781

@<SCITEGIC>MOL_PROPERTY
W
SciTegic.value.DoubleValue
-67.832

@<SCITEGIC>MOL_PROPERTY
W(PB)
SciTegic.value.DoubleValue
-69.535

@<SCITEGIC>MOL_PROPERTY
W(SA)
SciTegic.value.DoubleValue
1.703

@<SCITEGIC>MOL_PROPERTY
Valence
SciTegic.value.DoubleValue
6.123

@<SCITEGIC>MOL_PROPERTY
Coulomb
SciTegic.value.DoubleValue
3.449

@<SCITEGIC>MOL_PROPERTY
VdW
SciTegic.value.DoubleValue
0.209

@<SCITEGIC>MOL_PROPERTY
VdW6
SciTegic.value.DoubleValue
-3.762

@<SCITEGIC>MOL_PROPERTY
VdW12
SciTegic.value.DoubleValue
3.972

@<SCITEGIC>MOL_PROPERTY
Bond
SciTegic.value.DoubleValue
0.078

@<SCITEGIC>MOL_PROPERTY
Angle
SciTegic.value.DoubleValue
2.428

@<SCITEGIC>MOL_PROPERTY
Pdih
SciTegic.value.DoubleValue
3.616

@<SCITEGIC>MOL_PROPERTY
Idih
SciTegic.value.DoubleValue
0.002

@<SCITEGIC>MOL_PROPERTY
Tether
SciTegic.value.DoubleValue
0.000

@<TRIPOS>MOLECULE
guest-6_confgen4.mol2 : confsearch ligand conformer 240
          13          12           1
SMALL
USER_CHARGES
 
@<TRIPOS>ATOM
       1    C1      19.686873   20.687878   21.736730 C.2        1 MOL1         0.6021
       2    O1      20.021212   21.026926   20.619068 O.co2      1 MOL1        -0.6904
       3    O2      18.666964   21.069726   22.275317 O.co2      1 MOL1        -0.6904
       4    C2      20.612705   19.761857   22.521616 C.3        1 MOL1        -0.2102
       5    H1      20.735848   20.193742   23.521965 H          1 MOL1         0.0687
       6    H2      21.602399   19.771077   22.048640 H          1 MOL1         0.0687
       7    C3      20.095275   18.306025   22.648726 C.3        1 MOL1        -0.1974
       8    H3      20.739088   17.754994   23.347826 H          1 MOL1         0.0689
       9    H4      19.086689   18.311042   23.085362 H          1 MOL1         0.0689
      10    C4      20.073187   17.566983   21.294748 C.3        1 MOL1        -0.2987
      11    H5      21.076735   17.530946   20.850920 H          1 MOL1         0.0700
      12    H6      19.721301   16.535077   21.422972 H          1 MOL1         0.0700
      13    H7      19.402736   18.066902   20.583128 H          1 MOL1         0.0700
@<TRIPOS>BOND
    1     1     2    1
    2     1     3    2
    3     1     4    1
    4     4     5    1
    5     4     6    1
    6     4     7    1
    7     7     8    1
    8     7     9    1
    9     7    10    1
   10    10    11    1
   11    10    12    1
   12    10    13    1
@<TRIPOS>SUBSTRUCTURE
       1 MOL1            1 RESIDUE      1      MOL     
@<SCITEGIC>MOL_PROPERTY
VConf Rank
SciTegic.value.IntegerValue
240

@<SCITEGIC>MOL_PROPERTY
Conf_Id
SciTegic.value.IntegerValue
36

@<SCITEGIC>MOL_PROPERTY
Delta U+W
SciTegic.value.DoubleValue
0.272

@<SCITEGIC>MOL_PROPERTY
U+W
SciTegic.value.DoubleValue
-58.060

@<SCITEGIC>MOL_PROPERTY
Grad RMS
SciTegic.value.DoubleValue
0.000000

@<SCITEGIC>MOL_PROPERTY
U
SciTegic.value.DoubleValue
9.781

@<SCITEGIC>MOL_PROPERTY
W
SciTegic.value.DoubleValue
-67.841

@<SCITEGIC>MOL_PROPERTY
W(PB)
SciTegic.value.DoubleValue
-69.537

@<SCITEGIC>MOL_PROPERTY
W(SA)
SciTegic.value.DoubleValue
1.696

@<SCITEGIC>MOL_PROPERTY
Valence
SciTegic.value.DoubleValue
6.123

@<SCITEGIC>MOL_PROPERTY
Coulomb
SciTegic.value.DoubleValue
3.449

@<SCITEGIC>MOL_PROPERTY
VdW
SciTegic.value.DoubleValue
0.209

@<SCITEGIC>MOL_PROPERTY
VdW6
SciTegic.value.DoubleValue
-3.762

@<SCITEGIC>MOL_PROPERTY
VdW12
SciTegic.value.DoubleValue
3.972

@<SCITEGIC>MOL_PROPERTY
Bond
SciTegic.value.DoubleValue
0.078

@<SCITEGIC>MOL_PROPERTY
Angle
SciTegic.value.DoubleValue
2.428

@<SCITEGIC>MOL_PROPERTY
Pdih
SciTegic.value.DoubleValue
3.616

@<SCITEGIC>MOL_PROPERTY
Idih
SciTegic.value.DoubleValue
0.002

@<SCITEGIC>MOL_PROPERTY
Tether
SciTegic.value.DoubleValue
0.000

@<TRIPOS>MOLECULE
guest-6_confgen4.mol2 : confsearch ligand conformer 241
          13          12           1
SMALL
USER_CHARGES
 
@<TRIPOS>ATOM
       1    C1      19.832160   17.005303   21.093145 C.2        1 MOL1         0.6021
       2    O1      20.995925   16.655564   21.118866 O.co2      1 MOL1        -0.6904
       3    O2      18.931652   16.279958   20.721989 O.co2      1 MOL1        -0.6904
       4    C2      19.452211   18.417628   21.542209 C.3        1 MOL1        -0.2102
       5    H1      18.722786   18.318019   22.354832 H          1 MOL1         0.0687
       6    H2      18.934433   18.899714   20.704453 H          1 MOL1         0.0687
       7    C3      20.634399   19.307524   22.007475 C.3        1 MOL1        -0.1974
       8    H3      21.153686   18.821263   22.845118 H          1 MOL1         0.0689
       9    H4      21.365638   19.403614   21.192729 H          1 MOL1         0.0689
      10    C4      20.156812   20.708492   22.439950 C.3        1 MOL1        -0.2987
      11    H5      19.447381   20.641278   23.275242 H          1 MOL1         0.0700
      12    H6      21.006323   21.323011   22.765456 H          1 MOL1         0.0700
      13    H7      19.660986   21.228277   21.609587 H          1 MOL1         0.0700
@<TRIPOS>BOND
    1     1     2    1
    2     1     3    2
    3     1     4    1
    4     4     5    1
    5     4     6    1
    6     4     7    1
    7     7     8    1
    8     7     9    1
    9     7    10    1
   10    10    11    1
   11    10    12    1
   12    10    13    1
@<TRIPOS>SUBSTRUCTURE
       1 MOL1            1 RESIDUE      1      MOL     
@<SCITEGIC>MOL_PROPERTY
VConf Rank
SciTegic.value.IntegerValue
241

@<SCITEGIC>MOL_PROPERTY
Conf_Id
SciTegic.value.IntegerValue
0

@<SCITEGIC>MOL_PROPERTY
Delta U+W
SciTegic.value.DoubleValue
0.000

@<SCITEGIC>MOL_PROPERTY
U+W
SciTegic.value.DoubleValue
-58.332

@<SCITEGIC>MOL_PROPERTY
Grad RMS
SciTegic.value.DoubleValue
0.000000

@<SCITEGIC>MOL_PROPERTY
U
SciTegic.value.DoubleValue
8.390

@<SCITEGIC>MOL_PROPERTY
W
SciTegic.value.DoubleValue
-66.722

@<SCITEGIC>MOL_PROPERTY
W(PB)
SciTegic.value.DoubleValue
-68.455

@<SCITEGIC>MOL_PROPERTY
W(SA)
SciTegic.value.DoubleValue
1.733

@<SCITEGIC>MOL_PROPERTY
Valence
SciTegic.value.DoubleValue
6.333

@<SCITEGIC>MOL_PROPERTY
Coulomb
SciTegic.value.DoubleValue
1.215

@<SCITEGIC>MOL_PROPERTY
VdW
SciTegic.value.DoubleValue
0.842

@<SCITEGIC>MOL_PROPERTY
VdW6
SciTegic.value.DoubleValue
-3.344

@<SCITEGIC>MOL_PROPERTY
VdW12
SciTegic.value.DoubleValue
4.186

@<SCITEGIC>MOL_PROPERTY
Bond
SciTegic.value.DoubleValue
0.091

@<SCITEGIC>MOL_PROPERTY
Angle
SciTegic.value.DoubleValue
2.713

@<SCITEGIC>MOL_PROPERTY
Pdih
SciTegic.value.DoubleValue
3.529

@<SCITEGIC>MOL_PROPERTY
Idih
SciTegic.value.DoubleValue
0.000

@<SCITEGIC>MOL_PROPERTY
Tether
SciTegic.value.DoubleValue
0.000

@<TRIPOS>MOLECULE
guest-6_confgen4.mol2 : confsearch ligand conformer 242
          13          12           1
SMALL
USER_CHARGES
 
@<TRIPOS>ATOM
       1    C1      21.863068   18.616405   20.954113 C.2        1 MOL1         0.6021
       2    O1      22.082653   19.146082   19.883326 O.co2      1 MOL1        -0.6904
       3    O2      22.405119   17.592900   21.320143 O.co2      1 MOL1        -0.6904
       4    C2      20.837728   19.260847   21.880866 C.3        1 MOL1        -0.2102
       5    H1      20.877196   20.346695   21.731220 H          1 MOL1         0.0687
       6    H2      21.143136   19.065864   22.916108 H          1 MOL1         0.0687
       7    C3      19.398733   18.742414   21.643438 C.3        1 MOL1        -0.1974
       8    H3      19.107437   18.934079   20.601213 H          1 MOL1         0.0689
       9    H4      19.373405   17.653043   21.786448 H          1 MOL1         0.0689
      10    C4      18.387188   19.412565   22.594735 C.3        1 MOL1        -0.2987
      11    H5      17.373648   19.032550   22.411471 H          1 MOL1         0.0700
      12    H6      18.640696   19.209923   23.643651 H          1 MOL1         0.0700
      13    H7      18.372667   20.500771   22.449291 H          1 MOL1         0.0700
@<TRIPOS>BOND
    1     1     2    1
    2     1     3    2
    3     1     4    1
    4     4     5    1
    5     4     6    1
    6     4     7    1
    7     7     8    1
    8     7     9    1
    9     7    10    1
   10    10    11    1
   11    10    12    1
   12    10    13    1
@<TRIPOS>SUBSTRUCTURE
       1 MOL1            1 RESIDUE      1      MOL     
@<SCITEGIC>MOL_PROPERTY
VConf Rank
SciTegic.value.IntegerValue
242

@<SCITEGIC>MOL_PROPERTY
Conf_Id
SciTegic.value.IntegerValue
1

@<SCITEGIC>MOL_PROPERTY
Delta U+W
SciTegic.value.DoubleValue
-1.339

@<SCITEGIC>MOL_PROPERTY
U+W
SciTegic.value.DoubleValue
-59.672

@<SCITEGIC>MOL_PROPERTY
Grad RMS
SciTegic.value.DoubleValue
0.000000

@<SCITEGIC>MOL_PROPERTY
U
SciTegic.value.DoubleValue
7.389

@<SCITEGIC>MOL_PROPERTY
W
SciTegic.value.DoubleValue
-67.061

@<SCITEGIC>MOL_PROPERTY
W(PB)
SciTegic.value.DoubleValue
-68.767

@<SCITEGIC>MOL_PROPERTY
W(SA)
SciTegic.value.DoubleValue
1.707

@<SCITEGIC>MOL_PROPERTY
Valence
SciTegic.value.DoubleValue
5.822

@<SCITEGIC>MOL_PROPERTY
Coulomb
SciTegic.value.DoubleValue
1.255

@<SCITEGIC>MOL_PROPERTY
VdW
SciTegic.value.DoubleValue
0.312

@<SCITEGIC>MOL_PROPERTY
VdW6
SciTegic.value.DoubleValue
-3.061

@<SCITEGIC>MOL_PROPERTY
VdW12
SciTegic.value.DoubleValue
3.372

@<SCITEGIC>MOL_PROPERTY
Bond
SciTegic.value.DoubleValue
0.059

@<SCITEGIC>MOL_PROPERTY
Angle
SciTegic.value.DoubleValue
2.241

@<SCITEGIC>MOL_PROPERTY
Pdih
SciTegic.value.DoubleValue
3.522

@<SCITEGIC>MOL_PROPERTY
Idih
SciTegic.value.DoubleValue
0.000

@<SCITEGIC>MOL_PROPERTY
Tether
SciTegic.value.DoubleValue
0.000

@<TRIPOS>MOLECULE
guest-6_confgen4.mol2 : confsearch ligand conformer 243
          13          12           1
SMALL
USER_CHARGES
 
@<TRIPOS>ATOM
       1    C1      20.170550   19.259965   23.764261 C.2        1 MOL1         0.6021
       2    O1      20.976429   18.603137   24.392938 O.co2      1 MOL1        -0.6904
       3    O2      19.940233   20.431366   23.989382 O.co2      1 MOL1        -0.6904
       4    C2      19.381540   18.564872   22.657447 C.3        1 MOL1        -0.2102
       5    H1      18.501950   19.174561   22.416847 H          1 MOL1         0.0687
       6    H2      19.008418   17.618478   23.066720 H          1 MOL1         0.0687
       7    C3      20.203182   18.282977   21.373399 C.3        1 MOL1        -0.1974
       8    H3      21.103048   17.707237   21.631636 H          1 MOL1         0.0689
       9    H4      19.609079   17.653446   20.696933 H          1 MOL1         0.0689
      10    C4      20.606098   19.575937   20.634587 C.3        1 MOL1        -0.2987
      11    H5      21.239805   20.211116   21.267667 H          1 MOL1         0.0700
      12    H6      21.168347   19.340587   19.721579 H          1 MOL1         0.0700
      13    H7      19.719505   20.156332   20.347379 H          1 MOL1         0.0700
@<TRIPOS>BOND
    1     1     2    1
    2     1     3    2
    3     1     4    1
    4     4     5    1
    5     4     6    1
    6     4     7    1
    7     7     8    1
    8     7     9    1
    9     7    10    1
   10    10    11    1
   11    10    12    1
   12    10    13    1
@<TRIPOS>SUBSTRUCTURE
       1 MOL1            1 RESIDUE      1      MOL     
@<SCITEGIC>MOL_PROPERTY
VConf Rank
SciTegic.value.IntegerValue
243

@<SCITEGIC>MOL_PROPERTY
Conf_Id
SciTegic.value.IntegerValue
4

@<SCITEGIC>MOL_PROPERTY
Delta U+W
SciTegic.value.DoubleValue
0.281

@<SCITEGIC>MOL_PROPERTY
U+W
SciTegic.value.DoubleValue
-58.051

@<SCITEGIC>MOL_PROPERTY
Grad RMS
SciTegic.value.DoubleValue
0.000000

@<SCITEGIC>MOL_PROPERTY
U
SciTegic.value.DoubleValue
9.781

@<SCITEGIC>MOL_PROPERTY
W
SciTegic.value.DoubleValue
-67.832

@<SCITEGIC>MOL_PROPERTY
W(PB)
SciTegic.value.DoubleValue
-69.535

@<SCITEGIC>MOL_PROPERTY
W(SA)
SciTegic.value.DoubleValue
1.703

@<SCITEGIC>MOL_PROPERTY
Valence
SciTegic.value.DoubleValue
6.123

@<SCITEGIC>MOL_PROPERTY
Coulomb
SciTegic.value.DoubleValue
3.449

@<SCITEGIC>MOL_PROPERTY
VdW
SciTegic.value.DoubleValue
0.209

@<SCITEGIC>MOL_PROPERTY
VdW6
SciTegic.value.DoubleValue
-3.762

@<SCITEGIC>MOL_PROPERTY
VdW12
SciTegic.value.DoubleValue
3.972

@<SCITEGIC>MOL_PROPERTY
Bond
SciTegic.value.DoubleValue
0.078

@<SCITEGIC>MOL_PROPERTY
Angle
SciTegic.value.DoubleValue
2.428

@<SCITEGIC>MOL_PROPERTY
Pdih
SciTegic.value.DoubleValue
3.616

@<SCITEGIC>MOL_PROPERTY
Idih
SciTegic.value.DoubleValue
0.002

@<SCITEGIC>MOL_PROPERTY
Tether
SciTegic.value.DoubleValue
0.000

@<TRIPOS>MOLECULE
guest-6_confgen4.mol2 : confsearch ligand conformer 244
          13          12           1
SMALL
USER_CHARGES
 
@<TRIPOS>ATOM
       1    C1      19.858165   18.465133   23.696983 C.2        1 MOL1         0.6021
       2    O1      18.820440   18.943355   24.109699 O.co2      1 MOL1        -0.6904
       3    O2      20.244194   17.350525   23.988065 O.co2      1 MOL1        -0.6904
       4    C2      20.742884   19.320816   22.793764 C.3        1 MOL1        -0.2102
       5    H1      21.765807   19.258290   23.183772 H          1 MOL1         0.0687
       6    H2      20.431689   20.368509   22.887486 H          1 MOL1         0.0687
       7    C3      20.731994   18.891862   21.304061 C.3        1 MOL1        -0.1974
       8    H3      21.502030   19.456865   20.761208 H          1 MOL1         0.0689
       9    H4      21.004903   17.830161   21.225104 H          1 MOL1         0.0689
      10    C4      19.364286   19.129682   20.631199 C.3        1 MOL1        -0.2987
      11    H5      19.082313   20.189669   20.679264 H          1 MOL1         0.0700
      12    H6      19.396527   18.834424   19.574374 H          1 MOL1         0.0700
      13    H7      18.575779   18.543884   21.122039 H          1 MOL1         0.0700
@<TRIPOS>BOND
    1     1     2    1
    2     1     3    2
    3     1     4    1
    4     4     5    1
    5     4     6    1
    6     4     7    1
    7     7     8    1
    8     7     9    1
    9     7    10    1
   10    10    11    1
   11    10    12    1
   12    10    13    1
@<TRIPOS>SUBSTRUCTURE
       1 MOL1            1 RESIDUE      1      MOL     
@<SCITEGIC>MOL_PROPERTY
VConf Rank
SciTegic.value.IntegerValue
244

@<SCITEGIC>MOL_PROPERTY
Conf_Id
SciTegic.value.IntegerValue
36

@<SCITEGIC>MOL_PROPERTY
Delta U+W
SciTegic.value.DoubleValue
0.272

@<SCITEGIC>MOL_PROPERTY
U+W
SciTegic.value.DoubleValue
-58.060

@<SCITEGIC>MOL_PROPERTY
Grad RMS
SciTegic.value.DoubleValue
0.000000

@<SCITEGIC>MOL_PROPERTY
U
SciTegic.value.DoubleValue
9.781

@<SCITEGIC>MOL_PROPERTY
W
SciTegic.value.DoubleValue
-67.841

@<SCITEGIC>MOL_PROPERTY
W(PB)
SciTegic.value.DoubleValue
-69.537

@<SCITEGIC>MOL_PROPERTY
W(SA)
SciTegic.value.DoubleValue
1.696

@<SCITEGIC>MOL_PROPERTY
Valence
SciTegic.value.DoubleValue
6.123

@<SCITEGIC>MOL_PROPERTY
Coulomb
SciTegic.value.DoubleValue
3.449

@<SCITEGIC>MOL_PROPERTY
VdW
SciTegic.value.DoubleValue
0.209

@<SCITEGIC>MOL_PROPERTY
VdW6
SciTegic.value.DoubleValue
-3.762

@<SCITEGIC>MOL_PROPERTY
VdW12
SciTegic.value.DoubleValue
3.972

@<SCITEGIC>MOL_PROPERTY
Bond
SciTegic.value.DoubleValue
0.078

@<SCITEGIC>MOL_PROPERTY
Angle
SciTegic.value.DoubleValue
2.428

@<SCITEGIC>MOL_PROPERTY
Pdih
SciTegic.value.DoubleValue
3.616

@<SCITEGIC>MOL_PROPERTY
Idih
SciTegic.value.DoubleValue
0.002

@<SCITEGIC>MOL_PROPERTY
Tether
SciTegic.value.DoubleValue
0.000

@<TRIPOS>MOLECULE
guest-6_confgen4.mol2 : confsearch ligand conformer 245
          13          12           1
SMALL
USER_CHARGES
 
@<TRIPOS>ATOM
       1    C1      19.541703   16.937186   22.061782 C.2        1 MOL1         0.6021
       2    O1      18.669337   17.017180   22.904342 O.co2      1 MOL1        -0.6904
       3    O2      19.914225   15.880308   21.593774 O.co2      1 MOL1        -0.6904
       4    C2      20.221024   18.207769   21.547173 C.3        1 MOL1        -0.2102
       5    H1      20.082577   18.235995   20.459802 H          1 MOL1         0.0687
       6    H2      21.296879   18.101357   21.730337 H          1 MOL1         0.0687
       7    C3      19.713044   19.532964   22.173091 C.3        1 MOL1        -0.1974
       8    H3      18.634199   19.636255   21.990939 H          1 MOL1         0.0689
       9    H4      19.849925   19.501423   23.263056 H          1 MOL1         0.0689
      10    C4      20.453241   20.756144   21.595359 C.3        1 MOL1        -0.2987
      11    H5      20.306044   20.827770   20.509668 H          1 MOL1         0.0700
      12    H6      20.080652   21.683477   22.049768 H          1 MOL1         0.0700
      13    H7      21.531543   20.691817   21.791960 H          1 MOL1         0.0700
@<TRIPOS>BOND
    1     1     2    1
    2     1     3    2
    3     1     4    1
    4     4     5    1
    5     4     6    1
    6     4     7    1
    7     7     8    1
    8     7     9    1
    9     7    10    1
   10    10    11    1
   11    10    12    1
   12    10    13    1
@<TRIPOS>SUBSTRUCTURE
       1 MOL1            1 RESIDUE      1      MOL     
@<SCITEGIC>MOL_PROPERTY
VConf Rank
SciTegic.value.IntegerValue
245

@<SCITEGIC>MOL_PROPERTY
Conf_Id
SciTegic.value.IntegerValue
0

@<SCITEGIC>MOL_PROPERTY
Delta U+W
SciTegic.value.DoubleValue
0.000

@<SCITEGIC>MOL_PROPERTY
U+W
SciTegic.value.DoubleValue
-58.332

@<SCITEGIC>MOL_PROPERTY
Grad RMS
SciTegic.value.DoubleValue
0.000000

@<SCITEGIC>MOL_PROPERTY
U
SciTegic.value.DoubleValue
8.390

@<SCITEGIC>MOL_PROPERTY
W
SciTegic.value.DoubleValue
-66.722

@<SCITEGIC>MOL_PROPERTY
W(PB)
SciTegic.value.DoubleValue
-68.455

@<SCITEGIC>MOL_PROPERTY
W(SA)
SciTegic.value.DoubleValue
1.733

@<SCITEGIC>MOL_PROPERTY
Valence
SciTegic.value.DoubleValue
6.333

@<SCITEGIC>MOL_PROPERTY
Coulomb
SciTegic.value.DoubleValue
1.215

@<SCITEGIC>MOL_PROPERTY
VdW
SciTegic.value.DoubleValue
0.842

@<SCITEGIC>MOL_PROPERTY
VdW6
SciTegic.value.DoubleValue
-3.344

@<SCITEGIC>MOL_PROPERTY
VdW12
SciTegic.value.DoubleValue
4.186

@<SCITEGIC>MOL_PROPERTY
Bond
SciTegic.value.DoubleValue
0.091

@<SCITEGIC>MOL_PROPERTY
Angle
SciTegic.value.DoubleValue
2.713

@<SCITEGIC>MOL_PROPERTY
Pdih
SciTegic.value.DoubleValue
3.529

@<SCITEGIC>MOL_PROPERTY
Idih
SciTegic.value.DoubleValue
0.000

@<SCITEGIC>MOL_PROPERTY
Tether
SciTegic.value.DoubleValue
0.000

@<TRIPOS>MOLECULE
guest-6_confgen4.mol2 : confsearch ligand conformer 246
          13          12           1
SMALL
USER_CHARGES
 
@<TRIPOS>ATOM
       1    C1      18.340344   19.756804   22.939374 C.2        1 MOL1         0.6021
       2    O1      18.579625   20.135647   24.068348 O.co2      1 MOL1        -0.6904
       3    O2      17.246636   19.370543   22.578865 O.co2      1 MOL1        -0.6904
       4    C2      19.478952   19.747870   21.924982 C.3        1 MOL1        -0.2102
       5    H1      20.153854   20.579350   22.161979 H          1 MOL1         0.0687
       6    H2      19.054589   19.948422   20.933663 H          1 MOL1         0.0687
       7    C3      20.263095   18.413440   21.908648 C.3        1 MOL1        -0.1974
       8    H3      20.674976   18.218135   22.908663 H          1 MOL1         0.0689
       9    H4      19.575538   17.587120   21.679994 H          1 MOL1         0.0689
      10    C4      21.406057   18.436543   20.874050 C.3        1 MOL1        -0.2987
      11    H5      21.949857   17.482849   20.877214 H          1 MOL1         0.0700
      12    H6      21.015636   18.600795   19.861060 H          1 MOL1         0.0700
      13    H7      22.123517   19.236620   21.099183 H          1 MOL1         0.0700
@<TRIPOS>BOND
    1     1     2    1
    2     1     3    2
    3     1     4    1
    4     4     5    1
    5     4     6    1
    6     4     7    1
    7     7     8    1
    8     7     9    1
    9     7    10    1
   10    10    11    1
   11    10    12    1
   12    10    13    1
@<TRIPOS>SUBSTRUCTURE
       1 MOL1            1 RESIDUE      1      MOL     
@<SCITEGIC>MOL_PROPERTY
VConf Rank
SciTegic.value.IntegerValue
246

@<SCITEGIC>MOL_PROPERTY
Conf_Id
SciTegic.value.IntegerValue
1

@<SCITEGIC>MOL_PROPERTY
Delta U+W
SciTegic.value.DoubleValue
-1.339

@<SCITEGIC>MOL_PROPERTY
U+W
SciTegic.value.DoubleValue
-59.672

@<SCITEGIC>MOL_PROPERTY
Grad RMS
SciTegic.value.DoubleValue
0.000000

@<SCITEGIC>MOL_PROPERTY
U
SciTegic.value.DoubleValue
7.389

@<SCITEGIC>MOL_PROPERTY
W
SciTegic.value.DoubleValue
-67.061

@<SCITEGIC>MOL_PROPERTY
W(PB)
SciTegic.value.DoubleValue
-68.767

@<SCITEGIC>MOL_PROPERTY
W(SA)
SciTegic.value.DoubleValue
1.707

@<SCITEGIC>MOL_PROPERTY
Valence
SciTegic.value.DoubleValue
5.822

@<SCITEGIC>MOL_PROPERTY
Coulomb
SciTegic.value.DoubleValue
1.255

@<SCITEGIC>MOL_PROPERTY
VdW
SciTegic.value.DoubleValue
0.312

@<SCITEGIC>MOL_PROPERTY
VdW6
SciTegic.value.DoubleValue
-3.061

@<SCITEGIC>MOL_PROPERTY
VdW12
SciTegic.value.DoubleValue
3.372

@<SCITEGIC>MOL_PROPERTY
Bond
SciTegic.value.DoubleValue
0.059

@<SCITEGIC>MOL_PROPERTY
Angle
SciTegic.value.DoubleValue
2.241

@<SCITEGIC>MOL_PROPERTY
Pdih
SciTegic.value.DoubleValue
3.522

@<SCITEGIC>MOL_PROPERTY
Idih
SciTegic.value.DoubleValue
0.000

@<SCITEGIC>MOL_PROPERTY
Tether
SciTegic.value.DoubleValue
0.000

@<TRIPOS>MOLECULE
guest-6_confgen4.mol2 : confsearch ligand conformer 247
          13          12           1
SMALL
USER_CHARGES
 
@<TRIPOS>ATOM
       1    C1      21.105770   20.323543   21.355899 C.2        1 MOL1         0.6021
       2    O1      22.067760   20.648158   22.023206 O.co2      1 MOL1        -0.6904
       3    O2      21.117112   20.279567   20.141880 O.co2      1 MOL1        -0.6904
       4    C2      19.805369   19.988479   22.082133 C.3        1 MOL1        -0.2102
       5    H1      18.978976   20.034140   21.362218 H          1 MOL1         0.0687
       6    H2      19.628175   20.781662   22.818237 H          1 MOL1         0.0687
       7    C3      19.814416   18.613423   22.798010 C.3        1 MOL1        -0.1974
       8    H3      20.669841   18.562749   23.486198 H          1 MOL1         0.0689
       9    H4      18.908738   18.521896   23.413026 H          1 MOL1         0.0689
      10    C4      19.872148   17.432367   21.807202 C.3        1 MOL1        -0.2987
      11    H5      20.789371   17.467334   21.204452 H          1 MOL1         0.0700
      12    H6      19.857210   16.475352   22.344786 H          1 MOL1         0.0700
      13    H7      19.013297   17.451339   21.123529 H          1 MOL1         0.0700
@<TRIPOS>BOND
    1     1     2    1
    2     1     3    2
    3     1     4    1
    4     4     5    1
    5     4     6    1
    6     4     7    1
    7     7     8    1
    8     7     9    1
    9     7    10    1
   10    10    11    1
   11    10    12    1
   12    10    13    1
@<TRIPOS>SUBSTRUCTURE
       1 MOL1            1 RESIDUE      1      MOL     
@<SCITEGIC>MOL_PROPERTY
VConf Rank
SciTegic.value.IntegerValue
247

@<SCITEGIC>MOL_PROPERTY
Conf_Id
SciTegic.value.IntegerValue
4

@<SCITEGIC>MOL_PROPERTY
Delta U+W
SciTegic.value.DoubleValue
0.281

@<SCITEGIC>MOL_PROPERTY
U+W
SciTegic.value.DoubleValue
-58.051

@<SCITEGIC>MOL_PROPERTY
Grad RMS
SciTegic.value.DoubleValue
0.000000

@<SCITEGIC>MOL_PROPERTY
U
SciTegic.value.DoubleValue
9.781

@<SCITEGIC>MOL_PROPERTY
W
SciTegic.value.DoubleValue
-67.832

@<SCITEGIC>MOL_PROPERTY
W(PB)
SciTegic.value.DoubleValue
-69.535

@<SCITEGIC>MOL_PROPERTY
W(SA)
SciTegic.value.DoubleValue
1.703

@<SCITEGIC>MOL_PROPERTY
Valence
SciTegic.value.DoubleValue
6.123

@<SCITEGIC>MOL_PROPERTY
Coulomb
SciTegic.value.DoubleValue
3.449

@<SCITEGIC>MOL_PROPERTY
VdW
SciTegic.value.DoubleValue
0.209

@<SCITEGIC>MOL_PROPERTY
VdW6
SciTegic.value.DoubleValue
-3.762

@<SCITEGIC>MOL_PROPERTY
VdW12
SciTegic.value.DoubleValue
3.972

@<SCITEGIC>MOL_PROPERTY
Bond
SciTegic.value.DoubleValue
0.078

@<SCITEGIC>MOL_PROPERTY
Angle
SciTegic.value.DoubleValue
2.428

@<SCITEGIC>MOL_PROPERTY
Pdih
SciTegic.value.DoubleValue
3.616

@<SCITEGIC>MOL_PROPERTY
Idih
SciTegic.value.DoubleValue
0.002

@<SCITEGIC>MOL_PROPERTY
Tether
SciTegic.value.DoubleValue
0.000

@<TRIPOS>MOLECULE
guest-6_confgen4.mol2 : confsearch ligand conformer 248
          13          12           1
SMALL
USER_CHARGES
 
@<TRIPOS>ATOM
       1    C1      18.557005   18.189589   22.410670 C.2        1 MOL1         0.6021
       2    O1      17.726369   19.043461   22.649107 O.co2      1 MOL1        -0.6904
       3    O2      18.305103   17.155403   21.824919 O.co2      1 MOL1        -0.6904
       4    C2      19.985300   18.408936   22.903197 C.3        1 MOL1        -0.2102
       5    H1      20.302874   17.487744   23.406127 H          1 MOL1         0.0687
       6    H2      19.977150   19.198717   23.664424 H          1 MOL1         0.0687
       7    C3      20.996649   18.758915   21.781580 C.3        1 MOL1        -0.1974
       8    H3      22.013233   18.749786   22.197928 H          1 MOL1         0.0689
       9    H4      20.966858   17.982555   21.004213 H          1 MOL1         0.0689
      10    C4      20.723253   20.139531   21.149852 C.3        1 MOL1        -0.2987
      11    H5      20.770339   20.933606   21.906568 H          1 MOL1         0.0700
      12    H6      21.467379   20.364486   20.374760 H          1 MOL1         0.0700
      13    H7      19.729499   20.170445   20.683674 H          1 MOL1         0.0700
@<TRIPOS>BOND
    1     1     2    1
    2     1     3    2
    3     1     4    1
    4     4     5    1
    5     4     6    1
    6     4     7    1
    7     7     8    1
    8     7     9    1
    9     7    10    1
   10    10    11    1
   11    10    12    1
   12    10    13    1
@<TRIPOS>SUBSTRUCTURE
       1 MOL1            1 RESIDUE      1      MOL     
@<SCITEGIC>MOL_PROPERTY
VConf Rank
SciTegic.value.IntegerValue
248

@<SCITEGIC>MOL_PROPERTY
Conf_Id
SciTegic.value.IntegerValue
36

@<SCITEGIC>MOL_PROPERTY
Delta U+W
SciTegic.value.DoubleValue
0.272

@<SCITEGIC>MOL_PROPERTY
U+W
SciTegic.value.DoubleValue
-58.060

@<SCITEGIC>MOL_PROPERTY
Grad RMS
SciTegic.value.DoubleValue
0.000000

@<SCITEGIC>MOL_PROPERTY
U
SciTegic.value.DoubleValue
9.781

@<SCITEGIC>MOL_PROPERTY
W
SciTegic.value.DoubleValue
-67.841

@<SCITEGIC>MOL_PROPERTY
W(PB)
SciTegic.value.DoubleValue
-69.537

@<SCITEGIC>MOL_PROPERTY
W(SA)
SciTegic.value.DoubleValue
1.696

@<SCITEGIC>MOL_PROPERTY
Valence
SciTegic.value.DoubleValue
6.123

@<SCITEGIC>MOL_PROPERTY
Coulomb
SciTegic.value.DoubleValue
3.449

@<SCITEGIC>MOL_PROPERTY
VdW
SciTegic.value.DoubleValue
0.209

@<SCITEGIC>MOL_PROPERTY
VdW6
SciTegic.value.DoubleValue
-3.762

@<SCITEGIC>MOL_PROPERTY
VdW12
SciTegic.value.DoubleValue
3.972

@<SCITEGIC>MOL_PROPERTY
Bond
SciTegic.value.DoubleValue
0.078

@<SCITEGIC>MOL_PROPERTY
Angle
SciTegic.value.DoubleValue
2.428

@<SCITEGIC>MOL_PROPERTY
Pdih
SciTegic.value.DoubleValue
3.616

@<SCITEGIC>MOL_PROPERTY
Idih
SciTegic.value.DoubleValue
0.002

@<SCITEGIC>MOL_PROPERTY
Tether
SciTegic.value.DoubleValue
0.000

@<TRIPOS>MOLECULE
guest-6_confgen4.mol2 : confsearch ligand conformer 249
          13          12           1
SMALL
USER_CHARGES
 
@<TRIPOS>ATOM
       1    C1      20.752771   18.788784   23.813237 C.2        1 MOL1         0.6021
       2    O1      20.607203   19.925877   24.217167 O.co2      1 MOL1        -0.6904
       3    O2      21.208320   17.896401   24.499476 O.co2      1 MOL1        -0.6904
       4    C2      20.353710   18.433892   22.379542 C.3        1 MOL1        -0.2102
       5    H1      19.618380   17.622406   22.435375 H          1 MOL1         0.0687
       6    H2      21.242678   18.026884   21.883136 H          1 MOL1         0.0687
       7    C3      19.777132   19.604632   21.541161 C.3        1 MOL1        -0.1974
       8    H3      18.888096   20.012950   22.041809 H          1 MOL1         0.0689
       9    H4      20.514368   20.417966   21.488952 H          1 MOL1         0.0689
      10    C4      19.404372   19.153836   20.114393 C.3        1 MOL1        -0.2987
      11    H5      18.644680   18.361493   20.138555 H          1 MOL1         0.0700
      12    H6      18.998669   19.994810   19.536964 H          1 MOL1         0.0700
      13    H7      20.284012   18.769712   19.581285 H          1 MOL1         0.0700
@<TRIPOS>BOND
    1     1     2    1
    2     1     3    2
    3     1     4    1
    4     4     5    1
    5     4     6    1
    6     4     7    1
    7     7     8    1
    8     7     9    1
    9     7    10    1
   10    10    11    1
   11    10    12    1
   12    10    13    1
@<TRIPOS>SUBSTRUCTURE
       1 MOL1            1 RESIDUE      1      MOL     
@<SCITEGIC>MOL_PROPERTY
VConf Rank
SciTegic.value.IntegerValue
249

@<SCITEGIC>MOL_PROPERTY
Conf_Id
SciTegic.value.IntegerValue
0

@<SCITEGIC>MOL_PROPERTY
Delta U+W
SciTegic.value.DoubleValue
0.000

@<SCITEGIC>MOL_PROPERTY
U+W
SciTegic.value.DoubleValue
-58.332

@<SCITEGIC>MOL_PROPERTY
Grad RMS
SciTegic.value.DoubleValue
0.000000

@<SCITEGIC>MOL_PROPERTY
U
SciTegic.value.DoubleValue
8.390

@<SCITEGIC>MOL_PROPERTY
W
SciTegic.value.DoubleValue
-66.722

@<SCITEGIC>MOL_PROPERTY
W(PB)
SciTegic.value.DoubleValue
-68.455

@<SCITEGIC>MOL_PROPERTY
W(SA)
SciTegic.value.DoubleValue
1.733

@<SCITEGIC>MOL_PROPERTY
Valence
SciTegic.value.DoubleValue
6.333

@<SCITEGIC>MOL_PROPERTY
Coulomb
SciTegic.value.DoubleValue
1.215

@<SCITEGIC>MOL_PROPERTY
VdW
SciTegic.value.DoubleValue
0.842

@<SCITEGIC>MOL_PROPERTY
VdW6
SciTegic.value.DoubleValue
-3.344

@<SCITEGIC>MOL_PROPERTY
VdW12
SciTegic.value.DoubleValue
4.186

@<SCITEGIC>MOL_PROPERTY
Bond
SciTegic.value.DoubleValue
0.091

@<SCITEGIC>MOL_PROPERTY
Angle
SciTegic.value.DoubleValue
2.713

@<SCITEGIC>MOL_PROPERTY
Pdih
SciTegic.value.DoubleValue
3.529

@<SCITEGIC>MOL_PROPERTY
Idih
SciTegic.value.DoubleValue
0.000

@<SCITEGIC>MOL_PROPERTY
Tether
SciTegic.value.DoubleValue
0.000

@<TRIPOS>MOLECULE
guest-6_confgen4.mol2 : confsearch ligand conformer 250
          13          12           1
SMALL
USER_CHARGES
 
@<TRIPOS>ATOM
       1    C1      21.916958   19.897324   21.927495 C.2        1 MOL1         0.6021
       2    O1      22.847150   19.117135   21.965047 O.co2      1 MOL1        -0.6904
       3    O2      21.975485   21.032397   22.355914 O.co2      1 MOL1        -0.6904
       4    C2      20.598895   19.419959   21.327218 C.3        1 MOL1        -0.2102
       5    H1      20.826904   18.699842   20.531943 H          1 MOL1         0.0687
       6    H2      20.108088   20.279282   20.854257 H          1 MOL1         0.0687
       7    C3      19.656177   18.777454   22.373315 C.3        1 MOL1        -0.1974
       8    H3      20.161739   17.924469   22.847283 H          1 MOL1         0.0689
       9    H4      19.442692   19.504239   23.169575 H          1 MOL1         0.0689
      10    C4      18.334032   18.305767   21.735558 C.3        1 MOL1        -0.2987
      11    H5      17.679493   17.853529   22.492077 H          1 MOL1         0.0700
      12    H6      17.795246   19.147324   21.280535 H          1 MOL1         0.0700
      13    H7      18.519815   17.555415   20.955806 H          1 MOL1         0.0700
@<TRIPOS>BOND
    1     1     2    1
    2     1     3    2
    3     1     4    1
    4     4     5    1
    5     4     6    1
    6     4     7    1
    7     7     8    1
    8     7     9    1
    9     7    10    1
   10    10    11    1
   11    10    12    1
   12    10    13    1
@<TRIPOS>SUBSTRUCTURE
       1 MOL1            1 RESIDUE      1      MOL     
@<SCITEGIC>MOL_PROPERTY
VConf Rank
SciTegic.value.IntegerValue
250

@<SCITEGIC>MOL_PROPERTY
Conf_Id
SciTegic.value.IntegerValue
1

@<SCITEGIC>MOL_PROPERTY
Delta U+W
SciTegic.value.DoubleValue
-1.339

@<SCITEGIC>MOL_PROPERTY
U+W
SciTegic.value.DoubleValue
-59.672

@<SCITEGIC>MOL_PROPERTY
Grad RMS
SciTegic.value.DoubleValue
0.000000

@<SCITEGIC>MOL_PROPERTY
U
SciTegic.value.DoubleValue
7.389

@<SCITEGIC>MOL_PROPERTY
W
SciTegic.value.DoubleValue
-67.061

@<SCITEGIC>MOL_PROPERTY
W(PB)
SciTegic.value.DoubleValue
-68.767

@<SCITEGIC>MOL_PROPERTY
W(SA)
SciTegic.value.DoubleValue
1.707

@<SCITEGIC>MOL_PROPERTY
Valence
SciTegic.value.DoubleValue
5.822

@<SCITEGIC>MOL_PROPERTY
Coulomb
SciTegic.value.DoubleValue
1.255

@<SCITEGIC>MOL_PROPERTY
VdW
SciTegic.value.DoubleValue
0.312

@<SCITEGIC>MOL_PROPERTY
VdW6
SciTegic.value.DoubleValue
-3.061

@<SCITEGIC>MOL_PROPERTY
VdW12
SciTegic.value.DoubleValue
3.372

@<SCITEGIC>MOL_PROPERTY
Bond
SciTegic.value.DoubleValue
0.059

@<SCITEGIC>MOL_PROPERTY
Angle
SciTegic.value.DoubleValue
2.241

@<SCITEGIC>MOL_PROPERTY
Pdih
SciTegic.value.DoubleValue
3.522

@<SCITEGIC>MOL_PROPERTY
Idih
SciTegic.value.DoubleValue
0.000

@<SCITEGIC>MOL_PROPERTY
Tether
SciTegic.value.DoubleValue
0.000

@<TRIPOS>MOLECULE
guest-6_confgen4.mol2 : confsearch ligand conformer 251
          13          12           1
SMALL
USER_CHARGES
 
@<TRIPOS>ATOM
       1    C1      21.050762   17.490408   22.411462 C.2        1 MOL1         0.6021
       2    O1      22.255402   17.558248   22.268848 O.co2      1 MOL1        -0.6904
       3    O2      20.517867   16.924492   23.345093 O.co2      1 MOL1        -0.6904
       4    C2      20.162173   18.119185   21.341052 C.3        1 MOL1        -0.2102
       5    H1      19.150389   17.706498   21.437331 H          1 MOL1         0.0687
       6    H2      20.545038   17.794589   20.366148 H          1 MOL1         0.0687
       7    C3      20.113529   19.668036   21.386124 C.3        1 MOL1        -0.1974
       8    H3      21.135013   20.069797   21.330603 H          1 MOL1         0.0689
       9    H4      19.580523   20.037328   20.499332 H          1 MOL1         0.0689
      10    C4      19.412562   20.200067   22.653214 C.3        1 MOL1        -0.2987
      11    H5      19.945645   19.886132   23.560459 H          1 MOL1         0.0700
      12    H6      19.377685   21.297244   22.644220 H          1 MOL1         0.0700
      13    H7      18.381596   19.827983   22.716891 H          1 MOL1         0.0700
@<TRIPOS>BOND
    1     1     2    1
    2     1     3    2
    3     1     4    1
    4     4     5    1
    5     4     6    1
    6     4     7    1
    7     7     8    1
    8     7     9    1
    9     7    10    1
   10    10    11    1
   11    10    12    1
   12    10    13    1
@<TRIPOS>SUBSTRUCTURE
       1 MOL1            1 RESIDUE      1      MOL     
@<SCITEGIC>MOL_PROPERTY
VConf Rank
SciTegic.value.IntegerValue
251

@<SCITEGIC>MOL_PROPERTY
Conf_Id
SciTegic.value.IntegerValue
4

@<SCITEGIC>MOL_PROPERTY
Delta U+W
SciTegic.value.DoubleValue
0.281

@<SCITEGIC>MOL_PROPERTY
U+W
SciTegic.value.DoubleValue
-58.051

@<SCITEGIC>MOL_PROPERTY
Grad RMS
SciTegic.value.DoubleValue
0.000000

@<SCITEGIC>MOL_PROPERTY
U
SciTegic.value.DoubleValue
9.781

@<SCITEGIC>MOL_PROPERTY
W
SciTegic.value.DoubleValue
-67.832

@<SCITEGIC>MOL_PROPERTY
W(PB)
SciTegic.value.DoubleValue
-69.535

@<SCITEGIC>MOL_PROPERTY
W(SA)
SciTegic.value.DoubleValue
1.703

@<SCITEGIC>MOL_PROPERTY
Valence
SciTegic.value.DoubleValue
6.123

@<SCITEGIC>MOL_PROPERTY
Coulomb
SciTegic.value.DoubleValue
3.449

@<SCITEGIC>MOL_PROPERTY
VdW
SciTegic.value.DoubleValue
0.209

@<SCITEGIC>MOL_PROPERTY
VdW6
SciTegic.value.DoubleValue
-3.762

@<SCITEGIC>MOL_PROPERTY
VdW12
SciTegic.value.DoubleValue
3.972

@<SCITEGIC>MOL_PROPERTY
Bond
SciTegic.value.DoubleValue
0.078

@<SCITEGIC>MOL_PROPERTY
Angle
SciTegic.value.DoubleValue
2.428

@<SCITEGIC>MOL_PROPERTY
Pdih
SciTegic.value.DoubleValue
3.616

@<SCITEGIC>MOL_PROPERTY
Idih
SciTegic.value.DoubleValue
0.002

@<SCITEGIC>MOL_PROPERTY
Tether
SciTegic.value.DoubleValue
0.000

@<TRIPOS>MOLECULE
guest-6_confgen4.mol2 : confsearch ligand conformer 252
          13          12           1
SMALL
USER_CHARGES
 
@<TRIPOS>ATOM
       1    C1      20.799703   20.452426   22.732219 C.2        1 MOL1         0.6021
       2    O1      19.988963   20.939013   23.495003 O.co2      1 MOL1        -0.6904
       3    O2      21.995883   20.440688   22.944618 O.co2      1 MOL1        -0.6904
       4    C2      20.295115   19.855691   21.420723 C.3        1 MOL1        -0.2102
       5    H1      20.925117   20.253978   20.616452 H          1 MOL1         0.0687
       6    H2      19.277524   20.221627   21.236640 H          1 MOL1         0.0687
       7    C3      20.321373   18.306264   21.376883 C.3        1 MOL1        -0.1974
       8    H3      20.089150   17.971095   20.356782 H          1 MOL1         0.0689
       9    H4      21.335821   17.949126   21.603307 H          1 MOL1         0.0689
      10    C4      19.314274   17.670749   22.357596 C.3        1 MOL1        -0.2987
      11    H5      18.290040   17.997380   22.134775 H          1 MOL1         0.0700
      12    H6      19.344355   16.575642   22.287362 H          1 MOL1         0.0700
      13    H7      19.543691   17.949496   23.394656 H          1 MOL1         0.0700
@<TRIPOS>BOND
    1     1     2    1
    2     1     3    2
    3     1     4    1
    4     4     5    1
    5     4     6    1
    6     4     7    1
    7     7     8    1
    8     7     9    1
    9     7    10    1
   10    10    11    1
   11    10    12    1
   12    10    13    1
@<TRIPOS>SUBSTRUCTURE
       1 MOL1            1 RESIDUE      1      MOL     
@<SCITEGIC>MOL_PROPERTY
VConf Rank
SciTegic.value.IntegerValue
252

@<SCITEGIC>MOL_PROPERTY
Conf_Id
SciTegic.value.IntegerValue
36

@<SCITEGIC>MOL_PROPERTY
Delta U+W
SciTegic.value.DoubleValue
0.272

@<SCITEGIC>MOL_PROPERTY
U+W
SciTegic.value.DoubleValue
-58.060

@<SCITEGIC>MOL_PROPERTY
Grad RMS
SciTegic.value.DoubleValue
0.000000

@<SCITEGIC>MOL_PROPERTY
U
SciTegic.value.DoubleValue
9.781

@<SCITEGIC>MOL_PROPERTY
W
SciTegic.value.DoubleValue
-67.841

@<SCITEGIC>MOL_PROPERTY
W(PB)
SciTegic.value.DoubleValue
-69.537

@<SCITEGIC>MOL_PROPERTY
W(SA)
SciTegic.value.DoubleValue
1.696

@<SCITEGIC>MOL_PROPERTY
Valence
SciTegic.value.DoubleValue
6.123

@<SCITEGIC>MOL_PROPERTY
Coulomb
SciTegic.value.DoubleValue
3.449

@<SCITEGIC>MOL_PROPERTY
VdW
SciTegic.value.DoubleValue
0.209

@<SCITEGIC>MOL_PROPERTY
VdW6
SciTegic.value.DoubleValue
-3.762

@<SCITEGIC>MOL_PROPERTY
VdW12
SciTegic.value.DoubleValue
3.972

@<SCITEGIC>MOL_PROPERTY
Bond
SciTegic.value.DoubleValue
0.078

@<SCITEGIC>MOL_PROPERTY
Angle
SciTegic.value.DoubleValue
2.428

@<SCITEGIC>MOL_PROPERTY
Pdih
SciTegic.value.DoubleValue
3.616

@<SCITEGIC>MOL_PROPERTY
Idih
SciTegic.value.DoubleValue
0.002

@<SCITEGIC>MOL_PROPERTY
Tether
SciTegic.value.DoubleValue
0.000

@<TRIPOS>MOLECULE
guest-6_confgen4.mol2 : confsearch ligand conformer 253
          13          12           1
SMALL
USER_CHARGES
 
@<TRIPOS>ATOM
       1    C1      21.559443   18.548166   20.413354 C.2        1 MOL1         0.6021
       2    O1      21.085132   19.045095   19.410649 O.co2      1 MOL1        -0.6904
       3    O2      22.634421   17.983326   20.426604 O.co2      1 MOL1        -0.6904
       4    C2      20.791495   18.620624   21.734599 C.3        1 MOL1        -0.2102
       5    H1      21.441389   19.117757   22.464553 H          1 MOL1         0.0687
       6    H2      20.644434   17.592070   22.085009 H          1 MOL1         0.0687
       7    C3      19.424573   19.350856   21.669470 C.3        1 MOL1        -0.1974
       8    H3      19.573821   20.380454   21.315339 H          1 MOL1         0.0689
       9    H4      18.775903   18.852933   20.935267 H          1 MOL1         0.0689
      10    C4      18.725339   19.374184   23.043647 C.3        1 MOL1        -0.2987
      11    H5      19.340949   19.894800   23.788970 H          1 MOL1         0.0700
      12    H6      17.760813   19.894377   22.977728 H          1 MOL1         0.0700
      13    H7      18.536678   18.355002   23.405861 H          1 MOL1         0.0700
@<TRIPOS>BOND
    1     1     2    1
    2     1     3    2
    3     1     4    1
    4     4     5    1
    5     4     6    1
    6     4     7    1
    7     7     8    1
    8     7     9    1
    9     7    10    1
   10    10    11    1
   11    10    12    1
   12    10    13    1
@<TRIPOS>SUBSTRUCTURE
       1 MOL1            1 RESIDUE      1      MOL     
@<SCITEGIC>MOL_PROPERTY
VConf Rank
SciTegic.value.IntegerValue
253

@<SCITEGIC>MOL_PROPERTY
Conf_Id
SciTegic.value.IntegerValue
0

@<SCITEGIC>MOL_PROPERTY
Delta U+W
SciTegic.value.DoubleValue
0.000

@<SCITEGIC>MOL_PROPERTY
U+W
SciTegic.value.DoubleValue
-58.332

@<SCITEGIC>MOL_PROPERTY
Grad RMS
SciTegic.value.DoubleValue
0.000000

@<SCITEGIC>MOL_PROPERTY
U
SciTegic.value.DoubleValue
8.390

@<SCITEGIC>MOL_PROPERTY
W
SciTegic.value.DoubleValue
-66.722

@<SCITEGIC>MOL_PROPERTY
W(PB)
SciTegic.value.DoubleValue
-68.455

@<SCITEGIC>MOL_PROPERTY
W(SA)
SciTegic.value.DoubleValue
1.733

@<SCITEGIC>MOL_PROPERTY
Valence
SciTegic.value.DoubleValue
6.333

@<SCITEGIC>MOL_PROPERTY
Coulomb
SciTegic.value.DoubleValue
1.215

@<SCITEGIC>MOL_PROPERTY
VdW
SciTegic.value.DoubleValue
0.842

@<SCITEGIC>MOL_PROPERTY
VdW6
SciTegic.value.DoubleValue
-3.344

@<SCITEGIC>MOL_PROPERTY
VdW12
SciTegic.value.DoubleValue
4.186

@<SCITEGIC>MOL_PROPERTY
Bond
SciTegic.value.DoubleValue
0.091

@<SCITEGIC>MOL_PROPERTY
Angle
SciTegic.value.DoubleValue
2.713

@<SCITEGIC>MOL_PROPERTY
Pdih
SciTegic.value.DoubleValue
3.529

@<SCITEGIC>MOL_PROPERTY
Idih
SciTegic.value.DoubleValue
0.000

@<SCITEGIC>MOL_PROPERTY
Tether
SciTegic.value.DoubleValue
0.000

@<TRIPOS>MOLECULE
guest-6_confgen4.mol2 : confsearch ligand conformer 254
          13          12           1
SMALL
USER_CHARGES
 
@<TRIPOS>ATOM
       1    C1      20.291557   20.219932   20.106994 C.2        1 MOL1         0.6021
       2    O1      19.426510   20.154023   19.256870 O.co2      1 MOL1        -0.6904
       3    O2      21.440041   20.538229   19.872404 O.co2      1 MOL1        -0.6904
       4    C2      19.920150   19.865768   21.543003 C.3        1 MOL1        -0.2102
       5    H1      18.875952   20.158292   21.707621 H          1 MOL1         0.0687
       6    H2      20.536419   20.475150   22.215227 H          1 MOL1         0.0687
       7    C3      20.109108   18.363161   21.862870 C.3        1 MOL1        -0.1974
       8    H3      19.495092   17.762488   21.177306 H          1 MOL1         0.0689
       9    H4      21.155883   18.079444   21.685133 H          1 MOL1         0.0689
      10    C4      19.725481   18.038000   23.320399 C.3        1 MOL1        -0.2987
      11    H5      19.866002   16.969163   23.528011 H          1 MOL1         0.0700
      12    H6      20.347006   18.604955   24.025965 H          1 MOL1         0.0700
      13    H7      18.673474   18.285532   23.514220 H          1 MOL1         0.0700
@<TRIPOS>BOND
    1     1     2    1
    2     1     3    2
    3     1     4    1
    4     4     5    1
    5     4     6    1
    6     4     7    1
    7     7     8    1
    8     7     9    1
    9     7    10    1
   10    10    11    1
   11    10    12    1
   12    10    13    1
@<TRIPOS>SUBSTRUCTURE
       1 MOL1            1 RESIDUE      1      MOL     
@<SCITEGIC>MOL_PROPERTY
VConf Rank
SciTegic.value.IntegerValue
254

@<SCITEGIC>MOL_PROPERTY
Conf_Id
SciTegic.value.IntegerValue
1

@<SCITEGIC>MOL_PROPERTY
Delta U+W
SciTegic.value.DoubleValue
-1.339

@<SCITEGIC>MOL_PROPERTY
U+W
SciTegic.value.DoubleValue
-59.672

@<SCITEGIC>MOL_PROPERTY
Grad RMS
SciTegic.value.DoubleValue
0.000000

@<SCITEGIC>MOL_PROPERTY
U
SciTegic.value.DoubleValue
7.389

@<SCITEGIC>MOL_PROPERTY
W
SciTegic.value.DoubleValue
-67.061

@<SCITEGIC>MOL_PROPERTY
W(PB)
SciTegic.value.DoubleValue
-68.767

@<SCITEGIC>MOL_PROPERTY
W(SA)
SciTegic.value.DoubleValue
1.707

@<SCITEGIC>MOL_PROPERTY
Valence
SciTegic.value.DoubleValue
5.822

@<SCITEGIC>MOL_PROPERTY
Coulomb
SciTegic.value.DoubleValue
1.255

@<SCITEGIC>MOL_PROPERTY
VdW
SciTegic.value.DoubleValue
0.312

@<SCITEGIC>MOL_PROPERTY
VdW6
SciTegic.value.DoubleValue
-3.061

@<SCITEGIC>MOL_PROPERTY
VdW12
SciTegic.value.DoubleValue
3.372

@<SCITEGIC>MOL_PROPERTY
Bond
SciTegic.value.DoubleValue
0.059

@<SCITEGIC>MOL_PROPERTY
Angle
SciTegic.value.DoubleValue
2.241

@<SCITEGIC>MOL_PROPERTY
Pdih
SciTegic.value.DoubleValue
3.522

@<SCITEGIC>MOL_PROPERTY
Idih
SciTegic.value.DoubleValue
0.000

@<SCITEGIC>MOL_PROPERTY
Tether
SciTegic.value.DoubleValue
0.000

@<TRIPOS>MOLECULE
guest-6_confgen4.mol2 : confsearch ligand conformer 255
          13          12           1
SMALL
USER_CHARGES
 
@<TRIPOS>ATOM
       1    C1      18.949224   17.841809   21.248579 C.2        1 MOL1         0.6021
       2    O1      19.328391   17.259488   20.251968 O.co2      1 MOL1        -0.6904
       3    O2      18.278251   17.318212   22.115496 O.co2      1 MOL1        -0.6904
       4    C2      19.305823   19.318561   21.399476 C.3        1 MOL1        -0.2102
       5    H1      18.643780   19.764876   22.151665 H          1 MOL1         0.0687
       6    H2      19.077574   19.809195   20.445764 H          1 MOL1         0.0687
       7    C3      20.788199   19.578689   21.771277 C.3        1 MOL1        -0.1974
       8    H3      21.442892   19.092552   21.034412 H          1 MOL1         0.0689
       9    H4      20.990618   20.656751   21.710602 H          1 MOL1         0.0689
      10    C4      21.137796   19.079339   23.188443 C.3        1 MOL1        -0.2987
      11    H5      20.989134   17.994601   23.272535 H          1 MOL1         0.0700
      12    H6      22.187124   19.296230   23.427120 H          1 MOL1         0.0700
      13    H7      20.509379   19.569708   23.943440 H          1 MOL1         0.0700
@<TRIPOS>BOND
    1     1     2    1
    2     1     3    2
    3     1     4    1
    4     4     5    1
    5     4     6    1
    6     4     7    1
    7     7     8    1
    8     7     9    1
    9     7    10    1
   10    10    11    1
   11    10    12    1
   12    10    13    1
@<TRIPOS>SUBSTRUCTURE
       1 MOL1            1 RESIDUE      1      MOL     
@<SCITEGIC>MOL_PROPERTY
VConf Rank
SciTegic.value.IntegerValue
255

@<SCITEGIC>MOL_PROPERTY
Conf_Id
SciTegic.value.IntegerValue
4

@<SCITEGIC>MOL_PROPERTY
Delta U+W
SciTegic.value.DoubleValue
0.281

@<SCITEGIC>MOL_PROPERTY
U+W
SciTegic.value.DoubleValue
-58.051

@<SCITEGIC>MOL_PROPERTY
Grad RMS
SciTegic.value.DoubleValue
0.000000

@<SCITEGIC>MOL_PROPERTY
U
SciTegic.value.DoubleValue
9.781

@<SCITEGIC>MOL_PROPERTY
W
SciTegic.value.DoubleValue
-67.832

@<SCITEGIC>MOL_PROPERTY
W(PB)
SciTegic.value.DoubleValue
-69.535

@<SCITEGIC>MOL_PROPERTY
W(SA)
SciTegic.value.DoubleValue
1.703

@<SCITEGIC>MOL_PROPERTY
Valence
SciTegic.value.DoubleValue
6.123

@<SCITEGIC>MOL_PROPERTY
Coulomb
SciTegic.value.DoubleValue
3.449

@<SCITEGIC>MOL_PROPERTY
VdW
SciTegic.value.DoubleValue
0.209

@<SCITEGIC>MOL_PROPERTY
VdW6
SciTegic.value.DoubleValue
-3.762

@<SCITEGIC>MOL_PROPERTY
VdW12
SciTegic.value.DoubleValue
3.972

@<SCITEGIC>MOL_PROPERTY
Bond
SciTegic.value.DoubleValue
0.078

@<SCITEGIC>MOL_PROPERTY
Angle
SciTegic.value.DoubleValue
2.428

@<SCITEGIC>MOL_PROPERTY
Pdih
SciTegic.value.DoubleValue
3.616

@<SCITEGIC>MOL_PROPERTY
Idih
SciTegic.value.DoubleValue
0.002

@<SCITEGIC>MOL_PROPERTY
Tether
SciTegic.value.DoubleValue
0.000

@<TRIPOS>MOLECULE
guest-6_confgen4.mol2 : confsearch ligand conformer 256
          13          12           1
SMALL
USER_CHARGES
 
@<TRIPOS>ATOM
       1    C1      19.887739   19.587561   20.331072 C.2        1 MOL1         0.6021
       2    O1      19.424088   20.709649   20.374110 O.co2      1 MOL1        -0.6904
       3    O2      20.713735   19.235277   19.512706 O.co2      1 MOL1        -0.6904
       4    C2      19.381265   18.554079   21.334130 C.3        1 MOL1        -0.2102
       5    H1      19.136281   17.645208   20.771704 H          1 MOL1         0.0687
       6    H2      18.443443   18.918596   21.771055 H          1 MOL1         0.0687
       7    C3      20.394171   18.208917   22.455836 C.3        1 MOL1        -0.1974
       8    H3      20.012329   17.357870   23.036169 H          1 MOL1         0.0689
       9    H4      21.343482   17.884475   22.006986 H          1 MOL1         0.0689
      10    C4      20.647024   19.395602   23.408606 C.3        1 MOL1        -0.2987
      11    H5      19.713457   19.721764   23.885536 H          1 MOL1         0.0700
      12    H6      21.352122   19.112200   24.200827 H          1 MOL1         0.0700
      13    H7      21.071874   20.251976   22.868280 H          1 MOL1         0.0700
@<TRIPOS>BOND
    1     1     2    1
    2     1     3    2
    3     1     4    1
    4     4     5    1
    5     4     6    1
    6     4     7    1
    7     7     8    1
    8     7     9    1
    9     7    10    1
   10    10    11    1
   11    10    12    1
   12    10    13    1
@<TRIPOS>SUBSTRUCTURE
       1 MOL1            1 RESIDUE      1      MOL     
@<SCITEGIC>MOL_PROPERTY
VConf Rank
SciTegic.value.IntegerValue
256

@<SCITEGIC>MOL_PROPERTY
Conf_Id
SciTegic.value.IntegerValue
36

@<SCITEGIC>MOL_PROPERTY
Delta U+W
SciTegic.value.DoubleValue
0.272

@<SCITEGIC>MOL_PROPERTY
U+W
SciTegic.value.DoubleValue
-58.060

@<SCITEGIC>MOL_PROPERTY
Grad RMS
SciTegic.value.DoubleValue
0.000000

@<SCITEGIC>MOL_PROPERTY
U
SciTegic.value.DoubleValue
9.781

@<SCITEGIC>MOL_PROPERTY
W
SciTegic.value.DoubleValue
-67.841

@<SCITEGIC>MOL_PROPERTY
W(PB)
SciTegic.value.DoubleValue
-69.537

@<SCITEGIC>MOL_PROPERTY
W(SA)
SciTegic.value.DoubleValue
1.696

@<SCITEGIC>MOL_PROPERTY
Valence
SciTegic.value.DoubleValue
6.123

@<SCITEGIC>MOL_PROPERTY
Coulomb
SciTegic.value.DoubleValue
3.449

@<SCITEGIC>MOL_PROPERTY
VdW
SciTegic.value.DoubleValue
0.209

@<SCITEGIC>MOL_PROPERTY
VdW6
SciTegic.value.DoubleValue
-3.762

@<SCITEGIC>MOL_PROPERTY
VdW12
SciTegic.value.DoubleValue
3.972

@<SCITEGIC>MOL_PROPERTY
Bond
SciTegic.value.DoubleValue
0.078

@<SCITEGIC>MOL_PROPERTY
Angle
SciTegic.value.DoubleValue
2.428

@<SCITEGIC>MOL_PROPERTY
Pdih
SciTegic.value.DoubleValue
3.616

@<SCITEGIC>MOL_PROPERTY
Idih
SciTegic.value.DoubleValue
0.002

@<SCITEGIC>MOL_PROPERTY
Tether
SciTegic.value.DoubleValue
0.000

@<TRIPOS>MOLECULE
guest-6_confgen4.mol2 : confsearch ligand conformer 257
          13          12           1
SMALL
USER_CHARGES
 
@<TRIPOS>ATOM
       1    C1      20.943388   20.893343   21.477468 C.2        1 MOL1         0.6021
       2    O1      22.114804   20.570425   21.506390 O.co2      1 MOL1        -0.6904
       3    O2      20.576758   22.035969   21.290958 O.co2      1 MOL1        -0.6904
       4    C2      19.857403   19.835336   21.682264 C.3        1 MOL1        -0.2102
       5    H1      19.208090   19.856941   20.798939 H          1 MOL1         0.0687
       6    H2      19.247186   20.153066   22.536091 H          1 MOL1         0.0687
       7    C3      20.372502   18.391175   21.916845 C.3        1 MOL1        -0.1974
       8    H3      20.986145   18.075784   21.061435 H          1 MOL1         0.0689
       9    H4      21.025357   18.372283   22.800687 H          1 MOL1         0.0689
      10    C4      19.210303   17.396780   22.112573 C.3        1 MOL1        -0.2987
      11    H5      18.559490   17.374110   21.228577 H          1 MOL1         0.0700
      12    H6      19.593976   16.381399   22.277055 H          1 MOL1         0.0700
      13    H7      18.598990   17.673033   22.981770 H          1 MOL1         0.0700
@<TRIPOS>BOND
    1     1     2    1
    2     1     3    2
    3     1     4    1
    4     4     5    1
    5     4     6    1
    6     4     7    1
    7     7     8    1
    8     7     9    1
    9     7    10    1
   10    10    11    1
   11    10    12    1
   12    10    13    1
@<TRIPOS>SUBSTRUCTURE
       1 MOL1            1 RESIDUE      1      MOL     
@<SCITEGIC>MOL_PROPERTY
VConf Rank
SciTegic.value.IntegerValue
257

@<SCITEGIC>MOL_PROPERTY
Conf_Id
SciTegic.value.IntegerValue
0

@<SCITEGIC>MOL_PROPERTY
Delta U+W
SciTegic.value.DoubleValue
0.000

@<SCITEGIC>MOL_PROPERTY
U+W
SciTegic.value.DoubleValue
-58.332

@<SCITEGIC>MOL_PROPERTY
Grad RMS
SciTegic.value.DoubleValue
0.000000

@<SCITEGIC>MOL_PROPERTY
U
SciTegic.value.DoubleValue
8.390

@<SCITEGIC>MOL_PROPERTY
W
SciTegic.value.DoubleValue
-66.722

@<SCITEGIC>MOL_PROPERTY
W(PB)
SciTegic.value.DoubleValue
-68.455

@<SCITEGIC>MOL_PROPERTY
W(SA)
SciTegic.value.DoubleValue
1.733

@<SCITEGIC>MOL_PROPERTY
Valence
SciTegic.value.DoubleValue
6.333

@<SCITEGIC>MOL_PROPERTY
Coulomb
SciTegic.value.DoubleValue
1.215

@<SCITEGIC>MOL_PROPERTY
VdW
SciTegic.value.DoubleValue
0.842

@<SCITEGIC>MOL_PROPERTY
VdW6
SciTegic.value.DoubleValue
-3.344

@<SCITEGIC>MOL_PROPERTY
VdW12
SciTegic.value.DoubleValue
4.186

@<SCITEGIC>MOL_PROPERTY
Bond
SciTegic.value.DoubleValue
0.091

@<SCITEGIC>MOL_PROPERTY
Angle
SciTegic.value.DoubleValue
2.713

@<SCITEGIC>MOL_PROPERTY
Pdih
SciTegic.value.DoubleValue
3.529

@<SCITEGIC>MOL_PROPERTY
Idih
SciTegic.value.DoubleValue
0.000

@<SCITEGIC>MOL_PROPERTY
Tether
SciTegic.value.DoubleValue
0.000

@<TRIPOS>MOLECULE
guest-6_confgen4.mol2 : confsearch ligand conformer 258
          13          12           1
SMALL
USER_CHARGES
 
@<TRIPOS>ATOM
       1    C1      19.736558   20.398724   23.428538 C.2        1 MOL1         0.6021
       2    O1      20.415350   21.405076   23.385426 O.co2      1 MOL1        -0.6904
       3    O2      19.287828   19.935597   24.457866 O.co2      1 MOL1        -0.6904
       4    C2      19.447903   19.666831   22.122204 C.3        1 MOL1        -0.2102
       5    H1      19.388577   20.411813   21.319396 H          1 MOL1         0.0687
       6    H2      18.458741   19.200010   22.203790 H          1 MOL1         0.0687
       7    C3      20.514401   18.598573   21.779780 C.3        1 MOL1        -0.1974
       8    H3      21.501981   19.075746   21.710410 H          1 MOL1         0.0689
       9    H4      20.571877   17.863658   22.594900 H          1 MOL1         0.0689
      10    C4      20.194197   17.877597   20.455033 C.3        1 MOL1        -0.2987
      11    H5      20.960719   17.124735   20.229416 H          1 MOL1         0.0700
      12    H6      19.223631   17.367198   20.510266 H          1 MOL1         0.0700
      13    H7      20.160912   18.588580   19.618999 H          1 MOL1         0.0700
@<TRIPOS>BOND
    1     1     2    1
    2     1     3    2
    3     1     4    1
    4     4     5    1
    5     4     6    1
    6     4     7    1
    7     7     8    1
    8     7     9    1
    9     7    10    1
   10    10    11    1
   11    10    12    1
   12    10    13    1
@<TRIPOS>SUBSTRUCTURE
       1 MOL1            1 RESIDUE      1      MOL     
@<SCITEGIC>MOL_PROPERTY
VConf Rank
SciTegic.value.IntegerValue
258

@<SCITEGIC>MOL_PROPERTY
Conf_Id
SciTegic.value.IntegerValue
1

@<SCITEGIC>MOL_PROPERTY
Delta U+W
SciTegic.value.DoubleValue
-1.339

@<SCITEGIC>MOL_PROPERTY
U+W
SciTegic.value.DoubleValue
-59.672

@<SCITEGIC>MOL_PROPERTY
Grad RMS
SciTegic.value.DoubleValue
0.000000

@<SCITEGIC>MOL_PROPERTY
U
SciTegic.value.DoubleValue
7.389

@<SCITEGIC>MOL_PROPERTY
W
SciTegic.value.DoubleValue
-67.061

@<SCITEGIC>MOL_PROPERTY
W(PB)
SciTegic.value.DoubleValue
-68.767

@<SCITEGIC>MOL_PROPERTY
W(SA)
SciTegic.value.DoubleValue
1.707

@<SCITEGIC>MOL_PROPERTY
Valence
SciTegic.value.DoubleValue
5.822

@<SCITEGIC>MOL_PROPERTY
Coulomb
SciTegic.value.DoubleValue
1.255

@<SCITEGIC>MOL_PROPERTY
VdW
SciTegic.value.DoubleValue
0.312

@<SCITEGIC>MOL_PROPERTY
VdW6
SciTegic.value.DoubleValue
-3.061

@<SCITEGIC>MOL_PROPERTY
VdW12
SciTegic.value.DoubleValue
3.372

@<SCITEGIC>MOL_PROPERTY
Bond
SciTegic.value.DoubleValue
0.059

@<SCITEGIC>MOL_PROPERTY
Angle
SciTegic.value.DoubleValue
2.241

@<SCITEGIC>MOL_PROPERTY
Pdih
SciTegic.value.DoubleValue
3.522

@<SCITEGIC>MOL_PROPERTY
Idih
SciTegic.value.DoubleValue
0.000

@<SCITEGIC>MOL_PROPERTY
Tether
SciTegic.value.DoubleValue
0.000

@<TRIPOS>MOLECULE
guest-6_confgen4.mol2 : confsearch ligand conformer 259
          13          12           1
SMALL
USER_CHARGES
 
@<TRIPOS>ATOM
       1    C1      18.467230   18.329976   21.762355 C.2        1 MOL1         0.6021
       2    O1      18.125206   17.442589   22.518438 O.co2      1 MOL1        -0.6904
       3    O2      17.731050   19.229547   21.409204 O.co2      1 MOL1        -0.6904
       4    C2      19.885979   18.290142   21.199956 C.3        1 MOL1        -0.2102
       5    H1      19.933106   18.941668   20.318718 H          1 MOL1         0.0687
       6    H2      20.069704   17.267961   20.848137 H          1 MOL1         0.0687
       7    C3      20.983963   18.689879   22.218770 C.3        1 MOL1        -0.1974
       8    H3      20.901582   18.058715   23.114743 H          1 MOL1         0.0689
       9    H4      21.971365   18.489149   21.781029 H          1 MOL1         0.0689
      10    C4      20.903640   20.177302   22.620079 C.3        1 MOL1        -0.2987
      11    H5      19.943834   20.404597   23.102715 H          1 MOL1         0.0700
      12    H6      21.705341   20.431461   23.325611 H          1 MOL1         0.0700
      13    H7      21.006186   20.827022   21.741023 H          1 MOL1         0.0700
@<TRIPOS>BOND
    1     1     2    1
    2     1     3    2
    3     1     4    1
    4     4     5    1
    5     4     6    1
    6     4     7    1
    7     7     8    1
    8     7     9    1
    9     7    10    1
   10    10    11    1
   11    10    12    1
   12    10    13    1
@<TRIPOS>SUBSTRUCTURE
       1 MOL1            1 RESIDUE      1      MOL     
@<SCITEGIC>MOL_PROPERTY
VConf Rank
SciTegic.value.IntegerValue
259

@<SCITEGIC>MOL_PROPERTY
Conf_Id
SciTegic.value.IntegerValue
4

@<SCITEGIC>MOL_PROPERTY
Delta U+W
SciTegic.value.DoubleValue
0.281

@<SCITEGIC>MOL_PROPERTY
U+W
SciTegic.value.DoubleValue
-58.051

@<SCITEGIC>MOL_PROPERTY
Grad RMS
SciTegic.value.DoubleValue
0.000000

@<SCITEGIC>MOL_PROPERTY
U
SciTegic.value.DoubleValue
9.781

@<SCITEGIC>MOL_PROPERTY
W
SciTegic.value.DoubleValue
-67.832

@<SCITEGIC>MOL_PROPERTY
W(PB)
SciTegic.value.DoubleValue
-69.535

@<SCITEGIC>MOL_PROPERTY
W(SA)
SciTegic.value.DoubleValue
1.703

@<SCITEGIC>MOL_PROPERTY
Valence
SciTegic.value.DoubleValue
6.123

@<SCITEGIC>MOL_PROPERTY
Coulomb
SciTegic.value.DoubleValue
3.449

@<SCITEGIC>MOL_PROPERTY
VdW
SciTegic.value.DoubleValue
0.209

@<SCITEGIC>MOL_PROPERTY
VdW6
SciTegic.value.DoubleValue
-3.762

@<SCITEGIC>MOL_PROPERTY
VdW12
SciTegic.value.DoubleValue
3.972

@<SCITEGIC>MOL_PROPERTY
Bond
SciTegic.value.DoubleValue
0.078

@<SCITEGIC>MOL_PROPERTY
Angle
SciTegic.value.DoubleValue
2.428

@<SCITEGIC>MOL_PROPERTY
Pdih
SciTegic.value.DoubleValue
3.616

@<SCITEGIC>MOL_PROPERTY
Idih
SciTegic.value.DoubleValue
0.002

@<SCITEGIC>MOL_PROPERTY
Tether
SciTegic.value.DoubleValue
0.000

@<TRIPOS>MOLECULE
guest-6_confgen4.mol2 : confsearch ligand conformer 260
          13          12           1
SMALL
USER_CHARGES
 
@<TRIPOS>ATOM
       1    C1      21.514601   18.195193   21.184061 C.2        1 MOL1         0.6021
       2    O1      21.802062   18.822232   20.184014 O.co2      1 MOL1        -0.6904
       3    O2      22.340155   17.683978   21.914279 O.co2      1 MOL1        -0.6904
       4    C2      20.038046   18.007877   21.523801 C.3        1 MOL1        -0.2102
       5    H1      19.885408   16.944494   21.743582 H          1 MOL1         0.0687
       6    H2      19.440671   18.235997   20.632515 H          1 MOL1         0.0687
       7    C3      19.550499   18.857780   22.725175 C.3        1 MOL1        -0.1974
       8    H3      18.530019   18.551078   22.992434 H          1 MOL1         0.0689
       9    H4      20.181585   18.652257   23.601196 H          1 MOL1         0.0689
      10    C4      19.558624   20.370064   22.420451 C.3        1 MOL1        -0.2987
      11    H5      18.915674   20.600640   21.560892 H          1 MOL1         0.0700
      12    H6      19.190034   20.940458   23.282941 H          1 MOL1         0.0700
      13    H7      20.573633   20.721126   22.191677 H          1 MOL1         0.0700
@<TRIPOS>BOND
    1     1     2    1
    2     1     3    2
    3     1     4    1
    4     4     5    1
    5     4     6    1
    6     4     7    1
    7     7     8    1
    8     7     9    1
    9     7    10    1
   10    10    11    1
   11    10    12    1
   12    10    13    1
@<TRIPOS>SUBSTRUCTURE
       1 MOL1            1 RESIDUE      1      MOL     
@<SCITEGIC>MOL_PROPERTY
VConf Rank
SciTegic.value.IntegerValue
260

@<SCITEGIC>MOL_PROPERTY
Conf_Id
SciTegic.value.IntegerValue
36

@<SCITEGIC>MOL_PROPERTY
Delta U+W
SciTegic.value.DoubleValue
0.272

@<SCITEGIC>MOL_PROPERTY
U+W
SciTegic.value.DoubleValue
-58.060

@<SCITEGIC>MOL_PROPERTY
Grad RMS
SciTegic.value.DoubleValue
0.000000

@<SCITEGIC>MOL_PROPERTY
U
SciTegic.value.DoubleValue
9.781

@<SCITEGIC>MOL_PROPERTY
W
SciTegic.value.DoubleValue
-67.841

@<SCITEGIC>MOL_PROPERTY
W(PB)
SciTegic.value.DoubleValue
-69.537

@<SCITEGIC>MOL_PROPERTY
W(SA)
SciTegic.value.DoubleValue
1.696

@<SCITEGIC>MOL_PROPERTY
Valence
SciTegic.value.DoubleValue
6.123

@<SCITEGIC>MOL_PROPERTY
Coulomb
SciTegic.value.DoubleValue
3.449

@<SCITEGIC>MOL_PROPERTY
VdW
SciTegic.value.DoubleValue
0.209

@<SCITEGIC>MOL_PROPERTY
VdW6
SciTegic.value.DoubleValue
-3.762

@<SCITEGIC>MOL_PROPERTY
VdW12
SciTegic.value.DoubleValue
3.972

@<SCITEGIC>MOL_PROPERTY
Bond
SciTegic.value.DoubleValue
0.078

@<SCITEGIC>MOL_PROPERTY
Angle
SciTegic.value.DoubleValue
2.428

@<SCITEGIC>MOL_PROPERTY
Pdih
SciTegic.value.DoubleValue
3.616

@<SCITEGIC>MOL_PROPERTY
Idih
SciTegic.value.DoubleValue
0.002

@<SCITEGIC>MOL_PROPERTY
Tether
SciTegic.value.DoubleValue
0.000

@<TRIPOS>MOLECULE
guest-6_confgen4.mol2 : confsearch ligand conformer 261
          13          12           1
SMALL
USER_CHARGES
 
@<TRIPOS>ATOM
       1    C1      20.631917   21.011385   21.455173 C.2        1 MOL1         0.6021
       2    O1      19.629237   21.445987   20.923118 O.co2      1 MOL1        -0.6904
       3    O2      21.623876   21.685191   21.647006 O.co2      1 MOL1        -0.6904
       4    C2      20.677798   19.552958   21.915139 C.3        1 MOL1        -0.2102
       5    H1      20.899834   19.554818   22.988934 H          1 MOL1         0.0687
       6    H2      21.528805   19.077578   21.413005 H          1 MOL1         0.0687
       7    C3      19.389081   18.731606   21.649536 C.3        1 MOL1        -0.1974
       8    H3      18.536993   19.211262   22.151164 H          1 MOL1         0.0689
       9    H4      19.166690   18.733497   20.573296 H          1 MOL1         0.0689
      10    C4      19.527954   17.277999   22.145091 C.3        1 MOL1        -0.2987
      11    H5      19.720045   17.247924   23.225702 H          1 MOL1         0.0700
      12    H6      18.607322   16.713090   21.948696 H          1 MOL1         0.0700
      13    H7      20.354840   16.766347   21.635192 H          1 MOL1         0.0700
@<TRIPOS>BOND
    1     1     2    1
    2     1     3    2
    3     1     4    1
    4     4     5    1
    5     4     6    1
    6     4     7    1
    7     7     8    1
    8     7     9    1
    9     7    10    1
   10    10    11    1
   11    10    12    1
   12    10    13    1
@<TRIPOS>SUBSTRUCTURE
       1 MOL1            1 RESIDUE      1      MOL     
@<SCITEGIC>MOL_PROPERTY
VConf Rank
SciTegic.value.IntegerValue
261

@<SCITEGIC>MOL_PROPERTY
Conf_Id
SciTegic.value.IntegerValue
0

@<SCITEGIC>MOL_PROPERTY
Delta U+W
SciTegic.value.DoubleValue
0.000

@<SCITEGIC>MOL_PROPERTY
U+W
SciTegic.value.DoubleValue
-58.332

@<SCITEGIC>MOL_PROPERTY
Grad RMS
SciTegic.value.DoubleValue
0.000000

@<SCITEGIC>MOL_PROPERTY
U
SciTegic.value.DoubleValue
8.390

@<SCITEGIC>MOL_PROPERTY
W
SciTegic.value.DoubleValue
-66.722

@<SCITEGIC>MOL_PROPERTY
W(PB)
SciTegic.value.DoubleValue
-68.455

@<SCITEGIC>MOL_PROPERTY
W(SA)
SciTegic.value.DoubleValue
1.733

@<SCITEGIC>MOL_PROPERTY
Valence
SciTegic.value.DoubleValue
6.333

@<SCITEGIC>MOL_PROPERTY
Coulomb
SciTegic.value.DoubleValue
1.215

@<SCITEGIC>MOL_PROPERTY
VdW
SciTegic.value.DoubleValue
0.842

@<SCITEGIC>MOL_PROPERTY
VdW6
SciTegic.value.DoubleValue
-3.344

@<SCITEGIC>MOL_PROPERTY
VdW12
SciTegic.value.DoubleValue
4.186

@<SCITEGIC>MOL_PROPERTY
Bond
SciTegic.value.DoubleValue
0.091

@<SCITEGIC>MOL_PROPERTY
Angle
SciTegic.value.DoubleValue
2.713

@<SCITEGIC>MOL_PROPERTY
Pdih
SciTegic.value.DoubleValue
3.529

@<SCITEGIC>MOL_PROPERTY
Idih
SciTegic.value.DoubleValue
0.000

@<SCITEGIC>MOL_PROPERTY
Tether
SciTegic.value.DoubleValue
0.000

@<TRIPOS>MOLECULE
guest-6_confgen4.mol2 : confsearch ligand conformer 262
          13          12           1
SMALL
USER_CHARGES
 
@<TRIPOS>ATOM
       1    C1      21.780785   18.880660   20.724727 C.2        1 MOL1         0.6021
       2    O1      21.754818   18.126647   19.772807 O.co2      1 MOL1        -0.6904
       3    O2      22.799682   19.186215   21.311111 O.co2      1 MOL1        -0.6904
       4    C2      20.460825   19.460099   21.222175 C.3        1 MOL1        -0.2102
       5    H1      19.796398   19.586325   20.358680 H          1 MOL1         0.0687
       6    H2      20.658057   20.460120   21.627239 H          1 MOL1         0.0687
       7    C3      19.778841   18.576165   22.294278 C.3        1 MOL1        -0.1974
       8    H3      19.595244   17.574586   21.880813 H          1 MOL1         0.0689
       9    H4      20.457005   18.448655   23.149649 H          1 MOL1         0.0689
      10    C4      18.448381   19.188679   22.775935 C.3        1 MOL1        -0.2987
      11    H5      17.980254   18.548390   23.534979 H          1 MOL1         0.0700
      12    H6      18.610379   20.179206   23.221096 H          1 MOL1         0.0700
      13    H7      17.742007   19.298390   21.942535 H          1 MOL1         0.0700
@<TRIPOS>BOND
    1     1     2    1
    2     1     3    2
    3     1     4    1
    4     4     5    1
    5     4     6    1
    6     4     7    1
    7     7     8    1
    8     7     9    1
    9     7    10    1
   10    10    11    1
   11    10    12    1
   12    10    13    1
@<TRIPOS>SUBSTRUCTURE
       1 MOL1            1 RESIDUE      1      MOL     
@<SCITEGIC>MOL_PROPERTY
VConf Rank
SciTegic.value.IntegerValue
262

@<SCITEGIC>MOL_PROPERTY
Conf_Id
SciTegic.value.IntegerValue
1

@<SCITEGIC>MOL_PROPERTY
Delta U+W
SciTegic.value.DoubleValue
-1.339

@<SCITEGIC>MOL_PROPERTY
U+W
SciTegic.value.DoubleValue
-59.672

@<SCITEGIC>MOL_PROPERTY
Grad RMS
SciTegic.value.DoubleValue
0.000000

@<SCITEGIC>MOL_PROPERTY
U
SciTegic.value.DoubleValue
7.389

@<SCITEGIC>MOL_PROPERTY
W
SciTegic.value.DoubleValue
-67.061

@<SCITEGIC>MOL_PROPERTY
W(PB)
SciTegic.value.DoubleValue
-68.767

@<SCITEGIC>MOL_PROPERTY
W(SA)
SciTegic.value.DoubleValue
1.707

@<SCITEGIC>MOL_PROPERTY
Valence
SciTegic.value.DoubleValue
5.822

@<SCITEGIC>MOL_PROPERTY
Coulomb
SciTegic.value.DoubleValue
1.255

@<SCITEGIC>MOL_PROPERTY
VdW
SciTegic.value.DoubleValue
0.312

@<SCITEGIC>MOL_PROPERTY
VdW6
SciTegic.value.DoubleValue
-3.061

@<SCITEGIC>MOL_PROPERTY
VdW12
SciTegic.value.DoubleValue
3.372

@<SCITEGIC>MOL_PROPERTY
Bond
SciTegic.value.DoubleValue
0.059

@<SCITEGIC>MOL_PROPERTY
Angle
SciTegic.value.DoubleValue
2.241

@<SCITEGIC>MOL_PROPERTY
Pdih
SciTegic.value.DoubleValue
3.522

@<SCITEGIC>MOL_PROPERTY
Idih
SciTegic.value.DoubleValue
0.000

@<SCITEGIC>MOL_PROPERTY
Tether
SciTegic.value.DoubleValue
0.000

@<TRIPOS>MOLECULE
guest-6_confgen4.mol2 : confsearch ligand conformer 263
          13          12           1
SMALL
USER_CHARGES
 
@<TRIPOS>ATOM
       1    C1      21.872731   18.844169   22.373520 C.2        1 MOL1         0.6021
       2    O1      22.267184   17.748969   22.721429 O.co2      1 MOL1        -0.6904
       3    O2      22.500772   19.579561   21.638218 O.co2      1 MOL1        -0.6904
       4    C2      20.533755   19.334279   22.919105 C.3        1 MOL1        -0.2102
       5    H1      20.475661   20.421253   22.783455 H          1 MOL1         0.0687
       6    H2      20.533752   19.149674   23.999987 H          1 MOL1         0.0687
       7    C3      19.298815   18.649640   22.279158 C.3        1 MOL1        -0.1974
       8    H3      19.387306   17.559198   22.384170 H          1 MOL1         0.0689
       9    H4      18.396322   18.947552   22.830182 H          1 MOL1         0.0689
      10    C4      19.124975   19.017357   20.791041 C.3        1 MOL1        -0.2987
      11    H5      19.992230   18.693354   20.200517 H          1 MOL1         0.0700
      12    H6      18.232332   18.532779   20.374546 H          1 MOL1         0.0700
      13    H7      19.012349   20.102223   20.665449 H          1 MOL1         0.0700
@<TRIPOS>BOND
    1     1     2    1
    2     1     3    2
    3     1     4    1
    4     4     5    1
    5     4     6    1
    6     4     7    1
    7     7     8    1
    8     7     9    1
    9     7    10    1
   10    10    11    1
   11    10    12    1
   12    10    13    1
@<TRIPOS>SUBSTRUCTURE
       1 MOL1            1 RESIDUE      1      MOL     
@<SCITEGIC>MOL_PROPERTY
VConf Rank
SciTegic.value.IntegerValue
263

@<SCITEGIC>MOL_PROPERTY
Conf_Id
SciTegic.value.IntegerValue
4

@<SCITEGIC>MOL_PROPERTY
Delta U+W
SciTegic.value.DoubleValue
0.281

@<SCITEGIC>MOL_PROPERTY
U+W
SciTegic.value.DoubleValue
-58.051

@<SCITEGIC>MOL_PROPERTY
Grad RMS
SciTegic.value.DoubleValue
0.000000

@<SCITEGIC>MOL_PROPERTY
U
SciTegic.value.DoubleValue
9.781

@<SCITEGIC>MOL_PROPERTY
W
SciTegic.value.DoubleValue
-67.832

@<SCITEGIC>MOL_PROPERTY
W(PB)
SciTegic.value.DoubleValue
-69.535

@<SCITEGIC>MOL_PROPERTY
W(SA)
SciTegic.value.DoubleValue
1.703

@<SCITEGIC>MOL_PROPERTY
Valence
SciTegic.value.DoubleValue
6.123

@<SCITEGIC>MOL_PROPERTY
Coulomb
SciTegic.value.DoubleValue
3.449

@<SCITEGIC>MOL_PROPERTY
VdW
SciTegic.value.DoubleValue
0.209

@<SCITEGIC>MOL_PROPERTY
VdW6
SciTegic.value.DoubleValue
-3.762

@<SCITEGIC>MOL_PROPERTY
VdW12
SciTegic.value.DoubleValue
3.972

@<SCITEGIC>MOL_PROPERTY
Bond
SciTegic.value.DoubleValue
0.078

@<SCITEGIC>MOL_PROPERTY
Angle
SciTegic.value.DoubleValue
2.428

@<SCITEGIC>MOL_PROPERTY
Pdih
SciTegic.value.DoubleValue
3.616

@<SCITEGIC>MOL_PROPERTY
Idih
SciTegic.value.DoubleValue
0.002

@<SCITEGIC>MOL_PROPERTY
Tether
SciTegic.value.DoubleValue
0.000

@<TRIPOS>MOLECULE
guest-6_confgen4.mol2 : confsearch ligand conformer 264
          13          12           1
SMALL
USER_CHARGES
 
@<TRIPOS>ATOM
       1    C1      18.840486   18.454733   23.144702 C.2        1 MOL1         0.6021
       2    O1      19.231954   18.608382   24.284461 O.co2      1 MOL1        -0.6904
       3    O2      17.695229   18.662383   22.796328 O.co2      1 MOL1        -0.6904
       4    C2      19.828643   17.939587   22.101200 C.3        1 MOL1        -0.2102
       5    H1      19.338556   17.118979   21.563794 H          1 MOL1         0.0687
       6    H2      20.693313   17.507030   22.619396 H          1 MOL1         0.0687
       7    C3      20.296992   19.013582   21.086054 C.3        1 MOL1        -0.1974
       8    H3      20.879053   18.527787   20.291019 H          1 MOL1         0.0689
       9    H4      19.421434   19.469406   20.602790 H          1 MOL1         0.0689
      10    C4      21.159502   20.110870   21.743292 C.3        1 MOL1        -0.2987
      11    H5      22.052536   19.678886   22.213688 H          1 MOL1         0.0700
      12    H6      21.490212   20.842936   20.995091 H          1 MOL1         0.0700
      13    H7      20.593102   20.648615   22.515203 H          1 MOL1         0.0700
@<TRIPOS>BOND
    1     1     2    1
    2     1     3    2
    3     1     4    1
    4     4     5    1
    5     4     6    1
    6     4     7    1
    7     7     8    1
    8     7     9    1
    9     7    10    1
   10    10    11    1
   11    10    12    1
   12    10    13    1
@<TRIPOS>SUBSTRUCTURE
       1 MOL1            1 RESIDUE      1      MOL     
@<SCITEGIC>MOL_PROPERTY
VConf Rank
SciTegic.value.IntegerValue
264

@<SCITEGIC>MOL_PROPERTY
Conf_Id
SciTegic.value.IntegerValue
36

@<SCITEGIC>MOL_PROPERTY
Delta U+W
SciTegic.value.DoubleValue
0.272

@<SCITEGIC>MOL_PROPERTY
U+W
SciTegic.value.DoubleValue
-58.060

@<SCITEGIC>MOL_PROPERTY
Grad RMS
SciTegic.value.DoubleValue
0.000000

@<SCITEGIC>MOL_PROPERTY
U
SciTegic.value.DoubleValue
9.781

@<SCITEGIC>MOL_PROPERTY
W
SciTegic.value.DoubleValue
-67.841

@<SCITEGIC>MOL_PROPERTY
W(PB)
SciTegic.value.DoubleValue
-69.537

@<SCITEGIC>MOL_PROPERTY
W(SA)
SciTegic.value.DoubleValue
1.696

@<SCITEGIC>MOL_PROPERTY
Valence
SciTegic.value.DoubleValue
6.123

@<SCITEGIC>MOL_PROPERTY
Coulomb
SciTegic.value.DoubleValue
3.449

@<SCITEGIC>MOL_PROPERTY
VdW
SciTegic.value.DoubleValue
0.209

@<SCITEGIC>MOL_PROPERTY
VdW6
SciTegic.value.DoubleValue
-3.762

@<SCITEGIC>MOL_PROPERTY
VdW12
SciTegic.value.DoubleValue
3.972

@<SCITEGIC>MOL_PROPERTY
Bond
SciTegic.value.DoubleValue
0.078

@<SCITEGIC>MOL_PROPERTY
Angle
SciTegic.value.DoubleValue
2.428

@<SCITEGIC>MOL_PROPERTY
Pdih
SciTegic.value.DoubleValue
3.616

@<SCITEGIC>MOL_PROPERTY
Idih
SciTegic.value.DoubleValue
0.002

@<SCITEGIC>MOL_PROPERTY
Tether
SciTegic.value.DoubleValue
0.000

@<TRIPOS>MOLECULE
guest-6_confgen4.mol2 : confsearch ligand conformer 265
          13          12           1
SMALL
USER_CHARGES
 
@<TRIPOS>ATOM
       1    C1      18.460746   19.693152   23.097039 C.2        1 MOL1         0.6021
       2    O1      17.489628   19.306275   22.476890 O.co2      1 MOL1        -0.6904
       3    O2      18.377177   20.297948   24.146816 O.co2      1 MOL1        -0.6904
       4    C2      19.866068   19.421700   22.556605 C.3        1 MOL1        -0.2102
       5    H1      20.411955   18.865316   23.327827 H          1 MOL1         0.0687
       6    H2      20.367291   20.390607   22.445552 H          1 MOL1         0.0687
       7    C3      19.923513   18.646843   21.214125 C.3        1 MOL1        -0.1974
       8    H3      19.418165   17.677465   21.326752 H          1 MOL1         0.0689
       9    H4      19.373378   19.204598   20.443401 H          1 MOL1         0.0689
      10    C4      21.376171   18.420405   20.748995 C.3        1 MOL1        -0.2987
      11    H5      21.939458   17.837325   21.489433 H          1 MOL1         0.0700
      12    H6      21.396523   17.871280   19.798572 H          1 MOL1         0.0700
      13    H7      21.894319   19.376731   20.599044 H          1 MOL1         0.0700
@<TRIPOS>BOND
    1     1     2    1
    2     1     3    2
    3     1     4    1
    4     4     5    1
    5     4     6    1
    6     4     7    1
    7     7     8    1
    8     7     9    1
    9     7    10    1
   10    10    11    1
   11    10    12    1
   12    10    13    1
@<TRIPOS>SUBSTRUCTURE
       1 MOL1            1 RESIDUE      1      MOL     
@<SCITEGIC>MOL_PROPERTY
VConf Rank
SciTegic.value.IntegerValue
265

@<SCITEGIC>MOL_PROPERTY
Conf_Id
SciTegic.value.IntegerValue
0

@<SCITEGIC>MOL_PROPERTY
Delta U+W
SciTegic.value.DoubleValue
0.000

@<SCITEGIC>MOL_PROPERTY
U+W
SciTegic.value.DoubleValue
-58.332

@<SCITEGIC>MOL_PROPERTY
Grad RMS
SciTegic.value.DoubleValue
0.000000

@<SCITEGIC>MOL_PROPERTY
U
SciTegic.value.DoubleValue
8.390

@<SCITEGIC>MOL_PROPERTY
W
SciTegic.value.DoubleValue
-66.722

@<SCITEGIC>MOL_PROPERTY
W(PB)
SciTegic.value.DoubleValue
-68.455

@<SCITEGIC>MOL_PROPERTY
W(SA)
SciTegic.value.DoubleValue
1.733

@<SCITEGIC>MOL_PROPERTY
Valence
SciTegic.value.DoubleValue
6.333

@<SCITEGIC>MOL_PROPERTY
Coulomb
SciTegic.value.DoubleValue
1.215

@<SCITEGIC>MOL_PROPERTY
VdW
SciTegic.value.DoubleValue
0.842

@<SCITEGIC>MOL_PROPERTY
VdW6
SciTegic.value.DoubleValue
-3.344

@<SCITEGIC>MOL_PROPERTY
VdW12
SciTegic.value.DoubleValue
4.186

@<SCITEGIC>MOL_PROPERTY
Bond
SciTegic.value.DoubleValue
0.091

@<SCITEGIC>MOL_PROPERTY
Angle
SciTegic.value.DoubleValue
2.713

@<SCITEGIC>MOL_PROPERTY
Pdih
SciTegic.value.DoubleValue
3.529

@<SCITEGIC>MOL_PROPERTY
Idih
SciTegic.value.DoubleValue
0.000

@<SCITEGIC>MOL_PROPERTY
Tether
SciTegic.value.DoubleValue
0.000

@<TRIPOS>MOLECULE
guest-6_confgen4.mol2 : confsearch ligand conformer 266
          13          12           1
SMALL
USER_CHARGES
 
@<TRIPOS>ATOM
       1    C1      21.568195   18.380925   23.070538 C.2        1 MOL1         0.6021
       2    O1      22.525163   17.894504   22.502234 O.co2      1 MOL1        -0.6904
       3    O2      21.274874   18.133110   24.222888 O.co2      1 MOL1        -0.6904
       4    C2      20.676156   19.339857   22.289375 C.3        1 MOL1        -0.2102
       5    H1      21.304065   19.882973   21.572595 H          1 MOL1         0.0687
       6    H2      20.273020   20.079755   22.991551 H          1 MOL1         0.0687
       7    C3      19.520922   18.623158   21.549357 C.3        1 MOL1        -0.1974
       8    H3      19.936075   17.877930   20.856461 H          1 MOL1         0.0689
       9    H4      18.904774   18.074864   22.275689 H          1 MOL1         0.0689
      10    C4      18.638625   19.618904   20.770042 C.3        1 MOL1        -0.2987
      11    H5      17.825943   19.092585   20.252551 H          1 MOL1         0.0700
      12    H6      18.187828   20.357028   21.446437 H          1 MOL1         0.0700
      13    H7      19.227036   20.158544   20.016306 H          1 MOL1         0.0700
@<TRIPOS>BOND
    1     1     2    1
    2     1     3    2
    3     1     4    1
    4     4     5    1
    5     4     6    1
    6     4     7    1
    7     7     8    1
    8     7     9    1
    9     7    10    1
   10    10    11    1
   11    10    12    1
   12    10    13    1
@<TRIPOS>SUBSTRUCTURE
       1 MOL1            1 RESIDUE      1      MOL     
@<SCITEGIC>MOL_PROPERTY
VConf Rank
SciTegic.value.IntegerValue
266

@<SCITEGIC>MOL_PROPERTY
Conf_Id
SciTegic.value.IntegerValue
1

@<SCITEGIC>MOL_PROPERTY
Delta U+W
SciTegic.value.DoubleValue
-1.339

@<SCITEGIC>MOL_PROPERTY
U+W
SciTegic.value.DoubleValue
-59.672

@<SCITEGIC>MOL_PROPERTY
Grad RMS
SciTegic.value.DoubleValue
0.000000

@<SCITEGIC>MOL_PROPERTY
U
SciTegic.value.DoubleValue
7.389

@<SCITEGIC>MOL_PROPERTY
W
SciTegic.value.DoubleValue
-67.061

@<SCITEGIC>MOL_PROPERTY
W(PB)
SciTegic.value.DoubleValue
-68.767

@<SCITEGIC>MOL_PROPERTY
W(SA)
SciTegic.value.DoubleValue
1.707

@<SCITEGIC>MOL_PROPERTY
Valence
SciTegic.value.DoubleValue
5.822

@<SCITEGIC>MOL_PROPERTY
Coulomb
SciTegic.value.DoubleValue
1.255

@<SCITEGIC>MOL_PROPERTY
VdW
SciTegic.value.DoubleValue
0.312

@<SCITEGIC>MOL_PROPERTY
VdW6
SciTegic.value.DoubleValue
-3.061

@<SCITEGIC>MOL_PROPERTY
VdW12
SciTegic.value.DoubleValue
3.372

@<SCITEGIC>MOL_PROPERTY
Bond
SciTegic.value.DoubleValue
0.059

@<SCITEGIC>MOL_PROPERTY
Angle
SciTegic.value.DoubleValue
2.241

@<SCITEGIC>MOL_PROPERTY
Pdih
SciTegic.value.DoubleValue
3.522

@<SCITEGIC>MOL_PROPERTY
Idih
SciTegic.value.DoubleValue
0.000

@<SCITEGIC>MOL_PROPERTY
Tether
SciTegic.value.DoubleValue
0.000

@<TRIPOS>MOLECULE
guest-6_confgen4.mol2 : confsearch ligand conformer 267
          13          12           1
SMALL
USER_CHARGES
 
@<TRIPOS>ATOM
       1    C1      20.312833   20.685806   21.524070 C.2        1 MOL1         0.6021
       2    O1      19.663774   21.489028   22.164112 O.co2      1 MOL1        -0.6904
       3    O2      21.454489   20.885696   21.159966 O.co2      1 MOL1        -0.6904
       4    C2      19.644012   19.372062   21.127227 C.3        1 MOL1        -0.2102
       5    H1      20.218802   18.917643   20.310890 H          1 MOL1         0.0687
       6    H2      18.656023   19.618018   20.720078 H          1 MOL1         0.0687
       7    C3      19.484420   18.363476   22.293685 C.3        1 MOL1        -0.1974
       8    H3      18.943499   18.841987   23.122150 H          1 MOL1         0.0689
       9    H4      18.865588   17.520090   21.958096 H          1 MOL1         0.0689
      10    C4      20.839246   17.825011   22.798096 C.3        1 MOL1        -0.2987
      11    H5      21.468446   18.638326   23.183395 H          1 MOL1         0.0700
      12    H6      20.689790   17.100149   23.608857 H          1 MOL1         0.0700
      13    H7      21.387262   17.322717   21.990153 H          1 MOL1         0.0700
@<TRIPOS>BOND
    1     1     2    1
    2     1     3    2
    3     1     4    1
    4     4     5    1
    5     4     6    1
    6     4     7    1
    7     7     8    1
    8     7     9    1
    9     7    10    1
   10    10    11    1
   11    10    12    1
   12    10    13    1
@<TRIPOS>SUBSTRUCTURE
       1 MOL1            1 RESIDUE      1      MOL     
@<SCITEGIC>MOL_PROPERTY
VConf Rank
SciTegic.value.IntegerValue
267

@<SCITEGIC>MOL_PROPERTY
Conf_Id
SciTegic.value.IntegerValue
4

@<SCITEGIC>MOL_PROPERTY
Delta U+W
SciTegic.value.DoubleValue
0.281

@<SCITEGIC>MOL_PROPERTY
U+W
SciTegic.value.DoubleValue
-58.051

@<SCITEGIC>MOL_PROPERTY
Grad RMS
SciTegic.value.DoubleValue
0.000000

@<SCITEGIC>MOL_PROPERTY
U
SciTegic.value.DoubleValue
9.781

@<SCITEGIC>MOL_PROPERTY
W
SciTegic.value.DoubleValue
-67.832

@<SCITEGIC>MOL_PROPERTY
W(PB)
SciTegic.value.DoubleValue
-69.535

@<SCITEGIC>MOL_PROPERTY
W(SA)
SciTegic.value.DoubleValue
1.703

@<SCITEGIC>MOL_PROPERTY
Valence
SciTegic.value.DoubleValue
6.123

@<SCITEGIC>MOL_PROPERTY
Coulomb
SciTegic.value.DoubleValue
3.449

@<SCITEGIC>MOL_PROPERTY
VdW
SciTegic.value.DoubleValue
0.209

@<SCITEGIC>MOL_PROPERTY
VdW6
SciTegic.value.DoubleValue
-3.762

@<SCITEGIC>MOL_PROPERTY
VdW12
SciTegic.value.DoubleValue
3.972

@<SCITEGIC>MOL_PROPERTY
Bond
SciTegic.value.DoubleValue
0.078

@<SCITEGIC>MOL_PROPERTY
Angle
SciTegic.value.DoubleValue
2.428

@<SCITEGIC>MOL_PROPERTY
Pdih
SciTegic.value.DoubleValue
3.616

@<SCITEGIC>MOL_PROPERTY
Idih
SciTegic.value.DoubleValue
0.002

@<SCITEGIC>MOL_PROPERTY
Tether
SciTegic.value.DoubleValue
0.000

@<TRIPOS>MOLECULE
guest-6_confgen4.mol2 : confsearch ligand conformer 268
          13          12           1
SMALL
USER_CHARGES
 
@<TRIPOS>ATOM
       1    C1      21.008387   18.529261   20.505458 C.2        1 MOL1         0.6021
       2    O1      20.218263   18.251740   19.625349 O.co2      1 MOL1        -0.6904
       3    O2      22.046370   19.129245   20.308715 O.co2      1 MOL1        -0.6904
       4    C2      20.700511   18.069918   21.928462 C.3        1 MOL1        -0.2102
       5    H1      21.606874   17.594424   22.321903 H          1 MOL1         0.0687
       6    H2      19.927465   17.292745   21.887373 H          1 MOL1         0.0687
       7    C3      20.260976   19.210240   22.882303 C.3        1 MOL1        -0.1974
       8    H3      20.207899   18.820929   23.908213 H          1 MOL1         0.0689
       9    H4      21.022944   20.002278   22.884194 H          1 MOL1         0.0689
      10    C4      18.890920   19.806222   22.498013 C.3        1 MOL1        -0.2987
      11    H5      18.109708   19.034915   22.511592 H          1 MOL1         0.0700
      12    H6      18.600924   20.595770   23.203429 H          1 MOL1         0.0700
      13    H7      18.919770   20.245489   21.492012 H          1 MOL1         0.0700
@<TRIPOS>BOND
    1     1     2    1
    2     1     3    2
    3     1     4    1
    4     4     5    1
    5     4     6    1
    6     4     7    1
    7     7     8    1
    8     7     9    1
    9     7    10    1
   10    10    11    1
   11    10    12    1
   12    10    13    1
@<TRIPOS>SUBSTRUCTURE
       1 MOL1            1 RESIDUE      1      MOL     
@<SCITEGIC>MOL_PROPERTY
VConf Rank
SciTegic.value.IntegerValue
268

@<SCITEGIC>MOL_PROPERTY
Conf_Id
SciTegic.value.IntegerValue
36

@<SCITEGIC>MOL_PROPERTY
Delta U+W
SciTegic.value.DoubleValue
0.272

@<SCITEGIC>MOL_PROPERTY
U+W
SciTegic.value.DoubleValue
-58.060

@<SCITEGIC>MOL_PROPERTY
Grad RMS
SciTegic.value.DoubleValue
0.000000

@<SCITEGIC>MOL_PROPERTY
U
SciTegic.value.DoubleValue
9.781

@<SCITEGIC>MOL_PROPERTY
W
SciTegic.value.DoubleValue
-67.841

@<SCITEGIC>MOL_PROPERTY
W(PB)
SciTegic.value.DoubleValue
-69.537

@<SCITEGIC>MOL_PROPERTY
W(SA)
SciTegic.value.DoubleValue
1.696

@<SCITEGIC>MOL_PROPERTY
Valence
SciTegic.value.DoubleValue
6.123

@<SCITEGIC>MOL_PROPERTY
Coulomb
SciTegic.value.DoubleValue
3.449

@<SCITEGIC>MOL_PROPERTY
VdW
SciTegic.value.DoubleValue
0.209

@<SCITEGIC>MOL_PROPERTY
VdW6
SciTegic.value.DoubleValue
-3.762

@<SCITEGIC>MOL_PROPERTY
VdW12
SciTegic.value.DoubleValue
3.972

@<SCITEGIC>MOL_PROPERTY
Bond
SciTegic.value.DoubleValue
0.078

@<SCITEGIC>MOL_PROPERTY
Angle
SciTegic.value.DoubleValue
2.428

@<SCITEGIC>MOL_PROPERTY
Pdih
SciTegic.value.DoubleValue
3.616

@<SCITEGIC>MOL_PROPERTY
Idih
SciTegic.value.DoubleValue
0.002

@<SCITEGIC>MOL_PROPERTY
Tether
SciTegic.value.DoubleValue
0.000

@<TRIPOS>MOLECULE
guest-6_confgen4.mol2 : confsearch ligand conformer 269
          13          12           1
SMALL
USER_CHARGES
 
@<TRIPOS>ATOM
       1    C1      21.734198   19.341309   20.595200 C.2        1 MOL1         0.6021
       2    O1      21.192776   19.647227   19.550879 O.co2      1 MOL1        -0.6904
       3    O2      22.940662   19.293951   20.725572 O.co2      1 MOL1        -0.6904
       4    C2      20.884629   18.994313   21.819335 C.3        1 MOL1        -0.2102
       5    H1      21.178541   19.676186   22.626182 H          1 MOL1         0.0687
       6    H2      21.164982   17.982898   22.136791 H          1 MOL1         0.0687
       7    C3      19.350072   19.068335   21.605763 C.3        1 MOL1        -0.1974
       8    H3      19.071591   20.081862   21.284879 H          1 MOL1         0.0689
       9    H4      19.058018   18.386541   20.794827 H          1 MOL1         0.0689
      10    C4      18.578133   18.703345   22.889791 C.3        1 MOL1        -0.2987
      11    H5      18.829634   19.390673   23.708235 H          1 MOL1         0.0700
      12    H6      17.495153   18.761254   22.719328 H          1 MOL1         0.0700
      13    H7      18.816003   17.681751   23.214269 H          1 MOL1         0.0700
@<TRIPOS>BOND
    1     1     2    1
    2     1     3    2
    3     1     4    1
    4     4     5    1
    5     4     6    1
    6     4     7    1
    7     7     8    1
    8     7     9    1
    9     7    10    1
   10    10    11    1
   11    10    12    1
   12    10    13    1
@<TRIPOS>SUBSTRUCTURE
       1 MOL1            1 RESIDUE      1      MOL     
@<SCITEGIC>MOL_PROPERTY
VConf Rank
SciTegic.value.IntegerValue
269

@<SCITEGIC>MOL_PROPERTY
Conf_Id
SciTegic.value.IntegerValue
0

@<SCITEGIC>MOL_PROPERTY
Delta U+W
SciTegic.value.DoubleValue
0.000

@<SCITEGIC>MOL_PROPERTY
U+W
SciTegic.value.DoubleValue
-58.332

@<SCITEGIC>MOL_PROPERTY
Grad RMS
SciTegic.value.DoubleValue
0.000000

@<SCITEGIC>MOL_PROPERTY
U
SciTegic.value.DoubleValue
8.390

@<SCITEGIC>MOL_PROPERTY
W
SciTegic.value.DoubleValue
-66.722

@<SCITEGIC>MOL_PROPERTY
W(PB)
SciTegic.value.DoubleValue
-68.455

@<SCITEGIC>MOL_PROPERTY
W(SA)
SciTegic.value.DoubleValue
1.733

@<SCITEGIC>MOL_PROPERTY
Valence
SciTegic.value.DoubleValue
6.333

@<SCITEGIC>MOL_PROPERTY
Coulomb
SciTegic.value.DoubleValue
1.215

@<SCITEGIC>MOL_PROPERTY
VdW
SciTegic.value.DoubleValue
0.842

@<SCITEGIC>MOL_PROPERTY
VdW6
SciTegic.value.DoubleValue
-3.344

@<SCITEGIC>MOL_PROPERTY
VdW12
SciTegic.value.DoubleValue
4.186

@<SCITEGIC>MOL_PROPERTY
Bond
SciTegic.value.DoubleValue
0.091

@<SCITEGIC>MOL_PROPERTY
Angle
SciTegic.value.DoubleValue
2.713

@<SCITEGIC>MOL_PROPERTY
Pdih
SciTegic.value.DoubleValue
3.529

@<SCITEGIC>MOL_PROPERTY
Idih
SciTegic.value.DoubleValue
0.000

@<SCITEGIC>MOL_PROPERTY
Tether
SciTegic.value.DoubleValue
0.000

@<TRIPOS>MOLECULE
guest-6_confgen4.mol2 : confsearch ligand conformer 270
          13          12           1
SMALL
USER_CHARGES
 
@<TRIPOS>ATOM
       1    C1      18.845711   18.603143   20.111050 C.2        1 MOL1         0.6021
       2    O1      17.845507   19.273409   19.950747 O.co2      1 MOL1        -0.6904
       3    O2      18.992239   17.493161   19.640062 O.co2      1 MOL1        -0.6904
       4    C2      19.970357   19.178503   20.965234 C.3        1 MOL1        -0.2102
       5    H1      19.977347   20.267204   20.832191 H          1 MOL1         0.0687
       6    H2      20.923014   18.799118   20.575965 H          1 MOL1         0.0687
       7    C3      19.830025   18.826187   22.465910 C.3        1 MOL1        -0.1974
       8    H3      18.868371   19.202214   22.842269 H          1 MOL1         0.0689
       9    H4      19.814345   17.733870   22.586001 H          1 MOL1         0.0689
      10    C4      20.980920   19.421852   23.301324 C.3        1 MOL1        -0.2987
      11    H5      20.864157   19.161582   24.361459 H          1 MOL1         0.0700
      12    H6      21.951972   19.037147   22.962776 H          1 MOL1         0.0700
      13    H7      20.998709   20.516746   23.221036 H          1 MOL1         0.0700
@<TRIPOS>BOND
    1     1     2    1
    2     1     3    2
    3     1     4    1
    4     4     5    1
    5     4     6    1
    6     4     7    1
    7     7     8    1
    8     7     9    1
    9     7    10    1
   10    10    11    1
   11    10    12    1
   12    10    13    1
@<TRIPOS>SUBSTRUCTURE
       1 MOL1            1 RESIDUE      1      MOL     
@<SCITEGIC>MOL_PROPERTY
VConf Rank
SciTegic.value.IntegerValue
270

@<SCITEGIC>MOL_PROPERTY
Conf_Id
SciTegic.value.IntegerValue
1

@<SCITEGIC>MOL_PROPERTY
Delta U+W
SciTegic.value.DoubleValue
-1.339

@<SCITEGIC>MOL_PROPERTY
U+W
SciTegic.value.DoubleValue
-59.672

@<SCITEGIC>MOL_PROPERTY
Grad RMS
SciTegic.value.DoubleValue
0.000000

@<SCITEGIC>MOL_PROPERTY
U
SciTegic.value.DoubleValue
7.389

@<SCITEGIC>MOL_PROPERTY
W
SciTegic.value.DoubleValue
-67.061

@<SCITEGIC>MOL_PROPERTY
W(PB)
SciTegic.value.DoubleValue
-68.767

@<SCITEGIC>MOL_PROPERTY
W(SA)
SciTegic.value.DoubleValue
1.707

@<SCITEGIC>MOL_PROPERTY
Valence
SciTegic.value.DoubleValue
5.822

@<SCITEGIC>MOL_PROPERTY
Coulomb
SciTegic.value.DoubleValue
1.255

@<SCITEGIC>MOL_PROPERTY
VdW
SciTegic.value.DoubleValue
0.312

@<SCITEGIC>MOL_PROPERTY
VdW6
SciTegic.value.DoubleValue
-3.061

@<SCITEGIC>MOL_PROPERTY
VdW12
SciTegic.value.DoubleValue
3.372

@<SCITEGIC>MOL_PROPERTY
Bond
SciTegic.value.DoubleValue
0.059

@<SCITEGIC>MOL_PROPERTY
Angle
SciTegic.value.DoubleValue
2.241

@<SCITEGIC>MOL_PROPERTY
Pdih
SciTegic.value.DoubleValue
3.522

@<SCITEGIC>MOL_PROPERTY
Idih
SciTegic.value.DoubleValue
0.000

@<SCITEGIC>MOL_PROPERTY
Tether
SciTegic.value.DoubleValue
0.000

@<TRIPOS>MOLECULE
guest-6_confgen4.mol2 : confsearch ligand conformer 271
          13          12           1
SMALL
USER_CHARGES
 
@<TRIPOS>ATOM
       1    C1      19.417103   19.111366   20.357275 C.2        1 MOL1         0.6021
       2    O1      19.225362   20.242127   19.956384 O.co2      1 MOL1        -0.6904
       3    O2      19.833916   18.213114   19.653490 O.co2      1 MOL1        -0.6904
       4    C2      19.081917   18.796742   21.813087 C.3        1 MOL1        -0.2102
       5    H1      19.000668   17.708842   21.927801 H          1 MOL1         0.0687
       6    H2      18.087577   19.211702   22.016759 H          1 MOL1         0.0687
       7    C3      20.097915   19.367014   22.835769 C.3        1 MOL1        -0.1974
       8    H3      20.202631   20.450621   22.684924 H          1 MOL1         0.0689
       9    H4      19.703609   19.226417   23.851460 H          1 MOL1         0.0689
      10    C4      21.480760   18.690767   22.733999 C.3        1 MOL1        -0.2987
      11    H5      21.925687   18.849416   21.742688 H          1 MOL1         0.0700
      12    H6      22.169032   19.102942   23.483326 H          1 MOL1         0.0700
      13    H7      21.402007   17.608939   22.903815 H          1 MOL1         0.0700
@<TRIPOS>BOND
    1     1     2    1
    2     1     3    2
    3     1     4    1
    4     4     5    1
    5     4     6    1
    6     4     7    1
    7     7     8    1
    8     7     9    1
    9     7    10    1
   10    10    11    1
   11    10    12    1
   12    10    13    1
@<TRIPOS>SUBSTRUCTURE
       1 MOL1            1 RESIDUE      1      MOL     
@<SCITEGIC>MOL_PROPERTY
VConf Rank
SciTegic.value.IntegerValue
271

@<SCITEGIC>MOL_PROPERTY
Conf_Id
SciTegic.value.IntegerValue
4

@<SCITEGIC>MOL_PROPERTY
Delta U+W
SciTegic.value.DoubleValue
0.281

@<SCITEGIC>MOL_PROPERTY
U+W
SciTegic.value.DoubleValue
-58.051

@<SCITEGIC>MOL_PROPERTY
Grad RMS
SciTegic.value.DoubleValue
0.000000

@<SCITEGIC>MOL_PROPERTY
U
SciTegic.value.DoubleValue
9.781

@<SCITEGIC>MOL_PROPERTY
W
SciTegic.value.DoubleValue
-67.832

@<SCITEGIC>MOL_PROPERTY
W(PB)
SciTegic.value.DoubleValue
-69.535

@<SCITEGIC>MOL_PROPERTY
W(SA)
SciTegic.value.DoubleValue
1.703

@<SCITEGIC>MOL_PROPERTY
Valence
SciTegic.value.DoubleValue
6.123

@<SCITEGIC>MOL_PROPERTY
Coulomb
SciTegic.value.DoubleValue
3.449

@<SCITEGIC>MOL_PROPERTY
VdW
SciTegic.value.DoubleValue
0.209

@<SCITEGIC>MOL_PROPERTY
VdW6
SciTegic.value.DoubleValue
-3.762

@<SCITEGIC>MOL_PROPERTY
VdW12
SciTegic.value.DoubleValue
3.972

@<SCITEGIC>MOL_PROPERTY
Bond
SciTegic.value.DoubleValue
0.078

@<SCITEGIC>MOL_PROPERTY
Angle
SciTegic.value.DoubleValue
2.428

@<SCITEGIC>MOL_PROPERTY
Pdih
SciTegic.value.DoubleValue
3.616

@<SCITEGIC>MOL_PROPERTY
Idih
SciTegic.value.DoubleValue
0.002

@<SCITEGIC>MOL_PROPERTY
Tether
SciTegic.value.DoubleValue
0.000

@<TRIPOS>MOLECULE
guest-6_confgen4.mol2 : confsearch ligand conformer 272
          13          12           1
SMALL
USER_CHARGES
 
@<TRIPOS>ATOM
       1    C1      20.321954   18.509225   20.276703 C.2        1 MOL1         0.6021
       2    O1      21.453819   18.767014   19.918470 O.co2      1 MOL1        -0.6904
       3    O2      19.711933   17.524130   19.911244 O.co2      1 MOL1        -0.6904
       4    C2      19.613638   19.491264   21.206549 C.3        1 MOL1        -0.2102
       5    H1      18.617036   19.676674   20.788465 H          1 MOL1         0.0687
       6    H2      20.150250   20.447685   21.182212 H          1 MOL1         0.0687
       7    C3      19.475120   18.993852   22.668305 C.3        1 MOL1        -0.1974
       8    H3      18.828195   19.686140   23.224270 H          1 MOL1         0.0689
       9    H4      18.973310   18.016092   22.678026 H          1 MOL1         0.0689
      10    C4      20.835856   18.888290   23.387456 C.3        1 MOL1        -0.2987
      11    H5      21.344986   19.860775   23.408686 H          1 MOL1         0.0700
      12    H6      20.700607   18.553063   24.424002 H          1 MOL1         0.0700
      13    H7      21.494307   18.168970   22.882631 H          1 MOL1         0.0700
@<TRIPOS>BOND
    1     1     2    1
    2     1     3    2
    3     1     4    1
    4     4     5    1
    5     4     6    1
    6     4     7    1
    7     7     8    1
    8     7     9    1
    9     7    10    1
   10    10    11    1
   11    10    12    1
   12    10    13    1
@<TRIPOS>SUBSTRUCTURE
       1 MOL1            1 RESIDUE      1      MOL     
@<SCITEGIC>MOL_PROPERTY
VConf Rank
SciTegic.value.IntegerValue
272

@<SCITEGIC>MOL_PROPERTY
Conf_Id
SciTegic.value.IntegerValue
36

@<SCITEGIC>MOL_PROPERTY
Delta U+W
SciTegic.value.DoubleValue
0.272

@<SCITEGIC>MOL_PROPERTY
U+W
SciTegic.value.DoubleValue
-58.060

@<SCITEGIC>MOL_PROPERTY
Grad RMS
SciTegic.value.DoubleValue
0.000000

@<SCITEGIC>MOL_PROPERTY
U
SciTegic.value.DoubleValue
9.781

@<SCITEGIC>MOL_PROPERTY
W
SciTegic.value.DoubleValue
-67.841

@<SCITEGIC>MOL_PROPERTY
W(PB)
SciTegic.value.DoubleValue
-69.537

@<SCITEGIC>MOL_PROPERTY
W(SA)
SciTegic.value.DoubleValue
1.696

@<SCITEGIC>MOL_PROPERTY
Valence
SciTegic.value.DoubleValue
6.123

@<SCITEGIC>MOL_PROPERTY
Coulomb
SciTegic.value.DoubleValue
3.449

@<SCITEGIC>MOL_PROPERTY
VdW
SciTegic.value.DoubleValue
0.209

@<SCITEGIC>MOL_PROPERTY
VdW6
SciTegic.value.DoubleValue
-3.762

@<SCITEGIC>MOL_PROPERTY
VdW12
SciTegic.value.DoubleValue
3.972

@<SCITEGIC>MOL_PROPERTY
Bond
SciTegic.value.DoubleValue
0.078

@<SCITEGIC>MOL_PROPERTY
Angle
SciTegic.value.DoubleValue
2.428

@<SCITEGIC>MOL_PROPERTY
Pdih
SciTegic.value.DoubleValue
3.616

@<SCITEGIC>MOL_PROPERTY
Idih
SciTegic.value.DoubleValue
0.002

@<SCITEGIC>MOL_PROPERTY
Tether
SciTegic.value.DoubleValue
0.000

@<TRIPOS>MOLECULE
guest-6_confgen4.mol2 : confsearch ligand conformer 273
          13          12           1
SMALL
USER_CHARGES
 
@<TRIPOS>ATOM
       1    C1      20.273549   18.862190   19.707685 C.2        1 MOL1         0.6021
       2    O1      20.058984   20.015630   19.390089 O.co2      1 MOL1        -0.6904
       3    O2      20.544095   17.993987   18.902809 O.co2      1 MOL1        -0.6904
       4    C2      20.207064   18.453812   21.180603 C.3        1 MOL1        -0.2102
       5    H1      21.178744   18.019590   21.444474 H          1 MOL1         0.0687
       6    H2      19.464296   17.651628   21.265067 H          1 MOL1         0.0687
       7    C3      19.858430   19.595111   22.171485 C.3        1 MOL1        -0.1974
       8    H3      20.602306   20.399229   22.083181 H          1 MOL1         0.0689
       9    H4      18.885775   20.030871   21.903508 H          1 MOL1         0.0689
      10    C4      19.814152   19.090932   23.628083 C.3        1 MOL1        -0.2987
      11    H5      20.785531   18.678181   23.930709 H          1 MOL1         0.0700
      12    H6      19.566219   19.911661   24.313787 H          1 MOL1         0.0700
      13    H7      19.055247   18.306823   23.749569 H          1 MOL1         0.0700
@<TRIPOS>BOND
    1     1     2    1
    2     1     3    2
    3     1     4    1
    4     4     5    1
    5     4     6    1
    6     4     7    1
    7     7     8    1
    8     7     9    1
    9     7    10    1
   10    10    11    1
   11    10    12    1
   12    10    13    1
@<TRIPOS>SUBSTRUCTURE
       1 MOL1            1 RESIDUE      1      MOL     
@<SCITEGIC>MOL_PROPERTY
VConf Rank
SciTegic.value.IntegerValue
273

@<SCITEGIC>MOL_PROPERTY
Conf_Id
SciTegic.value.IntegerValue
0

@<SCITEGIC>MOL_PROPERTY
Delta U+W
SciTegic.value.DoubleValue
0.000

@<SCITEGIC>MOL_PROPERTY
U+W
SciTegic.value.DoubleValue
-58.332

@<SCITEGIC>MOL_PROPERTY
Grad RMS
SciTegic.value.DoubleValue
0.000000

@<SCITEGIC>MOL_PROPERTY
U
SciTegic.value.DoubleValue
8.390

@<SCITEGIC>MOL_PROPERTY
W
SciTegic.value.DoubleValue
-66.722

@<SCITEGIC>MOL_PROPERTY
W(PB)
SciTegic.value.DoubleValue
-68.455

@<SCITEGIC>MOL_PROPERTY
W(SA)
SciTegic.value.DoubleValue
1.733

@<SCITEGIC>MOL_PROPERTY
Valence
SciTegic.value.DoubleValue
6.333

@<SCITEGIC>MOL_PROPERTY
Coulomb
SciTegic.value.DoubleValue
1.215

@<SCITEGIC>MOL_PROPERTY
VdW
SciTegic.value.DoubleValue
0.842

@<SCITEGIC>MOL_PROPERTY
VdW6
SciTegic.value.DoubleValue
-3.344

@<SCITEGIC>MOL_PROPERTY
VdW12
SciTegic.value.DoubleValue
4.186

@<SCITEGIC>MOL_PROPERTY
Bond
SciTegic.value.DoubleValue
0.091

@<SCITEGIC>MOL_PROPERTY
Angle
SciTegic.value.DoubleValue
2.713

@<SCITEGIC>MOL_PROPERTY
Pdih
SciTegic.value.DoubleValue
3.529

@<SCITEGIC>MOL_PROPERTY
Idih
SciTegic.value.DoubleValue
0.000

@<SCITEGIC>MOL_PROPERTY
Tether
SciTegic.value.DoubleValue
0.000

@<TRIPOS>MOLECULE
guest-6_confgen4.mol2 : confsearch ligand conformer 274
          13          12           1
SMALL
USER_CHARGES
 
@<TRIPOS>ATOM
       1    C1      21.516391   18.637115   23.234389 C.2        1 MOL1         0.6021
       2    O1      21.269975   17.782114   24.061200 O.co2      1 MOL1        -0.6904
       3    O2      22.329822   19.522555   23.406681 O.co2      1 MOL1        -0.6904
       4    C2      20.749659   18.608413   21.916513 C.3        1 MOL1        -0.2102
       5    H1      20.533989   17.561699   21.669745 H          1 MOL1         0.0687
       6    H2      21.408014   18.996953   21.129987 H          1 MOL1         0.0687
       7    C3      19.436222   19.426032   21.963760 C.3        1 MOL1        -0.1974
       8    H3      18.789271   19.034474   22.761230 H          1 MOL1         0.0689
       9    H4      19.663474   20.470007   22.221240 H          1 MOL1         0.0689
      10    C4      18.685492   19.376946   20.617920 C.3        1 MOL1        -0.2987
      11    H5      17.757918   19.961797   20.670982 H          1 MOL1         0.0700
      12    H6      19.301691   19.791283   19.809107 H          1 MOL1         0.0700
      13    H7      18.420755   18.344748   20.353270 H          1 MOL1         0.0700
@<TRIPOS>BOND
    1     1     2    1
    2     1     3    2
    3     1     4    1
    4     4     5    1
    5     4     6    1
    6     4     7    1
    7     7     8    1
    8     7     9    1
    9     7    10    1
   10    10    11    1
   11    10    12    1
   12    10    13    1
@<TRIPOS>SUBSTRUCTURE
       1 MOL1            1 RESIDUE      1      MOL     
@<SCITEGIC>MOL_PROPERTY
VConf Rank
SciTegic.value.IntegerValue
274

@<SCITEGIC>MOL_PROPERTY
Conf_Id
SciTegic.value.IntegerValue
1

@<SCITEGIC>MOL_PROPERTY
Delta U+W
SciTegic.value.DoubleValue
-1.339

@<SCITEGIC>MOL_PROPERTY
U+W
SciTegic.value.DoubleValue
-59.672

@<SCITEGIC>MOL_PROPERTY
Grad RMS
SciTegic.value.DoubleValue
0.000000

@<SCITEGIC>MOL_PROPERTY
U
SciTegic.value.DoubleValue
7.389

@<SCITEGIC>MOL_PROPERTY
W
SciTegic.value.DoubleValue
-67.061

@<SCITEGIC>MOL_PROPERTY
W(PB)
SciTegic.value.DoubleValue
-68.767

@<SCITEGIC>MOL_PROPERTY
W(SA)
SciTegic.value.DoubleValue
1.707

@<SCITEGIC>MOL_PROPERTY
Valence
SciTegic.value.DoubleValue
5.822

@<SCITEGIC>MOL_PROPERTY
Coulomb
SciTegic.value.DoubleValue
1.255

@<SCITEGIC>MOL_PROPERTY
VdW
SciTegic.value.DoubleValue
0.312

@<SCITEGIC>MOL_PROPERTY
VdW6
SciTegic.value.DoubleValue
-3.061

@<SCITEGIC>MOL_PROPERTY
VdW12
SciTegic.value.DoubleValue
3.372

@<SCITEGIC>MOL_PROPERTY
Bond
SciTegic.value.DoubleValue
0.059

@<SCITEGIC>MOL_PROPERTY
Angle
SciTegic.value.DoubleValue
2.241

@<SCITEGIC>MOL_PROPERTY
Pdih
SciTegic.value.DoubleValue
3.522

@<SCITEGIC>MOL_PROPERTY
Idih
SciTegic.value.DoubleValue
0.000

@<SCITEGIC>MOL_PROPERTY
Tether
SciTegic.value.DoubleValue
0.000

@<TRIPOS>MOLECULE
guest-6_confgen4.mol2 : confsearch ligand conformer 275
          13          12           1
SMALL
USER_CHARGES
 
@<TRIPOS>ATOM
       1    C1      18.618047   19.916323   22.194979 C.2        1 MOL1         0.6021
       2    O1      18.474479   20.853994   21.435861 O.co2      1 MOL1        -0.6904
       3    O2      17.712078   19.177307   22.525102 O.co2      1 MOL1        -0.6904
       4    C2      20.002913   19.678242   22.791797 C.3        1 MOL1        -0.2102
       5    H1      19.900202   19.029313   23.670221 H          1 MOL1         0.0687
       6    H2      20.373575   20.644677   23.153736 H          1 MOL1         0.0687
       7    C3      21.026889   19.072885   21.797637 C.3        1 MOL1        -0.1974
       8    H3      21.091430   19.708730   20.903513 H          1 MOL1         0.0689
       9    H4      22.023285   19.076835   22.260296 H          1 MOL1         0.0689
      10    C4      20.668148   17.630017   21.386097 C.3        1 MOL1        -0.2987
      11    H5      19.694748   17.594666   20.879076 H          1 MOL1         0.0700
      12    H6      21.422210   17.224967   20.698768 H          1 MOL1         0.0700
      13    H7      20.620182   16.972052   22.263693 H          1 MOL1         0.0700
@<TRIPOS>BOND
    1     1     2    1
    2     1     3    2
    3     1     4    1
    4     4     5    1
    5     4     6    1
    6     4     7    1
    7     7     8    1
    8     7     9    1
    9     7    10    1
   10    10    11    1
   11    10    12    1
   12    10    13    1
@<TRIPOS>SUBSTRUCTURE
       1 MOL1            1 RESIDUE      1      MOL     
@<SCITEGIC>MOL_PROPERTY
VConf Rank
SciTegic.value.IntegerValue
275

@<SCITEGIC>MOL_PROPERTY
Conf_Id
SciTegic.value.IntegerValue
4

@<SCITEGIC>MOL_PROPERTY
Delta U+W
SciTegic.value.DoubleValue
0.281

@<SCITEGIC>MOL_PROPERTY
U+W
SciTegic.value.DoubleValue
-58.051

@<SCITEGIC>MOL_PROPERTY
Grad RMS
SciTegic.value.DoubleValue
0.000000

@<SCITEGIC>MOL_PROPERTY
U
SciTegic.value.DoubleValue
9.781

@<SCITEGIC>MOL_PROPERTY
W
SciTegic.value.DoubleValue
-67.832

@<SCITEGIC>MOL_PROPERTY
W(PB)
SciTegic.value.DoubleValue
-69.535

@<SCITEGIC>MOL_PROPERTY
W(SA)
SciTegic.value.DoubleValue
1.703

@<SCITEGIC>MOL_PROPERTY
Valence
SciTegic.value.DoubleValue
6.123

@<SCITEGIC>MOL_PROPERTY
Coulomb
SciTegic.value.DoubleValue
3.449

@<SCITEGIC>MOL_PROPERTY
VdW
SciTegic.value.DoubleValue
0.209

@<SCITEGIC>MOL_PROPERTY
VdW6
SciTegic.value.DoubleValue
-3.762

@<SCITEGIC>MOL_PROPERTY
VdW12
SciTegic.value.DoubleValue
3.972

@<SCITEGIC>MOL_PROPERTY
Bond
SciTegic.value.DoubleValue
0.078

@<SCITEGIC>MOL_PROPERTY
Angle
SciTegic.value.DoubleValue
2.428

@<SCITEGIC>MOL_PROPERTY
Pdih
SciTegic.value.DoubleValue
3.616

@<SCITEGIC>MOL_PROPERTY
Idih
SciTegic.value.DoubleValue
0.002

@<SCITEGIC>MOL_PROPERTY
Tether
SciTegic.value.DoubleValue
0.000

@<TRIPOS>MOLECULE
guest-6_confgen4.mol2 : confsearch ligand conformer 276
          13          12           1
SMALL
USER_CHARGES
 
@<TRIPOS>ATOM
       1    C1      18.501240   19.737864   22.082245 C.2        1 MOL1         0.6021
       2    O1      17.682608   18.925464   22.464018 O.co2      1 MOL1        -0.6904
       3    O2      18.484907   20.908410   22.407288 O.co2      1 MOL1        -0.6904
       4    C2      19.587461   19.273998   21.114940 C.3        1 MOL1        -0.2102
       5    H1      19.622397   19.997060   20.291321 H          1 MOL1         0.0687
       6    H2      19.284304   18.313464   20.680478 H          1 MOL1         0.0687
       7    C3      20.994987   19.150889   21.752946 C.3        1 MOL1        -0.1974
       8    H3      21.733435   18.961819   20.961859 H          1 MOL1         0.0689
       9    H4      21.271352   20.106082   22.221080 H          1 MOL1         0.0689
      10    C4      21.073078   18.017376   22.796486 C.3        1 MOL1        -0.2987
      11    H5      20.821871   17.049209   22.343785 H          1 MOL1         0.0700
      12    H6      22.085912   17.944662   23.213592 H          1 MOL1         0.0700
      13    H7      20.377460   18.196877   23.626980 H          1 MOL1         0.0700
@<TRIPOS>BOND
    1     1     2    1
    2     1     3    2
    3     1     4    1
    4     4     5    1
    5     4     6    1
    6     4     7    1
    7     7     8    1
    8     7     9    1
    9     7    10    1
   10    10    11    1
   11    10    12    1
   12    10    13    1
@<TRIPOS>SUBSTRUCTURE
       1 MOL1            1 RESIDUE      1      MOL     
@<SCITEGIC>MOL_PROPERTY
VConf Rank
SciTegic.value.IntegerValue
276

@<SCITEGIC>MOL_PROPERTY
Conf_Id
SciTegic.value.IntegerValue
36

@<SCITEGIC>MOL_PROPERTY
Delta U+W
SciTegic.value.DoubleValue
0.272

@<SCITEGIC>MOL_PROPERTY
U+W
SciTegic.value.DoubleValue
-58.060

@<SCITEGIC>MOL_PROPERTY
Grad RMS
SciTegic.value.DoubleValue
0.000000

@<SCITEGIC>MOL_PROPERTY
U
SciTegic.value.DoubleValue
9.781

@<SCITEGIC>MOL_PROPERTY
W
SciTegic.value.DoubleValue
-67.841

@<SCITEGIC>MOL_PROPERTY
W(PB)
SciTegic.value.DoubleValue
-69.537

@<SCITEGIC>MOL_PROPERTY
W(SA)
SciTegic.value.DoubleValue
1.696

@<SCITEGIC>MOL_PROPERTY
Valence
SciTegic.value.DoubleValue
6.123

@<SCITEGIC>MOL_PROPERTY
Coulomb
SciTegic.value.DoubleValue
3.449

@<SCITEGIC>MOL_PROPERTY
VdW
SciTegic.value.DoubleValue
0.209

@<SCITEGIC>MOL_PROPERTY
VdW6
SciTegic.value.DoubleValue
-3.762

@<SCITEGIC>MOL_PROPERTY
VdW12
SciTegic.value.DoubleValue
3.972

@<SCITEGIC>MOL_PROPERTY
Bond
SciTegic.value.DoubleValue
0.078

@<SCITEGIC>MOL_PROPERTY
Angle
SciTegic.value.DoubleValue
2.428

@<SCITEGIC>MOL_PROPERTY
Pdih
SciTegic.value.DoubleValue
3.616

@<SCITEGIC>MOL_PROPERTY
Idih
SciTegic.value.DoubleValue
0.002

@<SCITEGIC>MOL_PROPERTY
Tether
SciTegic.value.DoubleValue
0.000

@<TRIPOS>MOLECULE
guest-6_confgen4.mol2 : confsearch ligand conformer 277
          13          12           1
SMALL
USER_CHARGES
 
@<TRIPOS>ATOM
       1    C1      20.372005   20.514343   20.359831 C.2        1 MOL1         0.6021
       2    O1      21.220887   21.171185   20.930171 O.co2      1 MOL1        -0.6904
       3    O2      19.951937   20.792812   19.254936 O.co2      1 MOL1        -0.6904
       4    C2      19.785993   19.274747   21.038562 C.3        1 MOL1        -0.2102
       5    H1      19.959720   18.422529   20.370819 H          1 MOL1         0.0687
       6    H2      18.700521   19.417177   21.100208 H          1 MOL1         0.0687
       7    C3      20.352279   18.958418   22.447538 C.3        1 MOL1        -0.1974
       8    H3      21.440517   18.818921   22.384030 H          1 MOL1         0.0689
       9    H4      20.179837   19.814829   23.114305 H          1 MOL1         0.0689
      10    C4      19.704672   17.695920   23.051308 C.3        1 MOL1        -0.2987
      11    H5      19.889664   16.818263   22.418047 H          1 MOL1         0.0700
      12    H6      20.117512   17.488341   24.047165 H          1 MOL1         0.0700
      13    H7      18.618848   17.822160   23.154131 H          1 MOL1         0.0700
@<TRIPOS>BOND
    1     1     2    1
    2     1     3    2
    3     1     4    1
    4     4     5    1
    5     4     6    1
    6     4     7    1
    7     7     8    1
    8     7     9    1
    9     7    10    1
   10    10    11    1
   11    10    12    1
   12    10    13    1
@<TRIPOS>SUBSTRUCTURE
       1 MOL1            1 RESIDUE      1      MOL     
@<SCITEGIC>MOL_PROPERTY
VConf Rank
SciTegic.value.IntegerValue
277

@<SCITEGIC>MOL_PROPERTY
Conf_Id
SciTegic.value.IntegerValue
0

@<SCITEGIC>MOL_PROPERTY
Delta U+W
SciTegic.value.DoubleValue
0.000

@<SCITEGIC>MOL_PROPERTY
U+W
SciTegic.value.DoubleValue
-58.332

@<SCITEGIC>MOL_PROPERTY
Grad RMS
SciTegic.value.DoubleValue
0.000000

@<SCITEGIC>MOL_PROPERTY
U
SciTegic.value.DoubleValue
8.390

@<SCITEGIC>MOL_PROPERTY
W
SciTegic.value.DoubleValue
-66.722

@<SCITEGIC>MOL_PROPERTY
W(PB)
SciTegic.value.DoubleValue
-68.455

@<SCITEGIC>MOL_PROPERTY
W(SA)
SciTegic.value.DoubleValue
1.733

@<SCITEGIC>MOL_PROPERTY
Valence
SciTegic.value.DoubleValue
6.333

@<SCITEGIC>MOL_PROPERTY
Coulomb
SciTegic.value.DoubleValue
1.215

@<SCITEGIC>MOL_PROPERTY
VdW
SciTegic.value.DoubleValue
0.842

@<SCITEGIC>MOL_PROPERTY
VdW6
SciTegic.value.DoubleValue
-3.344

@<SCITEGIC>MOL_PROPERTY
VdW12
SciTegic.value.DoubleValue
4.186

@<SCITEGIC>MOL_PROPERTY
Bond
SciTegic.value.DoubleValue
0.091

@<SCITEGIC>MOL_PROPERTY
Angle
SciTegic.value.DoubleValue
2.713

@<SCITEGIC>MOL_PROPERTY
Pdih
SciTegic.value.DoubleValue
3.529

@<SCITEGIC>MOL_PROPERTY
Idih
SciTegic.value.DoubleValue
0.000

@<SCITEGIC>MOL_PROPERTY
Tether
SciTegic.value.DoubleValue
0.000

@<TRIPOS>MOLECULE
guest-6_confgen4.mol2 : confsearch ligand conformer 278
          13          12           1
SMALL
USER_CHARGES
 
@<TRIPOS>ATOM
       1    C1      18.418411   17.628666   21.870985 C.2        1 MOL1         0.6021
       2    O1      17.595645   17.721243   20.982252 O.co2      1 MOL1        -0.6904
       3    O2      18.188327   17.115567   22.947624 O.co2      1 MOL1        -0.6904
       4    C2      19.809580   18.204466   21.628909 C.3        1 MOL1        -0.2102
       5    H1      20.044043   18.094077   20.563141 H          1 MOL1         0.0687
       6    H2      20.532806   17.594584   22.183891 H          1 MOL1         0.0687
       7    C3      19.930649   19.689031   22.049930 C.3        1 MOL1        -0.1974
       8    H3      19.195222   20.288426   21.495227 H          1 MOL1         0.0689
       9    H4      19.684206   19.788814   23.116294 H          1 MOL1         0.0689
      10    C4      21.347219   20.240791   21.792674 C.3        1 MOL1        -0.2987
      11    H5      21.413391   21.293484   22.097174 H          1 MOL1         0.0700
      12    H6      22.097969   19.675756   22.360712 H          1 MOL1         0.0700
      13    H7      21.605208   20.179234   20.727212 H          1 MOL1         0.0700
@<TRIPOS>BOND
    1     1     2    1
    2     1     3    2
    3     1     4    1
    4     4     5    1
    5     4     6    1
    6     4     7    1
    7     7     8    1
    8     7     9    1
    9     7    10    1
   10    10    11    1
   11    10    12    1
   12    10    13    1
@<TRIPOS>SUBSTRUCTURE
       1 MOL1            1 RESIDUE      1      MOL     
@<SCITEGIC>MOL_PROPERTY
VConf Rank
SciTegic.value.IntegerValue
278

@<SCITEGIC>MOL_PROPERTY
Conf_Id
SciTegic.value.IntegerValue
1

@<SCITEGIC>MOL_PROPERTY
Delta U+W
SciTegic.value.DoubleValue
-1.339

@<SCITEGIC>MOL_PROPERTY
U+W
SciTegic.value.DoubleValue
-59.672

@<SCITEGIC>MOL_PROPERTY
Grad RMS
SciTegic.value.DoubleValue
0.000000

@<SCITEGIC>MOL_PROPERTY
U
SciTegic.value.DoubleValue
7.389

@<SCITEGIC>MOL_PROPERTY
W
SciTegic.value.DoubleValue
-67.061

@<SCITEGIC>MOL_PROPERTY
W(PB)
SciTegic.value.DoubleValue
-68.767

@<SCITEGIC>MOL_PROPERTY
W(SA)
SciTegic.value.DoubleValue
1.707

@<SCITEGIC>MOL_PROPERTY
Valence
SciTegic.value.DoubleValue
5.822

@<SCITEGIC>MOL_PROPERTY
Coulomb
SciTegic.value.DoubleValue
1.255

@<SCITEGIC>MOL_PROPERTY
VdW
SciTegic.value.DoubleValue
0.312

@<SCITEGIC>MOL_PROPERTY
VdW6
SciTegic.value.DoubleValue
-3.061

@<SCITEGIC>MOL_PROPERTY
VdW12
SciTegic.value.DoubleValue
3.372

@<SCITEGIC>MOL_PROPERTY
Bond
SciTegic.value.DoubleValue
0.059

@<SCITEGIC>MOL_PROPERTY
Angle
SciTegic.value.DoubleValue
2.241

@<SCITEGIC>MOL_PROPERTY
Pdih
SciTegic.value.DoubleValue
3.522

@<SCITEGIC>MOL_PROPERTY
Idih
SciTegic.value.DoubleValue
0.000

@<SCITEGIC>MOL_PROPERTY
Tether
SciTegic.value.DoubleValue
0.000

@<TRIPOS>MOLECULE
guest-6_confgen4.mol2 : confsearch ligand conformer 279
          13          12           1
SMALL
USER_CHARGES
 
@<TRIPOS>ATOM
       1    C1      21.291291   18.246239   20.843471 C.2        1 MOL1         0.6021
       2    O1      22.339504   17.856592   21.318362 O.co2      1 MOL1        -0.6904
       3    O2      20.687901   17.650464   19.973484 O.co2      1 MOL1        -0.6904
       4    C2      20.723275   19.572481   21.342639 C.3        1 MOL1        -0.2102
       5    H1      19.983084   19.932854   20.617700 H          1 MOL1         0.0687
       6    H2      21.544092   20.299557   21.345038 H          1 MOL1         0.0687
       7    C3      20.093837   19.500884   22.757566 C.3        1 MOL1        -0.1974
       8    H3      20.830462   19.099919   23.467871 H          1 MOL1         0.0689
       9    H4      19.850819   20.517643   23.095230 H          1 MOL1         0.0689
      10    C4      18.814571   18.639351   22.791732 C.3        1 MOL1        -0.2987
      11    H5      19.029328   17.602241   22.501713 H          1 MOL1         0.0700
      12    H6      18.384187   18.625762   23.801525 H          1 MOL1         0.0700
      13    H7      18.055834   19.036023   22.104446 H          1 MOL1         0.0700
@<TRIPOS>BOND
    1     1     2    1
    2     1     3    2
    3     1     4    1
    4     4     5    1
    5     4     6    1
    6     4     7    1
    7     7     8    1
    8     7     9    1
    9     7    10    1
   10    10    11    1
   11    10    12    1
   12    10    13    1
@<TRIPOS>SUBSTRUCTURE
       1 MOL1            1 RESIDUE      1      MOL     
@<SCITEGIC>MOL_PROPERTY
VConf Rank
SciTegic.value.IntegerValue
279

@<SCITEGIC>MOL_PROPERTY
Conf_Id
SciTegic.value.IntegerValue
4

@<SCITEGIC>MOL_PROPERTY
Delta U+W
SciTegic.value.DoubleValue
0.281

@<SCITEGIC>MOL_PROPERTY
U+W
SciTegic.value.DoubleValue
-58.051

@<SCITEGIC>MOL_PROPERTY
Grad RMS
SciTegic.value.DoubleValue
0.000000

@<SCITEGIC>MOL_PROPERTY
U
SciTegic.value.DoubleValue
9.781

@<SCITEGIC>MOL_PROPERTY
W
SciTegic.value.DoubleValue
-67.832

@<SCITEGIC>MOL_PROPERTY
W(PB)
SciTegic.value.DoubleValue
-69.535

@<SCITEGIC>MOL_PROPERTY
W(SA)
SciTegic.value.DoubleValue
1.703

@<SCITEGIC>MOL_PROPERTY
Valence
SciTegic.value.DoubleValue
6.123

@<SCITEGIC>MOL_PROPERTY
Coulomb
SciTegic.value.DoubleValue
3.449

@<SCITEGIC>MOL_PROPERTY
VdW
SciTegic.value.DoubleValue
0.209

@<SCITEGIC>MOL_PROPERTY
VdW6
SciTegic.value.DoubleValue
-3.762

@<SCITEGIC>MOL_PROPERTY
VdW12
SciTegic.value.DoubleValue
3.972

@<SCITEGIC>MOL_PROPERTY
Bond
SciTegic.value.DoubleValue
0.078

@<SCITEGIC>MOL_PROPERTY
Angle
SciTegic.value.DoubleValue
2.428

@<SCITEGIC>MOL_PROPERTY
Pdih
SciTegic.value.DoubleValue
3.616

@<SCITEGIC>MOL_PROPERTY
Idih
SciTegic.value.DoubleValue
0.002

@<SCITEGIC>MOL_PROPERTY
Tether
SciTegic.value.DoubleValue
0.000

@<TRIPOS>MOLECULE
guest-6_confgen4.mol2 : confsearch ligand conformer 280
          13          12           1
SMALL
USER_CHARGES
 
@<TRIPOS>ATOM
       1    C1      21.208358   18.665553   20.608063 C.2        1 MOL1         0.6021
       2    O1      21.047468   19.528397   19.768111 O.co2      1 MOL1        -0.6904
       3    O2      22.291870   18.185690   20.876073 O.co2      1 MOL1        -0.6904
       4    C2      19.981614   18.128940   21.341460 C.3        1 MOL1        -0.2102
       5    H1      20.037100   17.034157   21.313954 H          1 MOL1         0.0687
       6    H2      19.083605   18.414750   20.780051 H          1 MOL1         0.0687
       7    C3      19.864488   18.602404   22.813007 C.3        1 MOL1        -0.1974
       8    H3      19.048003   18.054867   23.303342 H          1 MOL1         0.0689
       9    H4      20.785779   18.347961   23.355596 H          1 MOL1         0.0689
      10    C4      19.594641   20.117102   22.926144 C.3        1 MOL1        -0.2987
      11    H5      18.665446   20.389884   22.408864 H          1 MOL1         0.0700
      12    H6      19.497764   20.415257   23.978196 H          1 MOL1         0.0700
      13    H7      20.414874   20.698213   22.484157 H          1 MOL1         0.0700
@<TRIPOS>BOND
    1     1     2    1
    2     1     3    2
    3     1     4    1
    4     4     5    1
    5     4     6    1
    6     4     7    1
    7     7     8    1
    8     7     9    1
    9     7    10    1
   10    10    11    1
   11    10    12    1
   12    10    13    1
@<TRIPOS>SUBSTRUCTURE
       1 MOL1            1 RESIDUE      1      MOL     
@<SCITEGIC>MOL_PROPERTY
VConf Rank
SciTegic.value.IntegerValue
280

@<SCITEGIC>MOL_PROPERTY
Conf_Id
SciTegic.value.IntegerValue
36

@<SCITEGIC>MOL_PROPERTY
Delta U+W
SciTegic.value.DoubleValue
0.272

@<SCITEGIC>MOL_PROPERTY
U+W
SciTegic.value.DoubleValue
-58.060

@<SCITEGIC>MOL_PROPERTY
Grad RMS
SciTegic.value.DoubleValue
0.000000

@<SCITEGIC>MOL_PROPERTY
U
SciTegic.value.DoubleValue
9.781

@<SCITEGIC>MOL_PROPERTY
W
SciTegic.value.DoubleValue
-67.841

@<SCITEGIC>MOL_PROPERTY
W(PB)
SciTegic.value.DoubleValue
-69.537

@<SCITEGIC>MOL_PROPERTY
W(SA)
SciTegic.value.DoubleValue
1.696

@<SCITEGIC>MOL_PROPERTY
Valence
SciTegic.value.DoubleValue
6.123

@<SCITEGIC>MOL_PROPERTY
Coulomb
SciTegic.value.DoubleValue
3.449

@<SCITEGIC>MOL_PROPERTY
VdW
SciTegic.value.DoubleValue
0.209

@<SCITEGIC>MOL_PROPERTY
VdW6
SciTegic.value.DoubleValue
-3.762

@<SCITEGIC>MOL_PROPERTY
VdW12
SciTegic.value.DoubleValue
3.972

@<SCITEGIC>MOL_PROPERTY
Bond
SciTegic.value.DoubleValue
0.078

@<SCITEGIC>MOL_PROPERTY
Angle
SciTegic.value.DoubleValue
2.428

@<SCITEGIC>MOL_PROPERTY
Pdih
SciTegic.value.DoubleValue
3.616

@<SCITEGIC>MOL_PROPERTY
Idih
SciTegic.value.DoubleValue
0.002

@<SCITEGIC>MOL_PROPERTY
Tether
SciTegic.value.DoubleValue
0.000

@<TRIPOS>MOLECULE
guest-6_confgen4.mol2 : confsearch ligand conformer 281
          13          12           1
SMALL
USER_CHARGES
 
@<TRIPOS>ATOM
       1    C1      21.826149   20.138530   21.841584 C.2        1 MOL1         0.6021
       2    O1      22.076242   20.122519   23.030923 O.co2      1 MOL1        -0.6904
       3    O2      22.527512   20.701914   21.025812 O.co2      1 MOL1        -0.6904
       4    C2      20.578035   19.425948   21.317064 C.3        1 MOL1        -0.2102
       5    H1      20.908128   18.693392   20.570915 H          1 MOL1         0.0687
       6    H2      19.972975   20.171689   20.787810 H          1 MOL1         0.0687
       7    C3      19.713295   18.720828   22.394554 C.3        1 MOL1        -0.1974
       8    H3      20.322270   17.975986   22.925699 H          1 MOL1         0.0689
       9    H4      19.386026   19.456092   23.142910 H          1 MOL1         0.0689
      10    C4      18.480752   18.032180   21.774525 C.3        1 MOL1        -0.2987
      11    H5      18.782484   17.269625   21.044463 H          1 MOL1         0.0700
      12    H6      17.881770   17.539320   22.551421 H          1 MOL1         0.0700
      13    H7      17.838754   18.761622   21.263373 H          1 MOL1         0.0700
@<TRIPOS>BOND
    1     1     2    1
    2     1     3    2
    3     1     4    1
    4     4     5    1
    5     4     6    1
    6     4     7    1
    7     7     8    1
    8     7     9    1
    9     7    10    1
   10    10    11    1
   11    10    12    1
   12    10    13    1
@<TRIPOS>SUBSTRUCTURE
       1 MOL1            1 RESIDUE      1      MOL     
@<SCITEGIC>MOL_PROPERTY
VConf Rank
SciTegic.value.IntegerValue
281

@<SCITEGIC>MOL_PROPERTY
Conf_Id
SciTegic.value.IntegerValue
0

@<SCITEGIC>MOL_PROPERTY
Delta U+W
SciTegic.value.DoubleValue
0.000

@<SCITEGIC>MOL_PROPERTY
U+W
SciTegic.value.DoubleValue
-58.332

@<SCITEGIC>MOL_PROPERTY
Grad RMS
SciTegic.value.DoubleValue
0.000000

@<SCITEGIC>MOL_PROPERTY
U
SciTegic.value.DoubleValue
8.390

@<SCITEGIC>MOL_PROPERTY
W
SciTegic.value.DoubleValue
-66.722

@<SCITEGIC>MOL_PROPERTY
W(PB)
SciTegic.value.DoubleValue
-68.455

@<SCITEGIC>MOL_PROPERTY
W(SA)
SciTegic.value.DoubleValue
1.733

@<SCITEGIC>MOL_PROPERTY
Valence
SciTegic.value.DoubleValue
6.333

@<SCITEGIC>MOL_PROPERTY
Coulomb
SciTegic.value.DoubleValue
1.215

@<SCITEGIC>MOL_PROPERTY
VdW
SciTegic.value.DoubleValue
0.842

@<SCITEGIC>MOL_PROPERTY
VdW6
SciTegic.value.DoubleValue
-3.344

@<SCITEGIC>MOL_PROPERTY
VdW12
SciTegic.value.DoubleValue
4.186

@<SCITEGIC>MOL_PROPERTY
Bond
SciTegic.value.DoubleValue
0.091

@<SCITEGIC>MOL_PROPERTY
Angle
SciTegic.value.DoubleValue
2.713

@<SCITEGIC>MOL_PROPERTY
Pdih
SciTegic.value.DoubleValue
3.529

@<SCITEGIC>MOL_PROPERTY
Idih
SciTegic.value.DoubleValue
0.000

@<SCITEGIC>MOL_PROPERTY
Tether
SciTegic.value.DoubleValue
0.000

@<TRIPOS>MOLECULE
guest-6_confgen4.mol2 : confsearch ligand conformer 282
          13          12           1
SMALL
USER_CHARGES
 
@<TRIPOS>ATOM
       1    C1      21.694816   18.609273   23.001095 C.2        1 MOL1         0.6021
       2    O1      21.575169   17.710200   23.809001 O.co2      1 MOL1        -0.6904
       3    O2      22.507355   19.505533   23.109993 O.co2      1 MOL1        -0.6904
       4    C2      20.762000   18.623952   21.794804 C.3        1 MOL1        -0.2102
       5    H1      20.535099   17.585058   21.526041 H          1 MOL1         0.0687
       6    H2      21.303847   19.065580   20.949591 H          1 MOL1         0.0687
       7    C3      19.451328   19.405466   22.054082 C.3        1 MOL1        -0.1974
       8    H3      18.922280   18.960590   22.908491 H          1 MOL1         0.0689
       9    H4      19.691168   20.441406   22.331802 H          1 MOL1         0.0689
      10    C4      18.531069   19.401512   20.816990 C.3        1 MOL1        -0.2987
      11    H5      17.607902   19.959922   21.019973 H          1 MOL1         0.0700
      12    H6      19.027726   19.868907   19.956507 H          1 MOL1         0.0700
      13    H7      18.252916   18.376739   20.537653 H          1 MOL1         0.0700
@<TRIPOS>BOND
    1     1     2    1
    2     1     3    2
    3     1     4    1
    4     4     5    1
    5     4     6    1
    6     4     7    1
    7     7     8    1
    8     7     9    1
    9     7    10    1
   10    10    11    1
   11    10    12    1
   12    10    13    1
@<TRIPOS>SUBSTRUCTURE
       1 MOL1            1 RESIDUE      1      MOL     
@<SCITEGIC>MOL_PROPERTY
VConf Rank
SciTegic.value.IntegerValue
282

@<SCITEGIC>MOL_PROPERTY
Conf_Id
SciTegic.value.IntegerValue
1

@<SCITEGIC>MOL_PROPERTY
Delta U+W
SciTegic.value.DoubleValue
-1.339

@<SCITEGIC>MOL_PROPERTY
U+W
SciTegic.value.DoubleValue
-59.672

@<SCITEGIC>MOL_PROPERTY
Grad RMS
SciTegic.value.DoubleValue
0.000000

@<SCITEGIC>MOL_PROPERTY
U
SciTegic.value.DoubleValue
7.389

@<SCITEGIC>MOL_PROPERTY
W
SciTegic.value.DoubleValue
-67.061

@<SCITEGIC>MOL_PROPERTY
W(PB)
SciTegic.value.DoubleValue
-68.767

@<SCITEGIC>MOL_PROPERTY
W(SA)
SciTegic.value.DoubleValue
1.707

@<SCITEGIC>MOL_PROPERTY
Valence
SciTegic.value.DoubleValue
5.822

@<SCITEGIC>MOL_PROPERTY
Coulomb
SciTegic.value.DoubleValue
1.255

@<SCITEGIC>MOL_PROPERTY
VdW
SciTegic.value.DoubleValue
0.312

@<SCITEGIC>MOL_PROPERTY
VdW6
SciTegic.value.DoubleValue
-3.061

@<SCITEGIC>MOL_PROPERTY
VdW12
SciTegic.value.DoubleValue
3.372

@<SCITEGIC>MOL_PROPERTY
Bond
SciTegic.value.DoubleValue
0.059

@<SCITEGIC>MOL_PROPERTY
Angle
SciTegic.value.DoubleValue
2.241

@<SCITEGIC>MOL_PROPERTY
Pdih
SciTegic.value.DoubleValue
3.522

@<SCITEGIC>MOL_PROPERTY
Idih
SciTegic.value.DoubleValue
0.000

@<SCITEGIC>MOL_PROPERTY
Tether
SciTegic.value.DoubleValue
0.000

@<TRIPOS>MOLECULE
guest-6_confgen4.mol2 : confsearch ligand conformer 283
          13          12           1
SMALL
USER_CHARGES
 
@<TRIPOS>ATOM
       1    C1      20.012668   17.546268   20.911798 C.2        1 MOL1         0.6021
       2    O1      18.893955   17.236217   20.553399 O.co2      1 MOL1        -0.6904
       3    O2      20.982877   17.513658   20.181364 O.co2      1 MOL1        -0.6904
       4    C2      20.213116   17.964028   22.366455 C.3        1 MOL1        -0.2102
       5    H1      21.281238   17.897433   22.607221 H          1 MOL1         0.0687
       6    H2      19.700670   17.224087   22.992772 H          1 MOL1         0.0687
       7    C3      19.678081   19.380428   22.699450 C.3        1 MOL1        -0.1974
       8    H3      18.618363   19.449187   22.416265 H          1 MOL1         0.0689
       9    H4      19.725222   19.536740   23.785828 H          1 MOL1         0.0689
      10    C4      20.479044   20.494822   21.994813 C.3        1 MOL1        -0.2987
      11    H5      20.417058   20.395367   20.902982 H          1 MOL1         0.0700
      12    H6      20.087673   21.483700   22.266929 H          1 MOL1         0.0700
      13    H7      21.538219   20.458073   22.281499 H          1 MOL1         0.0700
@<TRIPOS>BOND
    1     1     2    1
    2     1     3    2
    3     1     4    1
    4     4     5    1
    5     4     6    1
    6     4     7    1
    7     7     8    1
    8     7     9    1
    9     7    10    1
   10    10    11    1
   11    10    12    1
   12    10    13    1
@<TRIPOS>SUBSTRUCTURE
       1 MOL1            1 RESIDUE      1      MOL     
@<SCITEGIC>MOL_PROPERTY
VConf Rank
SciTegic.value.IntegerValue
283

@<SCITEGIC>MOL_PROPERTY
Conf_Id
SciTegic.value.IntegerValue
4

@<SCITEGIC>MOL_PROPERTY
Delta U+W
SciTegic.value.DoubleValue
0.281

@<SCITEGIC>MOL_PROPERTY
U+W
SciTegic.value.DoubleValue
-58.051

@<SCITEGIC>MOL_PROPERTY
Grad RMS
SciTegic.value.DoubleValue
0.000000

@<SCITEGIC>MOL_PROPERTY
U
SciTegic.value.DoubleValue
9.781

@<SCITEGIC>MOL_PROPERTY
W
SciTegic.value.DoubleValue
-67.832

@<SCITEGIC>MOL_PROPERTY
W(PB)
SciTegic.value.DoubleValue
-69.535

@<SCITEGIC>MOL_PROPERTY
W(SA)
SciTegic.value.DoubleValue
1.703

@<SCITEGIC>MOL_PROPERTY
Valence
SciTegic.value.DoubleValue
6.123

@<SCITEGIC>MOL_PROPERTY
Coulomb
SciTegic.value.DoubleValue
3.449

@<SCITEGIC>MOL_PROPERTY
VdW
SciTegic.value.DoubleValue
0.209

@<SCITEGIC>MOL_PROPERTY
VdW6
SciTegic.value.DoubleValue
-3.762

@<SCITEGIC>MOL_PROPERTY
VdW12
SciTegic.value.DoubleValue
3.972

@<SCITEGIC>MOL_PROPERTY
Bond
SciTegic.value.DoubleValue
0.078

@<SCITEGIC>MOL_PROPERTY
Angle
SciTegic.value.DoubleValue
2.428

@<SCITEGIC>MOL_PROPERTY
Pdih
SciTegic.value.DoubleValue
3.616

@<SCITEGIC>MOL_PROPERTY
Idih
SciTegic.value.DoubleValue
0.002

@<SCITEGIC>MOL_PROPERTY
Tether
SciTegic.value.DoubleValue
0.000

@<TRIPOS>MOLECULE
guest-6_confgen4.mol2 : confsearch ligand conformer 284
          13          12           1
SMALL
USER_CHARGES
 
@<TRIPOS>ATOM
       1    C1      21.383401   18.634832   20.773558 C.2        1 MOL1         0.6021
       2    O1      22.465513   18.552582   21.319612 O.co2      1 MOL1        -0.6904
       3    O2      21.050346   17.934473   19.838320 O.co2      1 MOL1        -0.6904
       4    C2      20.402387   19.697250   21.263051 C.3        1 MOL1        -0.2102
       5    H1      20.028618   20.228933   20.379877 H          1 MOL1         0.0687
       6    H2      20.951159   20.431225   21.865891 H          1 MOL1         0.0687
       7    C3      19.205138   19.132062   22.069583 C.3        1 MOL1        -0.1974
       8    H3      18.479915   19.937456   22.249204 H          1 MOL1         0.0689
       9    H4      18.687336   18.368297   21.472534 H          1 MOL1         0.0689
      10    C4      19.636373   18.531133   23.423409 C.3        1 MOL1        -0.2987
      11    H5      20.136845   19.284631   24.045630 H          1 MOL1         0.0700
      12    H6      18.764425   18.158621   23.976615 H          1 MOL1         0.0700
      13    H7      20.329555   17.691678   23.279733 H          1 MOL1         0.0700
@<TRIPOS>BOND
    1     1     2    1
    2     1     3    2
    3     1     4    1
    4     4     5    1
    5     4     6    1
    6     4     7    1
    7     7     8    1
    8     7     9    1
    9     7    10    1
   10    10    11    1
   11    10    12    1
   12    10    13    1
@<TRIPOS>SUBSTRUCTURE
       1 MOL1            1 RESIDUE      1      MOL     
@<SCITEGIC>MOL_PROPERTY
VConf Rank
SciTegic.value.IntegerValue
284

@<SCITEGIC>MOL_PROPERTY
Conf_Id
SciTegic.value.IntegerValue
36

@<SCITEGIC>MOL_PROPERTY
Delta U+W
SciTegic.value.DoubleValue
0.272

@<SCITEGIC>MOL_PROPERTY
U+W
SciTegic.value.DoubleValue
-58.060

@<SCITEGIC>MOL_PROPERTY
Grad RMS
SciTegic.value.DoubleValue
0.000000

@<SCITEGIC>MOL_PROPERTY
U
SciTegic.value.DoubleValue
9.781

@<SCITEGIC>MOL_PROPERTY
W
SciTegic.value.DoubleValue
-67.841

@<SCITEGIC>MOL_PROPERTY
W(PB)
SciTegic.value.DoubleValue
-69.537

@<SCITEGIC>MOL_PROPERTY
W(SA)
SciTegic.value.DoubleValue
1.696

@<SCITEGIC>MOL_PROPERTY
Valence
SciTegic.value.DoubleValue
6.123

@<SCITEGIC>MOL_PROPERTY
Coulomb
SciTegic.value.DoubleValue
3.449

@<SCITEGIC>MOL_PROPERTY
VdW
SciTegic.value.DoubleValue
0.209

@<SCITEGIC>MOL_PROPERTY
VdW6
SciTegic.value.DoubleValue
-3.762

@<SCITEGIC>MOL_PROPERTY
VdW12
SciTegic.value.DoubleValue
3.972

@<SCITEGIC>MOL_PROPERTY
Bond
SciTegic.value.DoubleValue
0.078

@<SCITEGIC>MOL_PROPERTY
Angle
SciTegic.value.DoubleValue
2.428

@<SCITEGIC>MOL_PROPERTY
Pdih
SciTegic.value.DoubleValue
3.616

@<SCITEGIC>MOL_PROPERTY
Idih
SciTegic.value.DoubleValue
0.002

@<SCITEGIC>MOL_PROPERTY
Tether
SciTegic.value.DoubleValue
0.000

@<TRIPOS>MOLECULE
guest-6_confgen4.mol2 : confsearch ligand conformer 285
          13          12           1
SMALL
USER_CHARGES
 
@<TRIPOS>ATOM
       1    C1      18.795655   20.485478   20.905606 C.2        1 MOL1         0.6021
       2    O1      19.581677   21.411108   20.853588 O.co2      1 MOL1        -0.6904
       3    O2      17.654411   20.563246   20.497795 O.co2      1 MOL1        -0.6904
       4    C2      19.233585   19.148536   21.506844 C.3        1 MOL1        -0.2102
       5    H1      19.080203   18.378883   20.741047 H          1 MOL1         0.0687
       6    H2      18.548546   18.920213   22.332027 H          1 MOL1         0.0687
       7    C3      20.698449   19.096141   22.014178 C.3        1 MOL1        -0.1974
       8    H3      21.383148   19.328081   21.186443 H          1 MOL1         0.0689
       9    H4      20.850861   19.870133   22.779333 H          1 MOL1         0.0689
      10    C4      21.048609   17.714024   22.601523 C.3        1 MOL1        -0.2987
      11    H5      20.933988   16.925564   21.846066 H          1 MOL1         0.0700
      12    H6      22.087877   17.696281   22.954885 H          1 MOL1         0.0700
      13    H7      20.397382   17.471955   23.451716 H          1 MOL1         0.0700
@<TRIPOS>BOND
    1     1     2    1
    2     1     3    2
    3     1     4    1
    4     4     5    1
    5     4     6    1
    6     4     7    1
    7     7     8    1
    8     7     9    1
    9     7    10    1
   10    10    11    1
   11    10    12    1
   12    10    13    1
@<TRIPOS>SUBSTRUCTURE
       1 MOL1            1 RESIDUE      1      MOL     
@<SCITEGIC>MOL_PROPERTY
VConf Rank
SciTegic.value.IntegerValue
285

@<SCITEGIC>MOL_PROPERTY
Conf_Id
SciTegic.value.IntegerValue
0

@<SCITEGIC>MOL_PROPERTY
Delta U+W
SciTegic.value.DoubleValue
0.000

@<SCITEGIC>MOL_PROPERTY
U+W
SciTegic.value.DoubleValue
-58.332

@<SCITEGIC>MOL_PROPERTY
Grad RMS
SciTegic.value.DoubleValue
0.000000

@<SCITEGIC>MOL_PROPERTY
U
SciTegic.value.DoubleValue
8.390

@<SCITEGIC>MOL_PROPERTY
W
SciTegic.value.DoubleValue
-66.722

@<SCITEGIC>MOL_PROPERTY
W(PB)
SciTegic.value.DoubleValue
-68.455

@<SCITEGIC>MOL_PROPERTY
W(SA)
SciTegic.value.DoubleValue
1.733

@<SCITEGIC>MOL_PROPERTY
Valence
SciTegic.value.DoubleValue
6.333

@<SCITEGIC>MOL_PROPERTY
Coulomb
SciTegic.value.DoubleValue
1.215

@<SCITEGIC>MOL_PROPERTY
VdW
SciTegic.value.DoubleValue
0.842

@<SCITEGIC>MOL_PROPERTY
VdW6
SciTegic.value.DoubleValue
-3.344

@<SCITEGIC>MOL_PROPERTY
VdW12
SciTegic.value.DoubleValue
4.186

@<SCITEGIC>MOL_PROPERTY
Bond
SciTegic.value.DoubleValue
0.091

@<SCITEGIC>MOL_PROPERTY
Angle
SciTegic.value.DoubleValue
2.713

@<SCITEGIC>MOL_PROPERTY
Pdih
SciTegic.value.DoubleValue
3.529

@<SCITEGIC>MOL_PROPERTY
Idih
SciTegic.value.DoubleValue
0.000

@<SCITEGIC>MOL_PROPERTY
Tether
SciTegic.value.DoubleValue
0.000

@<TRIPOS>MOLECULE
guest-6_confgen4.mol2 : confsearch ligand conformer 286
          13          12           1
SMALL
USER_CHARGES
 
@<TRIPOS>ATOM
       1    C1      19.430918   19.013203   19.795437 C.2        1 MOL1         0.6021
       2    O1      19.503189   20.074083   19.208350 O.co2      1 MOL1        -0.6904
       3    O2      18.698604   18.106119   19.454445 O.co2      1 MOL1        -0.6904
       4    C2      20.292089   18.816565   21.038505 C.3        1 MOL1        -0.2102
       5    H1      21.224146   19.378012   20.900422 H          1 MOL1         0.0687
       6    H2      20.560653   17.755110   21.103352 H          1 MOL1         0.0687
       7    C3      19.586268   19.267865   22.340040 C.3        1 MOL1        -0.1974
       8    H3      19.313230   20.329384   22.259736 H          1 MOL1         0.0689
       9    H4      18.649693   18.706094   22.462765 H          1 MOL1         0.0689
      10    C4      20.482048   19.056429   23.577038 C.3        1 MOL1        -0.2987
      11    H5      19.964927   19.381867   24.489143 H          1 MOL1         0.0700
      12    H6      20.744156   17.996817   23.695684 H          1 MOL1         0.0700
      13    H7      21.412754   19.632589   23.491107 H          1 MOL1         0.0700
@<TRIPOS>BOND
    1     1     2    1
    2     1     3    2
    3     1     4    1
    4     4     5    1
    5     4     6    1
    6     4     7    1
    7     7     8    1
    8     7     9    1
    9     7    10    1
   10    10    11    1
   11    10    12    1
   12    10    13    1
@<TRIPOS>SUBSTRUCTURE
       1 MOL1            1 RESIDUE      1      MOL     
@<SCITEGIC>MOL_PROPERTY
VConf Rank
SciTegic.value.IntegerValue
286

@<SCITEGIC>MOL_PROPERTY
Conf_Id
SciTegic.value.IntegerValue
1

@<SCITEGIC>MOL_PROPERTY
Delta U+W
SciTegic.value.DoubleValue
-1.339

@<SCITEGIC>MOL_PROPERTY
U+W
SciTegic.value.DoubleValue
-59.672

@<SCITEGIC>MOL_PROPERTY
Grad RMS
SciTegic.value.DoubleValue
0.000000

@<SCITEGIC>MOL_PROPERTY
U
SciTegic.value.DoubleValue
7.389

@<SCITEGIC>MOL_PROPERTY
W
SciTegic.value.DoubleValue
-67.061

@<SCITEGIC>MOL_PROPERTY
W(PB)
SciTegic.value.DoubleValue
-68.767

@<SCITEGIC>MOL_PROPERTY
W(SA)
SciTegic.value.DoubleValue
1.707

@<SCITEGIC>MOL_PROPERTY
Valence
SciTegic.value.DoubleValue
5.822

@<SCITEGIC>MOL_PROPERTY
Coulomb
SciTegic.value.DoubleValue
1.255

@<SCITEGIC>MOL_PROPERTY
VdW
SciTegic.value.DoubleValue
0.312

@<SCITEGIC>MOL_PROPERTY
VdW6
SciTegic.value.DoubleValue
-3.061

@<SCITEGIC>MOL_PROPERTY
VdW12
SciTegic.value.DoubleValue
3.372

@<SCITEGIC>MOL_PROPERTY
Bond
SciTegic.value.DoubleValue
0.059

@<SCITEGIC>MOL_PROPERTY
Angle
SciTegic.value.DoubleValue
2.241

@<SCITEGIC>MOL_PROPERTY
Pdih
SciTegic.value.DoubleValue
3.522

@<SCITEGIC>MOL_PROPERTY
Idih
SciTegic.value.DoubleValue
0.000

@<SCITEGIC>MOL_PROPERTY
Tether
SciTegic.value.DoubleValue
0.000

@<TRIPOS>MOLECULE
guest-6_confgen4.mol2 : confsearch ligand conformer 287
          13          12           1
SMALL
USER_CHARGES
 
@<TRIPOS>ATOM
       1    C1      20.821502   17.406878   21.458622 C.2        1 MOL1         0.6021
       2    O1      20.173987   16.789256   20.636816 O.co2      1 MOL1        -0.6904
       3    O2      22.033292   17.489080   21.431933 O.co2      1 MOL1        -0.6904
       4    C2      20.073194   18.084289   22.603995 C.3        1 MOL1        -0.2102
       5    H1      20.787363   18.310251   23.405363 H          1 MOL1         0.0687
       6    H2      19.363837   17.352774   23.009067 H          1 MOL1         0.0687
       7    C3      19.309757   19.368900   22.191348 C.3        1 MOL1        -0.1974
       8    H3      18.627360   19.140302   21.360686 H          1 MOL1         0.0689
       9    H4      18.684399   19.701344   23.031159 H          1 MOL1         0.0689
      10    C4      20.259092   20.515146   21.785377 C.3        1 MOL1        -0.2987
      11    H5      20.870308   20.232863   20.917876 H          1 MOL1         0.0700
      12    H6      19.688255   21.414063   21.518565 H          1 MOL1         0.0700
      13    H7      20.935838   20.774863   22.609970 H          1 MOL1         0.0700
@<TRIPOS>BOND
    1     1     2    1
    2     1     3    2
    3     1     4    1
    4     4     5    1
    5     4     6    1
    6     4     7    1
    7     7     8    1
    8     7     9    1
    9     7    10    1
   10    10    11    1
   11    10    12    1
   12    10    13    1
@<TRIPOS>SUBSTRUCTURE
       1 MOL1            1 RESIDUE      1      MOL     
@<SCITEGIC>MOL_PROPERTY
VConf Rank
SciTegic.value.IntegerValue
287

@<SCITEGIC>MOL_PROPERTY
Conf_Id
SciTegic.value.IntegerValue
4

@<SCITEGIC>MOL_PROPERTY
Delta U+W
SciTegic.value.DoubleValue
0.281

@<SCITEGIC>MOL_PROPERTY
U+W
SciTegic.value.DoubleValue
-58.051

@<SCITEGIC>MOL_PROPERTY
Grad RMS
SciTegic.value.DoubleValue
0.000000

@<SCITEGIC>MOL_PROPERTY
U
SciTegic.value.DoubleValue
9.781

@<SCITEGIC>MOL_PROPERTY
W
SciTegic.value.DoubleValue
-67.832

@<SCITEGIC>MOL_PROPERTY
W(PB)
SciTegic.value.DoubleValue
-69.535

@<SCITEGIC>MOL_PROPERTY
W(SA)
SciTegic.value.DoubleValue
1.703

@<SCITEGIC>MOL_PROPERTY
Valence
SciTegic.value.DoubleValue
6.123

@<SCITEGIC>MOL_PROPERTY
Coulomb
SciTegic.value.DoubleValue
3.449

@<SCITEGIC>MOL_PROPERTY
VdW
SciTegic.value.DoubleValue
0.209

@<SCITEGIC>MOL_PROPERTY
VdW6
SciTegic.value.DoubleValue
-3.762

@<SCITEGIC>MOL_PROPERTY
VdW12
SciTegic.value.DoubleValue
3.972

@<SCITEGIC>MOL_PROPERTY
Bond
SciTegic.value.DoubleValue
0.078

@<SCITEGIC>MOL_PROPERTY
Angle
SciTegic.value.DoubleValue
2.428

@<SCITEGIC>MOL_PROPERTY
Pdih
SciTegic.value.DoubleValue
3.616

@<SCITEGIC>MOL_PROPERTY
Idih
SciTegic.value.DoubleValue
0.002

@<SCITEGIC>MOL_PROPERTY
Tether
SciTegic.value.DoubleValue
0.000

@<TRIPOS>MOLECULE
guest-6_confgen4.mol2 : confsearch ligand conformer 288
          13          12           1
SMALL
USER_CHARGES
 
@<TRIPOS>ATOM
       1    C1      20.759152   20.632418   21.829564 C.2        1 MOL1         0.6021
       2    O1      21.044583   21.070899   22.925999 O.co2      1 MOL1        -0.6904
       3    O2      21.411736   20.854205   20.829043 O.co2      1 MOL1        -0.6904
       4    C2      19.494906   19.787676   21.692390 C.3        1 MOL1        -0.2102
       5    H1      18.933371   20.176389   20.834505 H          1 MOL1         0.0687
       6    H2      18.868561   19.945977   22.578911 H          1 MOL1         0.0687
       7    C3      19.761890   18.273944   21.490714 C.3        1 MOL1        -0.1974
       8    H3      18.815270   17.770216   21.251883 H          1 MOL1         0.0689
       9    H4      20.423608   18.129372   20.625179 H          1 MOL1         0.0689
      10    C4      20.383747   17.612798   22.738154 C.3        1 MOL1        -0.2987
      11    H5      19.727375   17.726402   23.610885 H          1 MOL1         0.0700
      12    H6      20.541398   16.539628   22.569187 H          1 MOL1         0.0700
      13    H7      21.355414   18.063250   22.980604 H          1 MOL1         0.0700
@<TRIPOS>BOND
    1     1     2    1
    2     1     3    2
    3     1     4    1
    4     4     5    1
    5     4     6    1
    6     4     7    1
    7     7     8    1
    8     7     9    1
    9     7    10    1
   10    10    11    1
   11    10    12    1
   12    10    13    1
@<TRIPOS>SUBSTRUCTURE
       1 MOL1            1 RESIDUE      1      MOL     
@<SCITEGIC>MOL_PROPERTY
VConf Rank
SciTegic.value.IntegerValue
288

@<SCITEGIC>MOL_PROPERTY
Conf_Id
SciTegic.value.IntegerValue
36

@<SCITEGIC>MOL_PROPERTY
Delta U+W
SciTegic.value.DoubleValue
0.272

@<SCITEGIC>MOL_PROPERTY
U+W
SciTegic.value.DoubleValue
-58.060

@<SCITEGIC>MOL_PROPERTY
Grad RMS
SciTegic.value.DoubleValue
0.000000

@<SCITEGIC>MOL_PROPERTY
U
SciTegic.value.DoubleValue
9.781

@<SCITEGIC>MOL_PROPERTY
W
SciTegic.value.DoubleValue
-67.841

@<SCITEGIC>MOL_PROPERTY
W(PB)
SciTegic.value.DoubleValue
-69.537

@<SCITEGIC>MOL_PROPERTY
W(SA)
SciTegic.value.DoubleValue
1.696

@<SCITEGIC>MOL_PROPERTY
Valence
SciTegic.value.DoubleValue
6.123

@<SCITEGIC>MOL_PROPERTY
Coulomb
SciTegic.value.DoubleValue
3.449

@<SCITEGIC>MOL_PROPERTY
VdW
SciTegic.value.DoubleValue
0.209

@<SCITEGIC>MOL_PROPERTY
VdW6
SciTegic.value.DoubleValue
-3.762

@<SCITEGIC>MOL_PROPERTY
VdW12
SciTegic.value.DoubleValue
3.972

@<SCITEGIC>MOL_PROPERTY
Bond
SciTegic.value.DoubleValue
0.078

@<SCITEGIC>MOL_PROPERTY
Angle
SciTegic.value.DoubleValue
2.428

@<SCITEGIC>MOL_PROPERTY
Pdih
SciTegic.value.DoubleValue
3.616

@<SCITEGIC>MOL_PROPERTY
Idih
SciTegic.value.DoubleValue
0.002

@<SCITEGIC>MOL_PROPERTY
Tether
SciTegic.value.DoubleValue
0.000

@<TRIPOS>MOLECULE
guest-6_confgen4.mol2 : confsearch ligand conformer 289
          13          12           1
SMALL
USER_CHARGES
 
@<TRIPOS>ATOM
       1    C1      18.522257   18.103316   20.599754 C.2        1 MOL1         0.6021
       2    O1      18.999974   16.995443   20.452334 O.co2      1 MOL1        -0.6904
       3    O2      17.462586   18.437202   20.109433 O.co2      1 MOL1        -0.6904
       4    C2      19.265717   19.147258   21.435297 C.3        1 MOL1        -0.2102
       5    H1      18.590687   19.465180   22.238787 H          1 MOL1         0.0687
       6    H2      19.434135   20.020727   20.794185 H          1 MOL1         0.0687
       7    C3      20.613668   18.676174   22.041157 C.3        1 MOL1        -0.1974
       8    H3      20.443100   17.799055   22.680941 H          1 MOL1         0.0689
       9    H4      21.287567   18.355210   21.234561 H          1 MOL1         0.0689
      10    C4      21.288863   19.791695   22.864297 C.3        1 MOL1        -0.2987
      11    H5      20.647218   20.108836   23.696904 H          1 MOL1         0.0700
      12    H6      22.240207   19.440071   23.284491 H          1 MOL1         0.0700
      13    H7      21.498413   20.669477   22.238909 H          1 MOL1         0.0700
@<TRIPOS>BOND
    1     1     2    1
    2     1     3    2
    3     1     4    1
    4     4     5    1
    5     4     6    1
    6     4     7    1
    7     7     8    1
    8     7     9    1
    9     7    10    1
   10    10    11    1
   11    10    12    1
   12    10    13    1
@<TRIPOS>SUBSTRUCTURE
       1 MOL1            1 RESIDUE      1      MOL     
@<SCITEGIC>MOL_PROPERTY
VConf Rank
SciTegic.value.IntegerValue
289

@<SCITEGIC>MOL_PROPERTY
Conf_Id
SciTegic.value.IntegerValue
0

@<SCITEGIC>MOL_PROPERTY
Delta U+W
SciTegic.value.DoubleValue
0.000

@<SCITEGIC>MOL_PROPERTY
U+W
SciTegic.value.DoubleValue
-58.332

@<SCITEGIC>MOL_PROPERTY
Grad RMS
SciTegic.value.DoubleValue
0.000000

@<SCITEGIC>MOL_PROPERTY
U
SciTegic.value.DoubleValue
8.390

@<SCITEGIC>MOL_PROPERTY
W
SciTegic.value.DoubleValue
-66.722

@<SCITEGIC>MOL_PROPERTY
W(PB)
SciTegic.value.DoubleValue
-68.455

@<SCITEGIC>MOL_PROPERTY
W(SA)
SciTegic.value.DoubleValue
1.733

@<SCITEGIC>MOL_PROPERTY
Valence
SciTegic.value.DoubleValue
6.333

@<SCITEGIC>MOL_PROPERTY
Coulomb
SciTegic.value.DoubleValue
1.215

@<SCITEGIC>MOL_PROPERTY
VdW
SciTegic.value.DoubleValue
0.842

@<SCITEGIC>MOL_PROPERTY
VdW6
SciTegic.value.DoubleValue
-3.344

@<SCITEGIC>MOL_PROPERTY
VdW12
SciTegic.value.DoubleValue
4.186

@<SCITEGIC>MOL_PROPERTY
Bond
SciTegic.value.DoubleValue
0.091

@<SCITEGIC>MOL_PROPERTY
Angle
SciTegic.value.DoubleValue
2.713

@<SCITEGIC>MOL_PROPERTY
Pdih
SciTegic.value.DoubleValue
3.529

@<SCITEGIC>MOL_PROPERTY
Idih
SciTegic.value.DoubleValue
0.000

@<SCITEGIC>MOL_PROPERTY
Tether
SciTegic.value.DoubleValue
0.000

@<TRIPOS>MOLECULE
guest-6_confgen4.mol2 : confsearch ligand conformer 290
          13          12           1
SMALL
USER_CHARGES
 
@<TRIPOS>ATOM
       1    C1      17.880631   18.990194   21.728380 C.2        1 MOL1         0.6021
       2    O1      17.342398   18.037859   22.256322 O.co2      1 MOL1        -0.6904
       3    O2      17.375029   19.634529   20.831408 O.co2      1 MOL1        -0.6904
       4    C2      19.274068   19.386616   22.204494 C.3        1 MOL1        -0.2102
       5    H1      19.347379   19.157073   23.274519 H          1 MOL1         0.0687
       6    H2      19.374278   20.473789   22.099467 H          1 MOL1         0.0687
       7    C3      20.404678   18.669974   21.427324 C.3        1 MOL1        -0.1974
       8    H3      20.288419   17.582101   21.531431 H          1 MOL1         0.0689
       9    H4      20.315397   18.899167   20.356193 H          1 MOL1         0.0689
      10    C4      21.799241   19.091681   21.931950 C.3        1 MOL1        -0.2987
      11    H5      22.586970   18.573654   21.369463 H          1 MOL1         0.0700
      12    H6      21.950684   20.172353   21.810419 H          1 MOL1         0.0700
      13    H7      21.923502   18.845147   22.994653 H          1 MOL1         0.0700
@<TRIPOS>BOND
    1     1     2    1
    2     1     3    2
    3     1     4    1
    4     4     5    1
    5     4     6    1
    6     4     7    1
    7     7     8    1
    8     7     9    1
    9     7    10    1
   10    10    11    1
   11    10    12    1
   12    10    13    1
@<TRIPOS>SUBSTRUCTURE
       1 MOL1            1 RESIDUE      1      MOL     
@<SCITEGIC>MOL_PROPERTY
VConf Rank
SciTegic.value.IntegerValue
290

@<SCITEGIC>MOL_PROPERTY
Conf_Id
SciTegic.value.IntegerValue
1

@<SCITEGIC>MOL_PROPERTY
Delta U+W
SciTegic.value.DoubleValue
-1.339

@<SCITEGIC>MOL_PROPERTY
U+W
SciTegic.value.DoubleValue
-59.672

@<SCITEGIC>MOL_PROPERTY
Grad RMS
SciTegic.value.DoubleValue
0.000000

@<SCITEGIC>MOL_PROPERTY
U
SciTegic.value.DoubleValue
7.389

@<SCITEGIC>MOL_PROPERTY
W
SciTegic.value.DoubleValue
-67.061

@<SCITEGIC>MOL_PROPERTY
W(PB)
SciTegic.value.DoubleValue
-68.767

@<SCITEGIC>MOL_PROPERTY
W(SA)
SciTegic.value.DoubleValue
1.707

@<SCITEGIC>MOL_PROPERTY
Valence
SciTegic.value.DoubleValue
5.822

@<SCITEGIC>MOL_PROPERTY
Coulomb
SciTegic.value.DoubleValue
1.255

@<SCITEGIC>MOL_PROPERTY
VdW
SciTegic.value.DoubleValue
0.312

@<SCITEGIC>MOL_PROPERTY
VdW6
SciTegic.value.DoubleValue
-3.061

@<SCITEGIC>MOL_PROPERTY
VdW12
SciTegic.value.DoubleValue
3.372

@<SCITEGIC>MOL_PROPERTY
Bond
SciTegic.value.DoubleValue
0.059

@<SCITEGIC>MOL_PROPERTY
Angle
SciTegic.value.DoubleValue
2.241

@<SCITEGIC>MOL_PROPERTY
Pdih
SciTegic.value.DoubleValue
3.522

@<SCITEGIC>MOL_PROPERTY
Idih
SciTegic.value.DoubleValue
0.000

@<SCITEGIC>MOL_PROPERTY
Tether
SciTegic.value.DoubleValue
0.000

@<TRIPOS>MOLECULE
guest-6_confgen4.mol2 : confsearch ligand conformer 291
          13          12           1
SMALL
USER_CHARGES
 
@<TRIPOS>ATOM
       1    C1      18.532606   19.456417   22.656830 C.2        1 MOL1         0.6021
       2    O1      18.334106   19.187697   23.824942 O.co2      1 MOL1        -0.6904
       3    O2      18.179803   20.497732   22.140015 O.co2      1 MOL1        -0.6904
       4    C2      19.230349   18.414145   21.786456 C.3        1 MOL1        -0.2102
       5    H1      19.048580   18.657850   20.732484 H          1 MOL1         0.0687
       6    H2      18.743636   17.450202   21.977006 H          1 MOL1         0.0687
       7    C3      20.752591   18.283991   22.049477 C.3        1 MOL1        -0.1974
       8    H3      20.925499   18.080867   23.115670 H          1 MOL1         0.0689
       9    H4      21.140655   17.417863   21.496214 H          1 MOL1         0.0689
      10    C4      21.534829   19.544310   21.625650 C.3        1 MOL1        -0.2987
      11    H5      21.202548   20.424227   22.192363 H          1 MOL1         0.0700
      12    H6      22.609430   19.411711   21.806608 H          1 MOL1         0.0700
      13    H7      21.393551   19.752998   20.557061 H          1 MOL1         0.0700
@<TRIPOS>BOND
    1     1     2    1
    2     1     3    2
    3     1     4    1
    4     4     5    1
    5     4     6    1
    6     4     7    1
    7     7     8    1
    8     7     9    1
    9     7    10    1
   10    10    11    1
   11    10    12    1
   12    10    13    1
@<TRIPOS>SUBSTRUCTURE
       1 MOL1            1 RESIDUE      1      MOL     
@<SCITEGIC>MOL_PROPERTY
VConf Rank
SciTegic.value.IntegerValue
291

@<SCITEGIC>MOL_PROPERTY
Conf_Id
SciTegic.value.IntegerValue
4

@<SCITEGIC>MOL_PROPERTY
Delta U+W
SciTegic.value.DoubleValue
0.281

@<SCITEGIC>MOL_PROPERTY
U+W
SciTegic.value.DoubleValue
-58.051

@<SCITEGIC>MOL_PROPERTY
Grad RMS
SciTegic.value.DoubleValue
0.000000

@<SCITEGIC>MOL_PROPERTY
U
SciTegic.value.DoubleValue
9.781

@<SCITEGIC>MOL_PROPERTY
W
SciTegic.value.DoubleValue
-67.832

@<SCITEGIC>MOL_PROPERTY
W(PB)
SciTegic.value.DoubleValue
-69.535

@<SCITEGIC>MOL_PROPERTY
W(SA)
SciTegic.value.DoubleValue
1.703

@<SCITEGIC>MOL_PROPERTY
Valence
SciTegic.value.DoubleValue
6.123

@<SCITEGIC>MOL_PROPERTY
Coulomb
SciTegic.value.DoubleValue
3.449

@<SCITEGIC>MOL_PROPERTY
VdW
SciTegic.value.DoubleValue
0.209

@<SCITEGIC>MOL_PROPERTY
VdW6
SciTegic.value.DoubleValue
-3.762

@<SCITEGIC>MOL_PROPERTY
VdW12
SciTegic.value.DoubleValue
3.972

@<SCITEGIC>MOL_PROPERTY
Bond
SciTegic.value.DoubleValue
0.078

@<SCITEGIC>MOL_PROPERTY
Angle
SciTegic.value.DoubleValue
2.428

@<SCITEGIC>MOL_PROPERTY
Pdih
SciTegic.value.DoubleValue
3.616

@<SCITEGIC>MOL_PROPERTY
Idih
SciTegic.value.DoubleValue
0.002

@<SCITEGIC>MOL_PROPERTY
Tether
SciTegic.value.DoubleValue
0.000

@<TRIPOS>MOLECULE
guest-6_confgen4.mol2 : confsearch ligand conformer 292
          13          12           1
SMALL
USER_CHARGES
 
@<TRIPOS>ATOM
       1    C1      21.756799   19.582142   21.616427 C.2        1 MOL1         0.6021
       2    O1      21.702055   20.320137   20.652959 O.co2      1 MOL1        -0.6904
       3    O2      22.487487   19.775798   22.567579 O.co2      1 MOL1        -0.6904
       4    C2      20.889270   18.325912   21.618568 C.3        1 MOL1        -0.2102
       5    H1      21.532492   17.484793   21.903473 H          1 MOL1         0.0687
       6    H2      20.549398   18.131787   20.593829 H          1 MOL1         0.0687
       7    C3      19.674905   18.394936   22.579760 C.3        1 MOL1        -0.1974
       8    H3      19.199507   17.405856   22.630640 H          1 MOL1         0.0689
       9    H4      20.022706   18.630692   23.595326 H          1 MOL1         0.0689
      10    C4      18.626963   19.435321   22.133283 C.3        1 MOL1        -0.2987
      11    H5      18.249305   19.205541   21.128311 H          1 MOL1         0.0700
      12    H6      17.773006   19.444784   22.823039 H          1 MOL1         0.0700
      13    H7      19.057115   20.445477   22.113824 H          1 MOL1         0.0700
@<TRIPOS>BOND
    1     1     2    1
    2     1     3    2
    3     1     4    1
    4     4     5    1
    5     4     6    1
    6     4     7    1
    7     7     8    1
    8     7     9    1
    9     7    10    1
   10    10    11    1
   11    10    12    1
   12    10    13    1
@<TRIPOS>SUBSTRUCTURE
       1 MOL1            1 RESIDUE      1      MOL     
@<SCITEGIC>MOL_PROPERTY
VConf Rank
SciTegic.value.IntegerValue
292

@<SCITEGIC>MOL_PROPERTY
Conf_Id
SciTegic.value.IntegerValue
36

@<SCITEGIC>MOL_PROPERTY
Delta U+W
SciTegic.value.DoubleValue
0.272

@<SCITEGIC>MOL_PROPERTY
U+W
SciTegic.value.DoubleValue
-58.060

@<SCITEGIC>MOL_PROPERTY
Grad RMS
SciTegic.value.DoubleValue
0.000000

@<SCITEGIC>MOL_PROPERTY
U
SciTegic.value.DoubleValue
9.781

@<SCITEGIC>MOL_PROPERTY
W
SciTegic.value.DoubleValue
-67.841

@<SCITEGIC>MOL_PROPERTY
W(PB)
SciTegic.value.DoubleValue
-69.537

@<SCITEGIC>MOL_PROPERTY
W(SA)
SciTegic.value.DoubleValue
1.696

@<SCITEGIC>MOL_PROPERTY
Valence
SciTegic.value.DoubleValue
6.123

@<SCITEGIC>MOL_PROPERTY
Coulomb
SciTegic.value.DoubleValue
3.449

@<SCITEGIC>MOL_PROPERTY
VdW
SciTegic.value.DoubleValue
0.209

@<SCITEGIC>MOL_PROPERTY
VdW6
SciTegic.value.DoubleValue
-3.762

@<SCITEGIC>MOL_PROPERTY
VdW12
SciTegic.value.DoubleValue
3.972

@<SCITEGIC>MOL_PROPERTY
Bond
SciTegic.value.DoubleValue
0.078

@<SCITEGIC>MOL_PROPERTY
Angle
SciTegic.value.DoubleValue
2.428

@<SCITEGIC>MOL_PROPERTY
Pdih
SciTegic.value.DoubleValue
3.616

@<SCITEGIC>MOL_PROPERTY
Idih
SciTegic.value.DoubleValue
0.002

@<SCITEGIC>MOL_PROPERTY
Tether
SciTegic.value.DoubleValue
0.000

@<TRIPOS>MOLECULE
guest-6_confgen4.mol2 : confsearch ligand conformer 293
          13          12           1
SMALL
USER_CHARGES
 
@<TRIPOS>ATOM
       1    C1      19.918700   20.248600   20.094680 C.2        1 MOL1         0.6021
       2    O1      18.815590   19.950387   19.680498 O.co2      1 MOL1        -0.6904
       3    O2      20.634324   21.061038   19.544568 O.co2      1 MOL1        -0.6904
       4    C2      20.458806   19.587631   21.364360 C.3        1 MOL1        -0.2102
       5    H1      20.694296   20.388104   22.075785 H          1 MOL1         0.0687
       6    H2      21.406696   19.102152   21.103301 H          1 MOL1         0.0687
       7    C3      19.510701   18.557467   22.032054 C.3        1 MOL1        -0.1974
       8    H3      18.560356   19.045263   22.290229 H          1 MOL1         0.0689
       9    H4      19.273568   17.757760   21.316520 H          1 MOL1         0.0689
      10    C4      20.137753   17.945254   23.300847 C.3        1 MOL1        -0.2987
      11    H5      20.355811   18.722118   24.045466 H          1 MOL1         0.0700
      12    H6      19.453009   17.219547   23.758811 H          1 MOL1         0.0700
      13    H7      21.074782   17.424322   23.063931 H          1 MOL1         0.0700
@<TRIPOS>BOND
    1     1     2    1
    2     1     3    2
    3     1     4    1
    4     4     5    1
    5     4     6    1
    6     4     7    1
    7     7     8    1
    8     7     9    1
    9     7    10    1
   10    10    11    1
   11    10    12    1
   12    10    13    1
@<TRIPOS>SUBSTRUCTURE
       1 MOL1            1 RESIDUE      1      MOL     
@<SCITEGIC>MOL_PROPERTY
VConf Rank
SciTegic.value.IntegerValue
293

@<SCITEGIC>MOL_PROPERTY
Conf_Id
SciTegic.value.IntegerValue
0

@<SCITEGIC>MOL_PROPERTY
Delta U+W
SciTegic.value.DoubleValue
0.000

@<SCITEGIC>MOL_PROPERTY
U+W
SciTegic.value.DoubleValue
-58.332

@<SCITEGIC>MOL_PROPERTY
Grad RMS
SciTegic.value.DoubleValue
0.000000

@<SCITEGIC>MOL_PROPERTY
U
SciTegic.value.DoubleValue
8.390

@<SCITEGIC>MOL_PROPERTY
W
SciTegic.value.DoubleValue
-66.722

@<SCITEGIC>MOL_PROPERTY
W(PB)
SciTegic.value.DoubleValue
-68.455

@<SCITEGIC>MOL_PROPERTY
W(SA)
SciTegic.value.DoubleValue
1.733

@<SCITEGIC>MOL_PROPERTY
Valence
SciTegic.value.DoubleValue
6.333

@<SCITEGIC>MOL_PROPERTY
Coulomb
SciTegic.value.DoubleValue
1.215

@<SCITEGIC>MOL_PROPERTY
VdW
SciTegic.value.DoubleValue
0.842

@<SCITEGIC>MOL_PROPERTY
VdW6
SciTegic.value.DoubleValue
-3.344

@<SCITEGIC>MOL_PROPERTY
VdW12
SciTegic.value.DoubleValue
4.186

@<SCITEGIC>MOL_PROPERTY
Bond
SciTegic.value.DoubleValue
0.091

@<SCITEGIC>MOL_PROPERTY
Angle
SciTegic.value.DoubleValue
2.713

@<SCITEGIC>MOL_PROPERTY
Pdih
SciTegic.value.DoubleValue
3.529

@<SCITEGIC>MOL_PROPERTY
Idih
SciTegic.value.DoubleValue
0.000

@<SCITEGIC>MOL_PROPERTY
Tether
SciTegic.value.DoubleValue
0.000

@<TRIPOS>MOLECULE
guest-6_confgen4.mol2 : confsearch ligand conformer 294
          13          12           1
SMALL
USER_CHARGES
 
@<TRIPOS>ATOM
       1    C1      21.423008   17.718240   21.020060 C.2        1 MOL1         0.6021
       2    O1      22.450243   18.226646   20.617973 O.co2      1 MOL1        -0.6904
       3    O2      21.000069   16.652544   20.619094 O.co2      1 MOL1        -0.6904
       4    C2      20.610849   18.467206   22.071225 C.3        1 MOL1        -0.2102
       5    H1      21.308318   19.025028   22.707927 H          1 MOL1         0.0687
       6    H2      20.112435   17.726924   22.708865 H          1 MOL1         0.0687
       7    C3      19.566246   19.429096   21.455256 C.3        1 MOL1        -0.1974
       8    H3      20.075595   20.159508   20.811142 H          1 MOL1         0.0689
       9    H4      18.879423   18.861146   20.812193 H          1 MOL1         0.0689
      10    C4      18.762798   20.170200   22.542696 C.3        1 MOL1        -0.2987
      11    H5      18.028019   20.846753   22.087024 H          1 MOL1         0.0700
      12    H6      18.220163   19.461251   23.181832 H          1 MOL1         0.0700
      13    H7      19.425509   20.769595   23.180737 H          1 MOL1         0.0700
@<TRIPOS>BOND
    1     1     2    1
    2     1     3    2
    3     1     4    1
    4     4     5    1
    5     4     6    1
    6     4     7    1
    7     7     8    1
    8     7     9    1
    9     7    10    1
   10    10    11    1
   11    10    12    1
   12    10    13    1
@<TRIPOS>SUBSTRUCTURE
       1 MOL1            1 RESIDUE      1      MOL     
@<SCITEGIC>MOL_PROPERTY
VConf Rank
SciTegic.value.IntegerValue
294

@<SCITEGIC>MOL_PROPERTY
Conf_Id
SciTegic.value.IntegerValue
1

@<SCITEGIC>MOL_PROPERTY
Delta U+W
SciTegic.value.DoubleValue
-1.339

@<SCITEGIC>MOL_PROPERTY
U+W
SciTegic.value.DoubleValue
-59.672

@<SCITEGIC>MOL_PROPERTY
Grad RMS
SciTegic.value.DoubleValue
0.000000

@<SCITEGIC>MOL_PROPERTY
U
SciTegic.value.DoubleValue
7.389

@<SCITEGIC>MOL_PROPERTY
W
SciTegic.value.DoubleValue
-67.061

@<SCITEGIC>MOL_PROPERTY
W(PB)
SciTegic.value.DoubleValue
-68.767

@<SCITEGIC>MOL_PROPERTY
W(SA)
SciTegic.value.DoubleValue
1.707

@<SCITEGIC>MOL_PROPERTY
Valence
SciTegic.value.DoubleValue
5.822

@<SCITEGIC>MOL_PROPERTY
Coulomb
SciTegic.value.DoubleValue
1.255

@<SCITEGIC>MOL_PROPERTY
VdW
SciTegic.value.DoubleValue
0.312

@<SCITEGIC>MOL_PROPERTY
VdW6
SciTegic.value.DoubleValue
-3.061

@<SCITEGIC>MOL_PROPERTY
VdW12
SciTegic.value.DoubleValue
3.372

@<SCITEGIC>MOL_PROPERTY
Bond
SciTegic.value.DoubleValue
0.059

@<SCITEGIC>MOL_PROPERTY
Angle
SciTegic.value.DoubleValue
2.241

@<SCITEGIC>MOL_PROPERTY
Pdih
SciTegic.value.DoubleValue
3.522

@<SCITEGIC>MOL_PROPERTY
Idih
SciTegic.value.DoubleValue
0.000

@<SCITEGIC>MOL_PROPERTY
Tether
SciTegic.value.DoubleValue
0.000

@<TRIPOS>MOLECULE
guest-6_confgen4.mol2 : confsearch ligand conformer 295
          13          12           1
SMALL
USER_CHARGES
 
@<TRIPOS>ATOM
       1    C1      19.568459   17.350336   22.530736 C.2        1 MOL1         0.6021
       2    O1      18.606874   17.335557   23.273188 O.co2      1 MOL1        -0.6904
       3    O2      19.735678   16.546148   21.635624 O.co2      1 MOL1        -0.6904
       4    C2      20.638931   18.414485   22.759651 C.3        1 MOL1        -0.2102
       5    H1      21.557036   18.105862   22.244749 H          1 MOL1         0.0687
       6    H2      20.865747   18.424697   23.832421 H          1 MOL1         0.0687
       7    C3      20.225542   19.838259   22.306532 C.3        1 MOL1        -0.1974
       8    H3      19.283264   20.121009   22.796519 H          1 MOL1         0.0689
       9    H4      20.984540   20.557629   22.643137 H          1 MOL1         0.0689
      10    C4      20.070360   19.948824   20.775643 C.3        1 MOL1        -0.2987
      11    H5      19.286235   19.273345   20.408624 H          1 MOL1         0.0700
      12    H6      19.797052   20.972218   20.487432 H          1 MOL1         0.0700
      13    H7      21.008466   19.691639   20.266520 H          1 MOL1         0.0700
@<TRIPOS>BOND
    1     1     2    1
    2     1     3    2
    3     1     4    1
    4     4     5    1
    5     4     6    1
    6     4     7    1
    7     7     8    1
    8     7     9    1
    9     7    10    1
   10    10    11    1
   11    10    12    1
   12    10    13    1
@<TRIPOS>SUBSTRUCTURE
       1 MOL1            1 RESIDUE      1      MOL     
@<SCITEGIC>MOL_PROPERTY
VConf Rank
SciTegic.value.IntegerValue
295

@<SCITEGIC>MOL_PROPERTY
Conf_Id
SciTegic.value.IntegerValue
4

@<SCITEGIC>MOL_PROPERTY
Delta U+W
SciTegic.value.DoubleValue
0.281

@<SCITEGIC>MOL_PROPERTY
U+W
SciTegic.value.DoubleValue
-58.051

@<SCITEGIC>MOL_PROPERTY
Grad RMS
SciTegic.value.DoubleValue
0.000000

@<SCITEGIC>MOL_PROPERTY
U
SciTegic.value.DoubleValue
9.781

@<SCITEGIC>MOL_PROPERTY
W
SciTegic.value.DoubleValue
-67.832

@<SCITEGIC>MOL_PROPERTY
W(PB)
SciTegic.value.DoubleValue
-69.535

@<SCITEGIC>MOL_PROPERTY
W(SA)
SciTegic.value.DoubleValue
1.703

@<SCITEGIC>MOL_PROPERTY
Valence
SciTegic.value.DoubleValue
6.123

@<SCITEGIC>MOL_PROPERTY
Coulomb
SciTegic.value.DoubleValue
3.449

@<SCITEGIC>MOL_PROPERTY
VdW
SciTegic.value.DoubleValue
0.209

@<SCITEGIC>MOL_PROPERTY
VdW6
SciTegic.value.DoubleValue
-3.762

@<SCITEGIC>MOL_PROPERTY
VdW12
SciTegic.value.DoubleValue
3.972

@<SCITEGIC>MOL_PROPERTY
Bond
SciTegic.value.DoubleValue
0.078

@<SCITEGIC>MOL_PROPERTY
Angle
SciTegic.value.DoubleValue
2.428

@<SCITEGIC>MOL_PROPERTY
Pdih
SciTegic.value.DoubleValue
3.616

@<SCITEGIC>MOL_PROPERTY
Idih
SciTegic.value.DoubleValue
0.002

@<SCITEGIC>MOL_PROPERTY
Tether
SciTegic.value.DoubleValue
0.000

@<TRIPOS>MOLECULE
guest-6_confgen4.mol2 : confsearch ligand conformer 296
          13          12           1
SMALL
USER_CHARGES
 
@<TRIPOS>ATOM
       1    C1      21.768864   19.445439   21.492580 C.2        1 MOL1         0.6021
       2    O1      21.790870   19.630459   20.292084 O.co2      1 MOL1        -0.6904
       3    O2      22.394108   20.120754   22.285748 O.co2      1 MOL1        -0.6904
       4    C2      20.941242   18.281699   22.032467 C.3        1 MOL1        -0.2102
       5    H1      21.575847   17.726673   22.733616 H          1 MOL1         0.0687
       6    H2      20.712102   17.599537   21.204557 H          1 MOL1         0.0687
       7    C3      19.634629   18.710448   22.748200 C.3        1 MOL1        -0.1974
       8    H3      19.184545   17.832743   23.231862 H          1 MOL1         0.0689
       9    H4      19.871409   19.425329   23.548701 H          1 MOL1         0.0689
      10    C4      18.608226   19.333811   21.779777 C.3        1 MOL1        -0.2987
      11    H5      18.340517   18.627026   20.983424 H          1 MOL1         0.0700
      12    H6      17.689103   19.607630   22.313941 H          1 MOL1         0.0700
      13    H7      19.009549   20.241628   21.310060 H          1 MOL1         0.0700
@<TRIPOS>BOND
    1     1     2    1
    2     1     3    2
    3     1     4    1
    4     4     5    1
    5     4     6    1
    6     4     7    1
    7     7     8    1
    8     7     9    1
    9     7    10    1
   10    10    11    1
   11    10    12    1
   12    10    13    1
@<TRIPOS>SUBSTRUCTURE
       1 MOL1            1 RESIDUE      1      MOL     
@<SCITEGIC>MOL_PROPERTY
VConf Rank
SciTegic.value.IntegerValue
296

@<SCITEGIC>MOL_PROPERTY
Conf_Id
SciTegic.value.IntegerValue
36

@<SCITEGIC>MOL_PROPERTY
Delta U+W
SciTegic.value.DoubleValue
0.272

@<SCITEGIC>MOL_PROPERTY
U+W
SciTegic.value.DoubleValue
-58.060

@<SCITEGIC>MOL_PROPERTY
Grad RMS
SciTegic.value.DoubleValue
0.000000

@<SCITEGIC>MOL_PROPERTY
U
SciTegic.value.DoubleValue
9.781

@<SCITEGIC>MOL_PROPERTY
W
SciTegic.value.DoubleValue
-67.841

@<SCITEGIC>MOL_PROPERTY
W(PB)
SciTegic.value.DoubleValue
-69.537

@<SCITEGIC>MOL_PROPERTY
W(SA)
SciTegic.value.DoubleValue
1.696

@<SCITEGIC>MOL_PROPERTY
Valence
SciTegic.value.DoubleValue
6.123

@<SCITEGIC>MOL_PROPERTY
Coulomb
SciTegic.value.DoubleValue
3.449

@<SCITEGIC>MOL_PROPERTY
VdW
SciTegic.value.DoubleValue
0.209

@<SCITEGIC>MOL_PROPERTY
VdW6
SciTegic.value.DoubleValue
-3.762

@<SCITEGIC>MOL_PROPERTY
VdW12
SciTegic.value.DoubleValue
3.972

@<SCITEGIC>MOL_PROPERTY
Bond
SciTegic.value.DoubleValue
0.078

@<SCITEGIC>MOL_PROPERTY
Angle
SciTegic.value.DoubleValue
2.428

@<SCITEGIC>MOL_PROPERTY
Pdih
SciTegic.value.DoubleValue
3.616

@<SCITEGIC>MOL_PROPERTY
Idih
SciTegic.value.DoubleValue
0.002

@<SCITEGIC>MOL_PROPERTY
Tether
SciTegic.value.DoubleValue
0.000

@<TRIPOS>MOLECULE
guest-6_confgen4.mol2 : confsearch ligand conformer 297
          13          12           1
SMALL
USER_CHARGES
 
@<TRIPOS>ATOM
       1    C1      18.685657   18.742977   20.179620 C.2        1 MOL1         0.6021
       2    O1      18.234584   17.644952   20.440782 O.co2      1 MOL1        -0.6904
       3    O2      18.350262   19.380265   19.201781 O.co2      1 MOL1        -0.6904
       4    C2      19.725186   19.378105   21.105187 C.3        1 MOL1        -0.2102
       5    H1      19.323849   20.343757   21.435009 H          1 MOL1         0.0687
       6    H2      20.615336   19.590735   20.501235 H          1 MOL1         0.0687
       7    C3      20.122656   18.528179   22.340339 C.3        1 MOL1        -0.1974
       8    H3      19.228788   18.313760   22.942650 H          1 MOL1         0.0689
       9    H4      20.521797   17.559772   22.007731 H          1 MOL1         0.0689
      10    C4      21.172098   19.246724   23.212233 C.3        1 MOL1        -0.2987
      11    H5      20.785113   20.204887   23.583298 H          1 MOL1         0.0700
      12    H6      21.440584   18.630643   24.080344 H          1 MOL1         0.0700
      13    H7      22.088484   19.444888   22.640841 H          1 MOL1         0.0700
@<TRIPOS>BOND
    1     1     2    1
    2     1     3    2
    3     1     4    1
    4     4     5    1
    5     4     6    1
    6     4     7    1
    7     7     8    1
    8     7     9    1
    9     7    10    1
   10    10    11    1
   11    10    12    1
   12    10    13    1
@<TRIPOS>SUBSTRUCTURE
       1 MOL1            1 RESIDUE      1      MOL     
@<SCITEGIC>MOL_PROPERTY
VConf Rank
SciTegic.value.IntegerValue
297

@<SCITEGIC>MOL_PROPERTY
Conf_Id
SciTegic.value.IntegerValue
0

@<SCITEGIC>MOL_PROPERTY
Delta U+W
SciTegic.value.DoubleValue
0.000

@<SCITEGIC>MOL_PROPERTY
U+W
SciTegic.value.DoubleValue
-58.332

@<SCITEGIC>MOL_PROPERTY
Grad RMS
SciTegic.value.DoubleValue
0.000000

@<SCITEGIC>MOL_PROPERTY
U
SciTegic.value.DoubleValue
8.390

@<SCITEGIC>MOL_PROPERTY
W
SciTegic.value.DoubleValue
-66.722

@<SCITEGIC>MOL_PROPERTY
W(PB)
SciTegic.value.DoubleValue
-68.455

@<SCITEGIC>MOL_PROPERTY
W(SA)
SciTegic.value.DoubleValue
1.733

@<SCITEGIC>MOL_PROPERTY
Valence
SciTegic.value.DoubleValue
6.333

@<SCITEGIC>MOL_PROPERTY
Coulomb
SciTegic.value.DoubleValue
1.215

@<SCITEGIC>MOL_PROPERTY
VdW
SciTegic.value.DoubleValue
0.842

@<SCITEGIC>MOL_PROPERTY
VdW6
SciTegic.value.DoubleValue
-3.344

@<SCITEGIC>MOL_PROPERTY
VdW12
SciTegic.value.DoubleValue
4.186

@<SCITEGIC>MOL_PROPERTY
Bond
SciTegic.value.DoubleValue
0.091

@<SCITEGIC>MOL_PROPERTY
Angle
SciTegic.value.DoubleValue
2.713

@<SCITEGIC>MOL_PROPERTY
Pdih
SciTegic.value.DoubleValue
3.529

@<SCITEGIC>MOL_PROPERTY
Idih
SciTegic.value.DoubleValue
0.000

@<SCITEGIC>MOL_PROPERTY
Tether
SciTegic.value.DoubleValue
0.000

@<TRIPOS>MOLECULE
guest-6_confgen4.mol2 : confsearch ligand conformer 298
          13          12           1
SMALL
USER_CHARGES
 
@<TRIPOS>ATOM
       1    C1      19.674742   17.594336   23.339503 C.2        1 MOL1         0.6021
       2    O1      20.156246   17.843284   24.426490 O.co2      1 MOL1        -0.6904
       3    O2      19.429108   16.468161   22.956419 O.co2      1 MOL1        -0.6904
       4    C2      19.380226   18.756952   22.397652 C.3        1 MOL1        -0.2102
       5    H1      19.103557   19.627043   23.005447 H          1 MOL1         0.0687
       6    H2      18.503900   18.493039   21.793152 H          1 MOL1         0.0687
       7    C3      20.575285   19.107560   21.478545 C.3        1 MOL1        -0.1974
       8    H3      21.449557   19.360456   22.094591 H          1 MOL1         0.0689
       9    H4      20.849697   18.226289   20.881987 H          1 MOL1         0.0689
      10    C4      20.245980   20.285477   20.539736 C.3        1 MOL1        -0.2987
      11    H5      21.104484   20.519045   19.896558 H          1 MOL1         0.0700
      12    H6      19.392694   20.044815   19.892017 H          1 MOL1         0.0700
      13    H7      19.997198   21.187679   21.113926 H          1 MOL1         0.0700
@<TRIPOS>BOND
    1     1     2    1
    2     1     3    2
    3     1     4    1
    4     4     5    1
    5     4     6    1
    6     4     7    1
    7     7     8    1
    8     7     9    1
    9     7    10    1
   10    10    11    1
   11    10    12    1
   12    10    13    1
@<TRIPOS>SUBSTRUCTURE
       1 MOL1            1 RESIDUE      1      MOL     
@<SCITEGIC>MOL_PROPERTY
VConf Rank
SciTegic.value.IntegerValue
298

@<SCITEGIC>MOL_PROPERTY
Conf_Id
SciTegic.value.IntegerValue
1

@<SCITEGIC>MOL_PROPERTY
Delta U+W
SciTegic.value.DoubleValue
-1.339

@<SCITEGIC>MOL_PROPERTY
U+W
SciTegic.value.DoubleValue
-59.672

@<SCITEGIC>MOL_PROPERTY
Grad RMS
SciTegic.value.DoubleValue
0.000000

@<SCITEGIC>MOL_PROPERTY
U
SciTegic.value.DoubleValue
7.389

@<SCITEGIC>MOL_PROPERTY
W
SciTegic.value.DoubleValue
-67.061

@<SCITEGIC>MOL_PROPERTY
W(PB)
SciTegic.value.DoubleValue
-68.767

@<SCITEGIC>MOL_PROPERTY
W(SA)
SciTegic.value.DoubleValue
1.707

@<SCITEGIC>MOL_PROPERTY
Valence
SciTegic.value.DoubleValue
5.822

@<SCITEGIC>MOL_PROPERTY
Coulomb
SciTegic.value.DoubleValue
1.255

@<SCITEGIC>MOL_PROPERTY
VdW
SciTegic.value.DoubleValue
0.312

@<SCITEGIC>MOL_PROPERTY
VdW6
SciTegic.value.DoubleValue
-3.061

@<SCITEGIC>MOL_PROPERTY
VdW12
SciTegic.value.DoubleValue
3.372

@<SCITEGIC>MOL_PROPERTY
Bond
SciTegic.value.DoubleValue
0.059

@<SCITEGIC>MOL_PROPERTY
Angle
SciTegic.value.DoubleValue
2.241

@<SCITEGIC>MOL_PROPERTY
Pdih
SciTegic.value.DoubleValue
3.522

@<SCITEGIC>MOL_PROPERTY
Idih
SciTegic.value.DoubleValue
0.000

@<SCITEGIC>MOL_PROPERTY
Tether
SciTegic.value.DoubleValue
0.000

@<TRIPOS>MOLECULE
guest-6_confgen4.mol2 : confsearch ligand conformer 299
          13          12           1
SMALL
USER_CHARGES
 
@<TRIPOS>ATOM
       1    C1      21.894249   19.057638   21.726274 C.2        1 MOL1         0.6021
       2    O1      22.247933   19.312421   20.592214 O.co2      1 MOL1        -0.6904
       3    O2      22.434868   19.512760   22.714453 O.co2      1 MOL1        -0.6904
       4    C2      20.732081   18.086235   21.917252 C.3        1 MOL1        -0.2102
       5    H1      20.746757   17.719605   22.951009 H          1 MOL1         0.0687
       6    H2      20.920251   17.220220   21.271499 H          1 MOL1         0.0687
       7    C3      19.342138   18.686081   21.583214 C.3        1 MOL1        -0.1974
       8    H3      19.351073   19.087411   20.560093 H          1 MOL1         0.0689
       9    H4      18.590625   17.884975   21.601425 H          1 MOL1         0.0689
      10    C4      18.923234   19.792541   22.573262 C.3        1 MOL1        -0.2987
      11    H5      19.630477   20.632214   22.549088 H          1 MOL1         0.0700
      12    H6      17.928195   20.181301   22.320558 H          1 MOL1         0.0700
      13    H7      18.886303   19.406605   23.600434 H          1 MOL1         0.0700
@<TRIPOS>BOND
    1     1     2    1
    2     1     3    2
    3     1     4    1
    4     4     5    1
    5     4     6    1
    6     4     7    1
    7     7     8    1
    8     7     9    1
    9     7    10    1
   10    10    11    1
   11    10    12    1
   12    10    13    1
@<TRIPOS>SUBSTRUCTURE
       1 MOL1            1 RESIDUE      1      MOL     
@<SCITEGIC>MOL_PROPERTY
VConf Rank
SciTegic.value.IntegerValue
299

@<SCITEGIC>MOL_PROPERTY
Conf_Id
SciTegic.value.IntegerValue
4

@<SCITEGIC>MOL_PROPERTY
Delta U+W
SciTegic.value.DoubleValue
0.281

@<SCITEGIC>MOL_PROPERTY
U+W
SciTegic.value.DoubleValue
-58.051

@<SCITEGIC>MOL_PROPERTY
Grad RMS
SciTegic.value.DoubleValue
0.000000

@<SCITEGIC>MOL_PROPERTY
U
SciTegic.value.DoubleValue
9.781

@<SCITEGIC>MOL_PROPERTY
W
SciTegic.value.DoubleValue
-67.832

@<SCITEGIC>MOL_PROPERTY
W(PB)
SciTegic.value.DoubleValue
-69.535

@<SCITEGIC>MOL_PROPERTY
W(SA)
SciTegic.value.DoubleValue
1.703

@<SCITEGIC>MOL_PROPERTY
Valence
SciTegic.value.DoubleValue
6.123

@<SCITEGIC>MOL_PROPERTY
Coulomb
SciTegic.value.DoubleValue
3.449

@<SCITEGIC>MOL_PROPERTY
VdW
SciTegic.value.DoubleValue
0.209

@<SCITEGIC>MOL_PROPERTY
VdW6
SciTegic.value.DoubleValue
-3.762

@<SCITEGIC>MOL_PROPERTY
VdW12
SciTegic.value.DoubleValue
3.972

@<SCITEGIC>MOL_PROPERTY
Bond
SciTegic.value.DoubleValue
0.078

@<SCITEGIC>MOL_PROPERTY
Angle
SciTegic.value.DoubleValue
2.428

@<SCITEGIC>MOL_PROPERTY
Pdih
SciTegic.value.DoubleValue
3.616

@<SCITEGIC>MOL_PROPERTY
Idih
SciTegic.value.DoubleValue
0.002

@<SCITEGIC>MOL_PROPERTY
Tether
SciTegic.value.DoubleValue
0.000

@<TRIPOS>MOLECULE
guest-6_confgen4.mol2 : confsearch ligand conformer 300
          13          12           1
SMALL
USER_CHARGES
 
@<TRIPOS>ATOM
       1    C1      21.064304   20.488859   21.982479 C.2        1 MOL1         0.6021
       2    O1      21.526010   20.670819   20.873595 O.co2      1 MOL1        -0.6904
       3    O2      20.645635   21.384421   22.688724 O.co2      1 MOL1        -0.6904
       4    C2      21.040669   19.065552   22.534172 C.3        1 MOL1        -0.2102
       5    H1      21.451404   19.101812   23.550227 H          1 MOL1         0.0687
       6    H2      21.722875   18.446453   21.938691 H          1 MOL1         0.0687
       7    C3      19.630555   18.422454   22.570770 C.3        1 MOL1        -0.1974
       8    H3      19.683444   17.469899   23.115484 H          1 MOL1         0.0689
       9    H4      18.945194   19.070876   23.134465 H          1 MOL1         0.0689
      10    C4      19.062207   18.165188   21.159841 C.3        1 MOL1        -0.2987
      11    H5      19.721518   17.500475   20.586381 H          1 MOL1         0.0700
      12    H6      18.073437   17.692280   21.221394 H          1 MOL1         0.0700
      13    H7      18.953759   19.104087   20.600794 H          1 MOL1         0.0700
@<TRIPOS>BOND
    1     1     2    1
    2     1     3    2
    3     1     4    1
    4     4     5    1
    5     4     6    1
    6     4     7    1
    7     7     8    1
    8     7     9    1
    9     7    10    1
   10    10    11    1
   11    10    12    1
   12    10    13    1
@<TRIPOS>SUBSTRUCTURE
       1 MOL1            1 RESIDUE      1      MOL     
@<SCITEGIC>MOL_PROPERTY
VConf Rank
SciTegic.value.IntegerValue
300

@<SCITEGIC>MOL_PROPERTY
Conf_Id
SciTegic.value.IntegerValue
36

@<SCITEGIC>MOL_PROPERTY
Delta U+W
SciTegic.value.DoubleValue
0.272

@<SCITEGIC>MOL_PROPERTY
U+W
SciTegic.value.DoubleValue
-58.060

@<SCITEGIC>MOL_PROPERTY
Grad RMS
SciTegic.value.DoubleValue
0.000000

@<SCITEGIC>MOL_PROPERTY
U
SciTegic.value.DoubleValue
9.781

@<SCITEGIC>MOL_PROPERTY
W
SciTegic.value.DoubleValue
-67.841

@<SCITEGIC>MOL_PROPERTY
W(PB)
SciTegic.value.DoubleValue
-69.537

@<SCITEGIC>MOL_PROPERTY
W(SA)
SciTegic.value.DoubleValue
1.696

@<SCITEGIC>MOL_PROPERTY
Valence
SciTegic.value.DoubleValue
6.123

@<SCITEGIC>MOL_PROPERTY
Coulomb
SciTegic.value.DoubleValue
3.449

@<SCITEGIC>MOL_PROPERTY
VdW
SciTegic.value.DoubleValue
0.209

@<SCITEGIC>MOL_PROPERTY
VdW6
SciTegic.value.DoubleValue
-3.762

@<SCITEGIC>MOL_PROPERTY
VdW12
SciTegic.value.DoubleValue
3.972

@<SCITEGIC>MOL_PROPERTY
Bond
SciTegic.value.DoubleValue
0.078

@<SCITEGIC>MOL_PROPERTY
Angle
SciTegic.value.DoubleValue
2.428

@<SCITEGIC>MOL_PROPERTY
Pdih
SciTegic.value.DoubleValue
3.616

@<SCITEGIC>MOL_PROPERTY
Idih
SciTegic.value.DoubleValue
0.002

@<SCITEGIC>MOL_PROPERTY
Tether
SciTegic.value.DoubleValue
0.000

@<TRIPOS>MOLECULE
guest-6_confgen4.mol2 : confsearch ligand conformer 301
          13          12           1
SMALL
USER_CHARGES
 
@<TRIPOS>ATOM
       1    C1      20.591641   17.042420   21.197284 C.2        1 MOL1         0.6021
       2    O1      19.871620   16.908480   20.227254 O.co2      1 MOL1        -0.6904
       3    O2      21.367571   16.185094   21.568395 O.co2      1 MOL1        -0.6904
       4    C2      20.541364   18.338420   22.008787 C.3        1 MOL1        -0.2102
       5    H1      21.553755   18.759535   22.016821 H          1 MOL1         0.0687
       6    H2      20.298792   18.068057   23.043388 H          1 MOL1         0.0687
       7    C3      19.536414   19.403769   21.497841 C.3        1 MOL1        -0.1974
       8    H3      19.779479   19.671168   20.459972 H          1 MOL1         0.0689
       9    H4      18.522972   18.978813   21.487729 H          1 MOL1         0.0689
      10    C4      19.555446   20.671685   22.375259 C.3        1 MOL1        -0.2987
      11    H5      20.551562   21.133501   22.376846 H          1 MOL1         0.0700
      12    H6      18.838763   21.413139   21.998605 H          1 MOL1         0.0700
      13    H7      19.285015   20.435564   23.412870 H          1 MOL1         0.0700
@<TRIPOS>BOND
    1     1     2    1
    2     1     3    2
    3     1     4    1
    4     4     5    1
    5     4     6    1
    6     4     7    1
    7     7     8    1
    8     7     9    1
    9     7    10    1
   10    10    11    1
   11    10    12    1
   12    10    13    1
@<TRIPOS>SUBSTRUCTURE
       1 MOL1            1 RESIDUE      1      MOL     
@<SCITEGIC>MOL_PROPERTY
VConf Rank
SciTegic.value.IntegerValue
301

@<SCITEGIC>MOL_PROPERTY
Conf_Id
SciTegic.value.IntegerValue
0

@<SCITEGIC>MOL_PROPERTY
Delta U+W
SciTegic.value.DoubleValue
0.000

@<SCITEGIC>MOL_PROPERTY
U+W
SciTegic.value.DoubleValue
-58.332

@<SCITEGIC>MOL_PROPERTY
Grad RMS
SciTegic.value.DoubleValue
0.000000

@<SCITEGIC>MOL_PROPERTY
U
SciTegic.value.DoubleValue
8.390

@<SCITEGIC>MOL_PROPERTY
W
SciTegic.value.DoubleValue
-66.722

@<SCITEGIC>MOL_PROPERTY
W(PB)
SciTegic.value.DoubleValue
-68.455

@<SCITEGIC>MOL_PROPERTY
W(SA)
SciTegic.value.DoubleValue
1.733

@<SCITEGIC>MOL_PROPERTY
Valence
SciTegic.value.DoubleValue
6.333

@<SCITEGIC>MOL_PROPERTY
Coulomb
SciTegic.value.DoubleValue
1.215

@<SCITEGIC>MOL_PROPERTY
VdW
SciTegic.value.DoubleValue
0.842

@<SCITEGIC>MOL_PROPERTY
VdW6
SciTegic.value.DoubleValue
-3.344

@<SCITEGIC>MOL_PROPERTY
VdW12
SciTegic.value.DoubleValue
4.186

@<SCITEGIC>MOL_PROPERTY
Bond
SciTegic.value.DoubleValue
0.091

@<SCITEGIC>MOL_PROPERTY
Angle
SciTegic.value.DoubleValue
2.713

@<SCITEGIC>MOL_PROPERTY
Pdih
SciTegic.value.DoubleValue
3.529

@<SCITEGIC>MOL_PROPERTY
Idih
SciTegic.value.DoubleValue
0.000

@<SCITEGIC>MOL_PROPERTY
Tether
SciTegic.value.DoubleValue
0.000

@<TRIPOS>MOLECULE
guest-6_confgen4.mol2 : confsearch ligand conformer 302
          13          12           1
SMALL
USER_CHARGES
 
@<TRIPOS>ATOM
       1    C1      18.540263   20.327384   22.669622 C.2        1 MOL1         0.6021
       2    O1      17.491348   20.416551   22.063661 O.co2      1 MOL1        -0.6904
       3    O2      18.959533   21.189294   23.415735 O.co2      1 MOL1        -0.6904
       4    C2      19.385343   19.074071   22.468270 C.3        1 MOL1        -0.2102
       5    H1      18.707617   18.230446   22.289380 H          1 MOL1         0.0687
       6    H2      19.918353   18.867686   23.404392 H          1 MOL1         0.0687
       7    C3      20.392123   19.205508   21.299952 C.3        1 MOL1        -0.1974
       8    H3      19.848044   19.421868   20.369905 H          1 MOL1         0.0689
       9    H4      21.059078   20.059136   21.485190 H          1 MOL1         0.0689
      10    C4      21.230075   17.923448   21.122610 C.3        1 MOL1        -0.2987
      11    H5      21.937336   18.035756   20.290486 H          1 MOL1         0.0700
      12    H6      21.806942   17.702562   22.030348 H          1 MOL1         0.0700
      13    H7      20.586619   17.060427   20.906471 H          1 MOL1         0.0700
@<TRIPOS>BOND
    1     1     2    1
    2     1     3    2
    3     1     4    1
    4     4     5    1
    5     4     6    1
    6     4     7    1
    7     7     8    1
    8     7     9    1
    9     7    10    1
   10    10    11    1
   11    10    12    1
   12    10    13    1
@<TRIPOS>SUBSTRUCTURE
       1 MOL1            1 RESIDUE      1      MOL     
@<SCITEGIC>MOL_PROPERTY
VConf Rank
SciTegic.value.IntegerValue
302

@<SCITEGIC>MOL_PROPERTY
Conf_Id
SciTegic.value.IntegerValue
1

@<SCITEGIC>MOL_PROPERTY
Delta U+W
SciTegic.value.DoubleValue
-1.339

@<SCITEGIC>MOL_PROPERTY
U+W
SciTegic.value.DoubleValue
-59.672

@<SCITEGIC>MOL_PROPERTY
Grad RMS
SciTegic.value.DoubleValue
0.000000

@<SCITEGIC>MOL_PROPERTY
U
SciTegic.value.DoubleValue
7.389

@<SCITEGIC>MOL_PROPERTY
W
SciTegic.value.DoubleValue
-67.061

@<SCITEGIC>MOL_PROPERTY
W(PB)
SciTegic.value.DoubleValue
-68.767

@<SCITEGIC>MOL_PROPERTY
W(SA)
SciTegic.value.DoubleValue
1.707

@<SCITEGIC>MOL_PROPERTY
Valence
SciTegic.value.DoubleValue
5.822

@<SCITEGIC>MOL_PROPERTY
Coulomb
SciTegic.value.DoubleValue
1.255

@<SCITEGIC>MOL_PROPERTY
VdW
SciTegic.value.DoubleValue
0.312

@<SCITEGIC>MOL_PROPERTY
VdW6
SciTegic.value.DoubleValue
-3.061

@<SCITEGIC>MOL_PROPERTY
VdW12
SciTegic.value.DoubleValue
3.372

@<SCITEGIC>MOL_PROPERTY
Bond
SciTegic.value.DoubleValue
0.059

@<SCITEGIC>MOL_PROPERTY
Angle
SciTegic.value.DoubleValue
2.241

@<SCITEGIC>MOL_PROPERTY
Pdih
SciTegic.value.DoubleValue
3.522

@<SCITEGIC>MOL_PROPERTY
Idih
SciTegic.value.DoubleValue
0.000

@<SCITEGIC>MOL_PROPERTY
Tether
SciTegic.value.DoubleValue
0.000

@<TRIPOS>MOLECULE
guest-6_confgen4.mol2 : confsearch ligand conformer 303
          13          12           1
SMALL
USER_CHARGES
 
@<TRIPOS>ATOM
       1    C1      19.039819   17.940040   21.008789 C.2        1 MOL1         0.6021
       2    O1      18.380475   18.516381   20.166652 O.co2      1 MOL1        -0.6904
       3    O2      19.558598   16.856631   20.827132 O.co2      1 MOL1        -0.6904
       4    C2      19.192876   18.597536   22.378095 C.3        1 MOL1        -0.2102
       5    H1      19.521039   17.837758   23.098050 H          1 MOL1         0.0687
       6    H2      18.196253   18.925829   22.696452 H          1 MOL1         0.0687
       7    C3      20.164113   19.805708   22.396965 C.3        1 MOL1        -0.1974
       8    H3      19.850069   20.541782   21.643643 H          1 MOL1         0.0689
       9    H4      20.098085   20.305344   23.373120 H          1 MOL1         0.0689
      10    C4      21.627772   19.390625   22.141353 C.3        1 MOL1        -0.2987
      11    H5      21.739387   18.926268   21.152544 H          1 MOL1         0.0700
      12    H6      22.290377   20.264973   22.180937 H          1 MOL1         0.0700
      13    H7      21.969322   18.671134   22.897044 H          1 MOL1         0.0700
@<TRIPOS>BOND
    1     1     2    1
    2     1     3    2
    3     1     4    1
    4     4     5    1
    5     4     6    1
    6     4     7    1
    7     7     8    1
    8     7     9    1
    9     7    10    1
   10    10    11    1
   11    10    12    1
   12    10    13    1
@<TRIPOS>SUBSTRUCTURE
       1 MOL1            1 RESIDUE      1      MOL     
@<SCITEGIC>MOL_PROPERTY
VConf Rank
SciTegic.value.IntegerValue
303

@<SCITEGIC>MOL_PROPERTY
Conf_Id
SciTegic.value.IntegerValue
4

@<SCITEGIC>MOL_PROPERTY
Delta U+W
SciTegic.value.DoubleValue
0.281

@<SCITEGIC>MOL_PROPERTY
U+W
SciTegic.value.DoubleValue
-58.051

@<SCITEGIC>MOL_PROPERTY
Grad RMS
SciTegic.value.DoubleValue
0.000000

@<SCITEGIC>MOL_PROPERTY
U
SciTegic.value.DoubleValue
9.781

@<SCITEGIC>MOL_PROPERTY
W
SciTegic.value.DoubleValue
-67.832

@<SCITEGIC>MOL_PROPERTY
W(PB)
SciTegic.value.DoubleValue
-69.535

@<SCITEGIC>MOL_PROPERTY
W(SA)
SciTegic.value.DoubleValue
1.703

@<SCITEGIC>MOL_PROPERTY
Valence
SciTegic.value.DoubleValue
6.123

@<SCITEGIC>MOL_PROPERTY
Coulomb
SciTegic.value.DoubleValue
3.449

@<SCITEGIC>MOL_PROPERTY
VdW
SciTegic.value.DoubleValue
0.209

@<SCITEGIC>MOL_PROPERTY
VdW6
SciTegic.value.DoubleValue
-3.762

@<SCITEGIC>MOL_PROPERTY
VdW12
SciTegic.value.DoubleValue
3.972

@<SCITEGIC>MOL_PROPERTY
Bond
SciTegic.value.DoubleValue
0.078

@<SCITEGIC>MOL_PROPERTY
Angle
SciTegic.value.DoubleValue
2.428

@<SCITEGIC>MOL_PROPERTY
Pdih
SciTegic.value.DoubleValue
3.616

@<SCITEGIC>MOL_PROPERTY
Idih
SciTegic.value.DoubleValue
0.002

@<SCITEGIC>MOL_PROPERTY
Tether
SciTegic.value.DoubleValue
0.000

@<TRIPOS>MOLECULE
guest-6_confgen4.mol2 : confsearch ligand conformer 304
          13          12           1
SMALL
USER_CHARGES
 
@<TRIPOS>ATOM
       1    C1      19.056162   17.997939   23.066514 C.2        1 MOL1         0.6021
       2    O1      18.265702   17.367321   22.393165 O.co2      1 MOL1        -0.6904
       3    O2      19.572232   17.562552   24.076568 O.co2      1 MOL1        -0.6904
       4    C2      19.393100   19.425560   22.643319 C.3        1 MOL1        -0.2102
       5    H1      19.305881   20.059749   23.533590 H          1 MOL1         0.0687
       6    H2      18.631741   19.770483   21.932933 H          1 MOL1         0.0687
       7    C3      20.807817   19.588711   22.030705 C.3        1 MOL1        -0.1974
       8    H3      21.021021   20.658087   21.897097 H          1 MOL1         0.0689
       9    H4      21.559539   19.202256   22.733192 H          1 MOL1         0.0689
      10    C4      20.948606   18.873154   20.671263 C.3        1 MOL1        -0.2987
      11    H5      20.220335   19.260420   19.946668 H          1 MOL1         0.0700
      12    H6      21.953699   19.024658   20.256617 H          1 MOL1         0.0700
      13    H7      20.785175   17.792286   20.775385 H          1 MOL1         0.0700
@<TRIPOS>BOND
    1     1     2    1
    2     1     3    2
    3     1     4    1
    4     4     5    1
    5     4     6    1
    6     4     7    1
    7     7     8    1
    8     7     9    1
    9     7    10    1
   10    10    11    1
   11    10    12    1
   12    10    13    1
@<TRIPOS>SUBSTRUCTURE
       1 MOL1            1 RESIDUE      1      MOL     
@<SCITEGIC>MOL_PROPERTY
VConf Rank
SciTegic.value.IntegerValue
304

@<SCITEGIC>MOL_PROPERTY
Conf_Id
SciTegic.value.IntegerValue
36

@<SCITEGIC>MOL_PROPERTY
Delta U+W
SciTegic.value.DoubleValue
0.272

@<SCITEGIC>MOL_PROPERTY
U+W
SciTegic.value.DoubleValue
-58.060

@<SCITEGIC>MOL_PROPERTY
Grad RMS
SciTegic.value.DoubleValue
0.000000

@<SCITEGIC>MOL_PROPERTY
U
SciTegic.value.DoubleValue
9.781

@<SCITEGIC>MOL_PROPERTY
W
SciTegic.value.DoubleValue
-67.841

@<SCITEGIC>MOL_PROPERTY
W(PB)
SciTegic.value.DoubleValue
-69.537

@<SCITEGIC>MOL_PROPERTY
W(SA)
SciTegic.value.DoubleValue
1.696

@<SCITEGIC>MOL_PROPERTY
Valence
SciTegic.value.DoubleValue
6.123

@<SCITEGIC>MOL_PROPERTY
Coulomb
SciTegic.value.DoubleValue
3.449

@<SCITEGIC>MOL_PROPERTY
VdW
SciTegic.value.DoubleValue
0.209

@<SCITEGIC>MOL_PROPERTY
VdW6
SciTegic.value.DoubleValue
-3.762

@<SCITEGIC>MOL_PROPERTY
VdW12
SciTegic.value.DoubleValue
3.972

@<SCITEGIC>MOL_PROPERTY
Bond
SciTegic.value.DoubleValue
0.078

@<SCITEGIC>MOL_PROPERTY
Angle
SciTegic.value.DoubleValue
2.428

@<SCITEGIC>MOL_PROPERTY
Pdih
SciTegic.value.DoubleValue
3.616

@<SCITEGIC>MOL_PROPERTY
Idih
SciTegic.value.DoubleValue
0.002

@<SCITEGIC>MOL_PROPERTY
Tether
SciTegic.value.DoubleValue
0.000

@<TRIPOS>MOLECULE
guest-6_confgen4.mol2 : confsearch ligand conformer 305
          13          12           1
SMALL
USER_CHARGES
 
@<TRIPOS>ATOM
       1    C1      19.565724   17.003326   21.229945 C.2        1 MOL1         0.6021
       2    O1      18.387276   16.956890   21.523942 O.co2      1 MOL1        -0.6904
       3    O2      20.162351   16.066282   20.739251 O.co2      1 MOL1        -0.6904
       4    C2      20.361434   18.286427   21.477286 C.3        1 MOL1        -0.2102
       5    H1      20.781977   18.601884   20.515014 H          1 MOL1         0.0687
       6    H2      21.206317   18.028050   22.126710 H          1 MOL1         0.0687
       7    C3      19.558450   19.455679   22.105000 C.3        1 MOL1        -0.1974
       8    H3      18.710592   19.711102   21.454114 H          1 MOL1         0.0689
       9    H4      19.135386   19.136538   23.067767 H          1 MOL1         0.0689
      10    C4      20.440165   20.702868   22.316975 C.3        1 MOL1        -0.2987
      11    H5      20.850614   21.060558   21.363501 H          1 MOL1         0.0700
      12    H6      19.855256   21.518686   22.761473 H          1 MOL1         0.0700
      13    H7      21.278850   20.481353   22.990074 H          1 MOL1         0.0700
@<TRIPOS>BOND
    1     1     2    1
    2     1     3    2
    3     1     4    1
    4     4     5    1
    5     4     6    1
    6     4     7    1
    7     7     8    1
    8     7     9    1
    9     7    10    1
   10    10    11    1
   11    10    12    1
   12    10    13    1
@<TRIPOS>SUBSTRUCTURE
       1 MOL1            1 RESIDUE      1      MOL     
@<SCITEGIC>MOL_PROPERTY
VConf Rank
SciTegic.value.IntegerValue
305

@<SCITEGIC>MOL_PROPERTY
Conf_Id
SciTegic.value.IntegerValue
0

@<SCITEGIC>MOL_PROPERTY
Delta U+W
SciTegic.value.DoubleValue
0.000

@<SCITEGIC>MOL_PROPERTY
U+W
SciTegic.value.DoubleValue
-58.332

@<SCITEGIC>MOL_PROPERTY
Grad RMS
SciTegic.value.DoubleValue
0.000000

@<SCITEGIC>MOL_PROPERTY
U
SciTegic.value.DoubleValue
8.390

@<SCITEGIC>MOL_PROPERTY
W
SciTegic.value.DoubleValue
-66.722

@<SCITEGIC>MOL_PROPERTY
W(PB)
SciTegic.value.DoubleValue
-68.455

@<SCITEGIC>MOL_PROPERTY
W(SA)
SciTegic.value.DoubleValue
1.733

@<SCITEGIC>MOL_PROPERTY
Valence
SciTegic.value.DoubleValue
6.333

@<SCITEGIC>MOL_PROPERTY
Coulomb
SciTegic.value.DoubleValue
1.215

@<SCITEGIC>MOL_PROPERTY
VdW
SciTegic.value.DoubleValue
0.842

@<SCITEGIC>MOL_PROPERTY
VdW6
SciTegic.value.DoubleValue
-3.344

@<SCITEGIC>MOL_PROPERTY
VdW12
SciTegic.value.DoubleValue
4.186

@<SCITEGIC>MOL_PROPERTY
Bond
SciTegic.value.DoubleValue
0.091

@<SCITEGIC>MOL_PROPERTY
Angle
SciTegic.value.DoubleValue
2.713

@<SCITEGIC>MOL_PROPERTY
Pdih
SciTegic.value.DoubleValue
3.529

@<SCITEGIC>MOL_PROPERTY
Idih
SciTegic.value.DoubleValue
0.000

@<SCITEGIC>MOL_PROPERTY
Tether
SciTegic.value.DoubleValue
0.000

@<TRIPOS>MOLECULE
guest-6_confgen4.mol2 : confsearch ligand conformer 306
          13          12           1
SMALL
USER_CHARGES
 
@<TRIPOS>ATOM
       1    C1      21.110274   17.580951   20.794482 C.2        1 MOL1         0.6021
       2    O1      20.709252   16.437751   20.881867 O.co2      1 MOL1        -0.6904
       3    O2      22.263688   17.870378   20.547036 O.co2      1 MOL1        -0.6904
       4    C2      20.116161   18.713821   21.026520 C.3        1 MOL1        -0.2102
       5    H1      19.131709   18.381451   20.675232 H          1 MOL1         0.0687
       6    H2      20.413581   19.562875   20.399091 H          1 MOL1         0.0687
       7    C3      20.033094   19.150510   22.509170 C.3        1 MOL1        -0.1974
       8    H3      19.744236   18.290157   23.128989 H          1 MOL1         0.0689
       9    H4      21.026307   19.471918   22.852749 H          1 MOL1         0.0689
      10    C4      19.020652   20.295867   22.710195 C.3        1 MOL1        -0.2987
      11    H5      18.975850   20.591427   23.766556 H          1 MOL1         0.0700
      12    H6      19.304885   21.178938   22.122869 H          1 MOL1         0.0700
      13    H7      18.012985   19.988093   22.401265 H          1 MOL1         0.0700
@<TRIPOS>BOND
    1     1     2    1
    2     1     3    2
    3     1     4    1
    4     4     5    1
    5     4     6    1
    6     4     7    1
    7     7     8    1
    8     7     9    1
    9     7    10    1
   10    10    11    1
   11    10    12    1
   12    10    13    1
@<TRIPOS>SUBSTRUCTURE
       1 MOL1            1 RESIDUE      1      MOL     
@<SCITEGIC>MOL_PROPERTY
VConf Rank
SciTegic.value.IntegerValue
306

@<SCITEGIC>MOL_PROPERTY
Conf_Id
SciTegic.value.IntegerValue
1

@<SCITEGIC>MOL_PROPERTY
Delta U+W
SciTegic.value.DoubleValue
-1.339

@<SCITEGIC>MOL_PROPERTY
U+W
SciTegic.value.DoubleValue
-59.672

@<SCITEGIC>MOL_PROPERTY
Grad RMS
SciTegic.value.DoubleValue
0.000000

@<SCITEGIC>MOL_PROPERTY
U
SciTegic.value.DoubleValue
7.389

@<SCITEGIC>MOL_PROPERTY
W
SciTegic.value.DoubleValue
-67.061

@<SCITEGIC>MOL_PROPERTY
W(PB)
SciTegic.value.DoubleValue
-68.767

@<SCITEGIC>MOL_PROPERTY
W(SA)
SciTegic.value.DoubleValue
1.707

@<SCITEGIC>MOL_PROPERTY
Valence
SciTegic.value.DoubleValue
5.822

@<SCITEGIC>MOL_PROPERTY
Coulomb
SciTegic.value.DoubleValue
1.255

@<SCITEGIC>MOL_PROPERTY
VdW
SciTegic.value.DoubleValue
0.312

@<SCITEGIC>MOL_PROPERTY
VdW6
SciTegic.value.DoubleValue
-3.061

@<SCITEGIC>MOL_PROPERTY
VdW12
SciTegic.value.DoubleValue
3.372

@<SCITEGIC>MOL_PROPERTY
Bond
SciTegic.value.DoubleValue
0.059

@<SCITEGIC>MOL_PROPERTY
Angle
SciTegic.value.DoubleValue
2.241

@<SCITEGIC>MOL_PROPERTY
Pdih
SciTegic.value.DoubleValue
3.522

@<SCITEGIC>MOL_PROPERTY
Idih
SciTegic.value.DoubleValue
0.000

@<SCITEGIC>MOL_PROPERTY
Tether
SciTegic.value.DoubleValue
0.000

@<TRIPOS>MOLECULE
guest-6_confgen4.mol2 : confsearch ligand conformer 307
          13          12           1
SMALL
USER_CHARGES
 
@<TRIPOS>ATOM
       1    C1      19.333915   20.571393   22.109638 C.2        1 MOL1         0.6021
       2    O1      18.223509   20.584714   22.602507 O.co2      1 MOL1        -0.6904
       3    O2      20.171674   21.424818   22.323481 O.co2      1 MOL1        -0.6904
       4    C2      19.679541   19.441142   21.143303 C.3        1 MOL1        -0.2102
       5    H1      20.557784   19.736859   20.556337 H          1 MOL1         0.0687
       6    H2      18.844837   19.346775   20.438499 H          1 MOL1         0.0687
       7    C3      19.931751   18.074189   21.829720 C.3        1 MOL1        -0.1974
       8    H3      19.062994   17.807169   22.447687 H          1 MOL1         0.0689
       9    H4      20.022362   17.296020   21.059580 H          1 MOL1         0.0689
      10    C4      21.207479   18.075600   22.697156 C.3        1 MOL1        -0.2987
      11    H5      21.133209   18.813374   23.507095 H          1 MOL1         0.0700
      12    H6      21.367149   17.089299   23.151921 H          1 MOL1         0.0700
      13    H7      22.091980   18.318656   22.093852 H          1 MOL1         0.0700
@<TRIPOS>BOND
    1     1     2    1
    2     1     3    2
    3     1     4    1
    4     4     5    1
    5     4     6    1
    6     4     7    1
    7     7     8    1
    8     7     9    1
    9     7    10    1
   10    10    11    1
   11    10    12    1
   12    10    13    1
@<TRIPOS>SUBSTRUCTURE
       1 MOL1            1 RESIDUE      1      MOL     
@<SCITEGIC>MOL_PROPERTY
VConf Rank
SciTegic.value.IntegerValue
307

@<SCITEGIC>MOL_PROPERTY
Conf_Id
SciTegic.value.IntegerValue
4

@<SCITEGIC>MOL_PROPERTY
Delta U+W
SciTegic.value.DoubleValue
0.281

@<SCITEGIC>MOL_PROPERTY
U+W
SciTegic.value.DoubleValue
-58.051

@<SCITEGIC>MOL_PROPERTY
Grad RMS
SciTegic.value.DoubleValue
0.000000

@<SCITEGIC>MOL_PROPERTY
U
SciTegic.value.DoubleValue
9.781

@<SCITEGIC>MOL_PROPERTY
W
SciTegic.value.DoubleValue
-67.832

@<SCITEGIC>MOL_PROPERTY
W(PB)
SciTegic.value.DoubleValue
-69.535

@<SCITEGIC>MOL_PROPERTY
W(SA)
SciTegic.value.DoubleValue
1.703

@<SCITEGIC>MOL_PROPERTY
Valence
SciTegic.value.DoubleValue
6.123

@<SCITEGIC>MOL_PROPERTY
Coulomb
SciTegic.value.DoubleValue
3.449

@<SCITEGIC>MOL_PROPERTY
VdW
SciTegic.value.DoubleValue
0.209

@<SCITEGIC>MOL_PROPERTY
VdW6
SciTegic.value.DoubleValue
-3.762

@<SCITEGIC>MOL_PROPERTY
VdW12
SciTegic.value.DoubleValue
3.972

@<SCITEGIC>MOL_PROPERTY
Bond
SciTegic.value.DoubleValue
0.078

@<SCITEGIC>MOL_PROPERTY
Angle
SciTegic.value.DoubleValue
2.428

@<SCITEGIC>MOL_PROPERTY
Pdih
SciTegic.value.DoubleValue
3.616

@<SCITEGIC>MOL_PROPERTY
Idih
SciTegic.value.DoubleValue
0.002

@<SCITEGIC>MOL_PROPERTY
Tether
SciTegic.value.DoubleValue
0.000

@<TRIPOS>MOLECULE
guest-6_confgen4.mol2 : confsearch ligand conformer 308
          13          12           1
SMALL
USER_CHARGES
 
@<TRIPOS>ATOM
       1    C1      18.541315   18.266064   21.511535 C.2        1 MOL1         0.6021
       2    O1      17.642507   18.845455   22.088037 O.co2      1 MOL1        -0.6904
       3    O2      18.460618   17.880383   20.362258 O.co2      1 MOL1        -0.6904
       4    C2      19.827479   17.974376   22.280577 C.3        1 MOL1        -0.2102
       5    H1      20.075882   16.919393   22.114165 H          1 MOL1         0.0687
       6    H2      19.628800   18.087551   23.353426 H          1 MOL1         0.0687
       7    C3      21.030423   18.859158   21.864138 C.3        1 MOL1        -0.1974
       8    H3      21.939697   18.483657   22.353109 H          1 MOL1         0.0689
       9    H4      21.194711   18.770333   20.781068 H          1 MOL1         0.0689
      10    C4      20.831240   20.341791   22.241036 C.3        1 MOL1        -0.2987
      11    H5      20.687305   20.455612   23.323496 H          1 MOL1         0.0700
      12    H6      21.707514   20.935851   21.950635 H          1 MOL1         0.0700
      13    H7      19.953521   20.763550   21.733537 H          1 MOL1         0.0700
@<TRIPOS>BOND
    1     1     2    1
    2     1     3    2
    3     1     4    1
    4     4     5    1
    5     4     6    1
    6     4     7    1
    7     7     8    1
    8     7     9    1
    9     7    10    1
   10    10    11    1
   11    10    12    1
   12    10    13    1
@<TRIPOS>SUBSTRUCTURE
       1 MOL1            1 RESIDUE      1      MOL     
@<SCITEGIC>MOL_PROPERTY
VConf Rank
SciTegic.value.IntegerValue
308

@<SCITEGIC>MOL_PROPERTY
Conf_Id
SciTegic.value.IntegerValue
36

@<SCITEGIC>MOL_PROPERTY
Delta U+W
SciTegic.value.DoubleValue
0.272

@<SCITEGIC>MOL_PROPERTY
U+W
SciTegic.value.DoubleValue
-58.060

@<SCITEGIC>MOL_PROPERTY
Grad RMS
SciTegic.value.DoubleValue
0.000000

@<SCITEGIC>MOL_PROPERTY
U
SciTegic.value.DoubleValue
9.781

@<SCITEGIC>MOL_PROPERTY
W
SciTegic.value.DoubleValue
-67.841

@<SCITEGIC>MOL_PROPERTY
W(PB)
SciTegic.value.DoubleValue
-69.537

@<SCITEGIC>MOL_PROPERTY
W(SA)
SciTegic.value.DoubleValue
1.696

@<SCITEGIC>MOL_PROPERTY
Valence
SciTegic.value.DoubleValue
6.123

@<SCITEGIC>MOL_PROPERTY
Coulomb
SciTegic.value.DoubleValue
3.449

@<SCITEGIC>MOL_PROPERTY
VdW
SciTegic.value.DoubleValue
0.209

@<SCITEGIC>MOL_PROPERTY
VdW6
SciTegic.value.DoubleValue
-3.762

@<SCITEGIC>MOL_PROPERTY
VdW12
SciTegic.value.DoubleValue
3.972

@<SCITEGIC>MOL_PROPERTY
Bond
SciTegic.value.DoubleValue
0.078

@<SCITEGIC>MOL_PROPERTY
Angle
SciTegic.value.DoubleValue
2.428

@<SCITEGIC>MOL_PROPERTY
Pdih
SciTegic.value.DoubleValue
3.616

@<SCITEGIC>MOL_PROPERTY
Idih
SciTegic.value.DoubleValue
0.002

@<SCITEGIC>MOL_PROPERTY
Tether
SciTegic.value.DoubleValue
0.000

@<TRIPOS>MOLECULE
guest-6_confgen4.mol2 : confsearch ligand conformer 309
          13          12           1
SMALL
USER_CHARGES
 
@<TRIPOS>ATOM
       1    C1      18.641498   17.377198   21.885309 C.2        1 MOL1         0.6021
       2    O1      17.974359   17.701183   22.848267 O.co2      1 MOL1        -0.6904
       3    O2      18.434687   16.364322   21.248043 O.co2      1 MOL1        -0.6904
       4    C2      19.801853   18.264568   21.430520 C.3        1 MOL1        -0.2102
       5    H1      19.614961   18.538286   20.385298 H          1 MOL1         0.0687
       6    H2      20.709387   17.649294   21.443050 H          1 MOL1         0.0687
       7    C3      20.028102   19.546566   22.273877 C.3        1 MOL1        -0.1974
       8    H3      19.116538   20.160305   22.262407 H          1 MOL1         0.0689
       9    H4      20.212238   19.270224   23.321485 H          1 MOL1         0.0689
      10    C4      21.214911   20.375550   21.742743 C.3        1 MOL1        -0.2987
      11    H5      21.040991   20.690872   20.705512 H          1 MOL1         0.0700
      12    H6      21.359389   21.277664   22.351490 H          1 MOL1         0.0700
      13    H7      22.145477   19.793612   21.773050 H          1 MOL1         0.0700
@<TRIPOS>BOND
    1     1     2    1
    2     1     3    2
    3     1     4    1
    4     4     5    1
    5     4     6    1
    6     4     7    1
    7     7     8    1
    8     7     9    1
    9     7    10    1
   10    10    11    1
   11    10    12    1
   12    10    13    1
@<TRIPOS>SUBSTRUCTURE
       1 MOL1            1 RESIDUE      1      MOL     
@<SCITEGIC>MOL_PROPERTY
VConf Rank
SciTegic.value.IntegerValue
309

@<SCITEGIC>MOL_PROPERTY
Conf_Id
SciTegic.value.IntegerValue
0

@<SCITEGIC>MOL_PROPERTY
Delta U+W
SciTegic.value.DoubleValue
0.000

@<SCITEGIC>MOL_PROPERTY
U+W
SciTegic.value.DoubleValue
-58.332

@<SCITEGIC>MOL_PROPERTY
Grad RMS
SciTegic.value.DoubleValue
0.000000

@<SCITEGIC>MOL_PROPERTY
U
SciTegic.value.DoubleValue
8.390

@<SCITEGIC>MOL_PROPERTY
W
SciTegic.value.DoubleValue
-66.722

@<SCITEGIC>MOL_PROPERTY
W(PB)
SciTegic.value.DoubleValue
-68.455

@<SCITEGIC>MOL_PROPERTY
W(SA)
SciTegic.value.DoubleValue
1.733

@<SCITEGIC>MOL_PROPERTY
Valence
SciTegic.value.DoubleValue
6.333

@<SCITEGIC>MOL_PROPERTY
Coulomb
SciTegic.value.DoubleValue
1.215

@<SCITEGIC>MOL_PROPERTY
VdW
SciTegic.value.DoubleValue
0.842

@<SCITEGIC>MOL_PROPERTY
VdW6
SciTegic.value.DoubleValue
-3.344

@<SCITEGIC>MOL_PROPERTY
VdW12
SciTegic.value.DoubleValue
4.186

@<SCITEGIC>MOL_PROPERTY
Bond
SciTegic.value.DoubleValue
0.091

@<SCITEGIC>MOL_PROPERTY
Angle
SciTegic.value.DoubleValue
2.713

@<SCITEGIC>MOL_PROPERTY
Pdih
SciTegic.value.DoubleValue
3.529

@<SCITEGIC>MOL_PROPERTY
Idih
SciTegic.value.DoubleValue
0.000

@<SCITEGIC>MOL_PROPERTY
Tether
SciTegic.value.DoubleValue
0.000

@<TRIPOS>MOLECULE
guest-6_confgen4.mol2 : confsearch ligand conformer 310
          13          12           1
SMALL
USER_CHARGES
 
@<TRIPOS>ATOM
       1    C1      21.480451   20.420381   21.257186 C.2        1 MOL1         0.6021
       2    O1      22.237587   20.784425   22.134442 O.co2      1 MOL1        -0.6904
       3    O2      21.248758   21.071075   20.258048 O.co2      1 MOL1        -0.6904
       4    C2      20.767978   19.083000   21.428340 C.3        1 MOL1        -0.2102
       5    H1      21.434326   18.409449   21.980905 H          1 MOL1         0.0687
       6    H2      20.618899   18.645829   20.433515 H          1 MOL1         0.0687
       7    C3      19.411430   19.210766   22.162710 C.3        1 MOL1        -0.1974
       8    H3      19.571770   19.658668   23.153415 H          1 MOL1         0.0689
       9    H4      18.756156   19.894981   21.605673 H          1 MOL1         0.0689
      10    C4      18.717201   17.843038   22.319729 C.3        1 MOL1        -0.2987
      11    H5      17.757996   17.953949   22.842114 H          1 MOL1         0.0700
      12    H6      18.519134   17.388338   21.340151 H          1 MOL1         0.0700
      13    H7      19.340988   17.150239   22.899794 H          1 MOL1         0.0700
@<TRIPOS>BOND
    1     1     2    1
    2     1     3    2
    3     1     4    1
    4     4     5    1
    5     4     6    1
    6     4     7    1
    7     7     8    1
    8     7     9    1
    9     7    10    1
   10    10    11    1
   11    10    12    1
   12    10    13    1
@<TRIPOS>SUBSTRUCTURE
       1 MOL1            1 RESIDUE      1      MOL     
@<SCITEGIC>MOL_PROPERTY
VConf Rank
SciTegic.value.IntegerValue
310

@<SCITEGIC>MOL_PROPERTY
Conf_Id
SciTegic.value.IntegerValue
1

@<SCITEGIC>MOL_PROPERTY
Delta U+W
SciTegic.value.DoubleValue
-1.339

@<SCITEGIC>MOL_PROPERTY
U+W
SciTegic.value.DoubleValue
-59.672

@<SCITEGIC>MOL_PROPERTY
Grad RMS
SciTegic.value.DoubleValue
0.000000

@<SCITEGIC>MOL_PROPERTY
U
SciTegic.value.DoubleValue
7.389

@<SCITEGIC>MOL_PROPERTY
W
SciTegic.value.DoubleValue
-67.061

@<SCITEGIC>MOL_PROPERTY
W(PB)
SciTegic.value.DoubleValue
-68.767

@<SCITEGIC>MOL_PROPERTY
W(SA)
SciTegic.value.DoubleValue
1.707

@<SCITEGIC>MOL_PROPERTY
Valence
SciTegic.value.DoubleValue
5.822

@<SCITEGIC>MOL_PROPERTY
Coulomb
SciTegic.value.DoubleValue
1.255

@<SCITEGIC>MOL_PROPERTY
VdW
SciTegic.value.DoubleValue
0.312

@<SCITEGIC>MOL_PROPERTY
VdW6
SciTegic.value.DoubleValue
-3.061

@<SCITEGIC>MOL_PROPERTY
VdW12
SciTegic.value.DoubleValue
3.372

@<SCITEGIC>MOL_PROPERTY
Bond
SciTegic.value.DoubleValue
0.059

@<SCITEGIC>MOL_PROPERTY
Angle
SciTegic.value.DoubleValue
2.241

@<SCITEGIC>MOL_PROPERTY
Pdih
SciTegic.value.DoubleValue
3.522

@<SCITEGIC>MOL_PROPERTY
Idih
SciTegic.value.DoubleValue
0.000

@<SCITEGIC>MOL_PROPERTY
Tether
SciTegic.value.DoubleValue
0.000

@<TRIPOS>MOLECULE
guest-6_confgen4.mol2 : confsearch ligand conformer 311
          13          12           1
SMALL
USER_CHARGES
 
@<TRIPOS>ATOM
       1    C1      18.884752   17.685085   22.160813 C.2        1 MOL1         0.6021
       2    O1      18.533285   17.424761   23.294304 O.co2      1 MOL1        -0.6904
       3    O2      18.120701   17.734582   21.217584 O.co2      1 MOL1        -0.6904
       4    C2      20.370261   17.926987   21.904933 C.3        1 MOL1        -0.2102
       5    H1      20.562398   17.827453   20.829543 H          1 MOL1         0.0687
       6    H2      20.923152   17.120560   22.401293 H          1 MOL1         0.0687
       7    C3      20.887332   19.296538   22.415134 C.3        1 MOL1        -0.1974
       8    H3      20.653050   19.403198   23.483618 H          1 MOL1         0.0689
       9    H4      21.982120   19.323083   22.327910 H          1 MOL1         0.0689
      10    C4      20.290388   20.482714   21.629911 C.3        1 MOL1        -0.2987
      11    H5      19.197439   20.513340   21.731657 H          1 MOL1         0.0700
      12    H6      20.691365   21.434279   22.002519 H          1 MOL1         0.0700
      13    H7      20.531941   20.407428   20.561559 H          1 MOL1         0.0700
@<TRIPOS>BOND
    1     1     2    1
    2     1     3    2
    3     1     4    1
    4     4     5    1
    5     4     6    1
    6     4     7    1
    7     7     8    1
    8     7     9    1
    9     7    10    1
   10    10    11    1
   11    10    12    1
   12    10    13    1
@<TRIPOS>SUBSTRUCTURE
       1 MOL1            1 RESIDUE      1      MOL     
@<SCITEGIC>MOL_PROPERTY
VConf Rank
SciTegic.value.IntegerValue
311

@<SCITEGIC>MOL_PROPERTY
Conf_Id
SciTegic.value.IntegerValue
4

@<SCITEGIC>MOL_PROPERTY
Delta U+W
SciTegic.value.DoubleValue
0.281

@<SCITEGIC>MOL_PROPERTY
U+W
SciTegic.value.DoubleValue
-58.051

@<SCITEGIC>MOL_PROPERTY
Grad RMS
SciTegic.value.DoubleValue
0.000000

@<SCITEGIC>MOL_PROPERTY
U
SciTegic.value.DoubleValue
9.781

@<SCITEGIC>MOL_PROPERTY
W
SciTegic.value.DoubleValue
-67.832

@<SCITEGIC>MOL_PROPERTY
W(PB)
SciTegic.value.DoubleValue
-69.535

@<SCITEGIC>MOL_PROPERTY
W(SA)
SciTegic.value.DoubleValue
1.703

@<SCITEGIC>MOL_PROPERTY
Valence
SciTegic.value.DoubleValue
6.123

@<SCITEGIC>MOL_PROPERTY
Coulomb
SciTegic.value.DoubleValue
3.449

@<SCITEGIC>MOL_PROPERTY
VdW
SciTegic.value.DoubleValue
0.209

@<SCITEGIC>MOL_PROPERTY
VdW6
SciTegic.value.DoubleValue
-3.762

@<SCITEGIC>MOL_PROPERTY
VdW12
SciTegic.value.DoubleValue
3.972

@<SCITEGIC>MOL_PROPERTY
Bond
SciTegic.value.DoubleValue
0.078

@<SCITEGIC>MOL_PROPERTY
Angle
SciTegic.value.DoubleValue
2.428

@<SCITEGIC>MOL_PROPERTY
Pdih
SciTegic.value.DoubleValue
3.616

@<SCITEGIC>MOL_PROPERTY
Idih
SciTegic.value.DoubleValue
0.002

@<SCITEGIC>MOL_PROPERTY
Tether
SciTegic.value.DoubleValue
0.000

@<TRIPOS>MOLECULE
guest-6_confgen4.mol2 : confsearch ligand conformer 312
          13          12           1
SMALL
USER_CHARGES
 
@<TRIPOS>ATOM
       1    C1      19.262017   17.414574   21.738129 C.2        1 MOL1         0.6021
       2    O1      18.081077   17.553231   21.987251 O.co2      1 MOL1        -0.6904
       3    O2      19.678171   16.721398   20.831255 O.co2      1 MOL1        -0.6904
       4    C2      20.279832   18.118603   22.632063 C.3        1 MOL1        -0.2102
       5    H1      21.039233   17.377782   22.909338 H          1 MOL1         0.0687
       6    H2      19.780942   18.423382   23.560237 H          1 MOL1         0.0687
       7    C3      20.968348   19.339756   21.970196 C.3        1 MOL1        -0.1974
       8    H3      21.783662   19.688448   22.618694 H          1 MOL1         0.0689
       9    H4      21.429367   19.032231   21.021085 H          1 MOL1         0.0689
      10    C4      19.989530   20.505687   21.720299 C.3        1 MOL1        -0.2987
      11    H5      19.533662   20.843664   22.660164 H          1 MOL1         0.0700
      12    H6      20.512027   21.359653   21.269927 H          1 MOL1         0.0700
      13    H7      19.183143   20.204767   21.038380 H          1 MOL1         0.0700
@<TRIPOS>BOND
    1     1     2    1
    2     1     3    2
    3     1     4    1
    4     4     5    1
    5     4     6    1
    6     4     7    1
    7     7     8    1
    8     7     9    1
    9     7    10    1
   10    10    11    1
   11    10    12    1
   12    10    13    1
@<TRIPOS>SUBSTRUCTURE
       1 MOL1            1 RESIDUE      1      MOL     
@<SCITEGIC>MOL_PROPERTY
VConf Rank
SciTegic.value.IntegerValue
312

@<SCITEGIC>MOL_PROPERTY
Conf_Id
SciTegic.value.IntegerValue
36

@<SCITEGIC>MOL_PROPERTY
Delta U+W
SciTegic.value.DoubleValue
0.272

@<SCITEGIC>MOL_PROPERTY
U+W
SciTegic.value.DoubleValue
-58.060

@<SCITEGIC>MOL_PROPERTY
Grad RMS
SciTegic.value.DoubleValue
0.000000

@<SCITEGIC>MOL_PROPERTY
U
SciTegic.value.DoubleValue
9.781

@<SCITEGIC>MOL_PROPERTY
W
SciTegic.value.DoubleValue
-67.841

@<SCITEGIC>MOL_PROPERTY
W(PB)
SciTegic.value.DoubleValue
-69.537

@<SCITEGIC>MOL_PROPERTY
W(SA)
SciTegic.value.DoubleValue
1.696

@<SCITEGIC>MOL_PROPERTY
Valence
SciTegic.value.DoubleValue
6.123

@<SCITEGIC>MOL_PROPERTY
Coulomb
SciTegic.value.DoubleValue
3.449

@<SCITEGIC>MOL_PROPERTY
VdW
SciTegic.value.DoubleValue
0.209

@<SCITEGIC>MOL_PROPERTY
VdW6
SciTegic.value.DoubleValue
-3.762

@<SCITEGIC>MOL_PROPERTY
VdW12
SciTegic.value.DoubleValue
3.972

@<SCITEGIC>MOL_PROPERTY
Bond
SciTegic.value.DoubleValue
0.078

@<SCITEGIC>MOL_PROPERTY
Angle
SciTegic.value.DoubleValue
2.428

@<SCITEGIC>MOL_PROPERTY
Pdih
SciTegic.value.DoubleValue
3.616

@<SCITEGIC>MOL_PROPERTY
Idih
SciTegic.value.DoubleValue
0.002

@<SCITEGIC>MOL_PROPERTY
Tether
SciTegic.value.DoubleValue
0.000

@<TRIPOS>MOLECULE
guest-6_confgen4.mol2 : confsearch ligand conformer 313
          13          12           1
SMALL
USER_CHARGES
 
@<TRIPOS>ATOM
       1    C1      21.433830   17.407399   21.688808 C.2        1 MOL1         0.6021
       2    O1      22.466356   18.042253   21.598375 O.co2      1 MOL1        -0.6904
       3    O2      21.401602   16.193416   21.687334 O.co2      1 MOL1        -0.6904
       4    C2      20.097405   18.142036   21.811118 C.3        1 MOL1        -0.2102
       5    H1      19.619800   17.801450   22.737526 H          1 MOL1         0.0687
       6    H2      19.462577   17.807731   20.981919 H          1 MOL1         0.0687
       7    C3      20.187703   19.690519   21.808577 C.3        1 MOL1        -0.1974
       8    H3      20.826640   20.023305   22.638498 H          1 MOL1         0.0689
       9    H4      20.669296   20.029596   20.880758 H          1 MOL1         0.0689
      10    C4      18.795990   20.342335   21.935482 C.3        1 MOL1        -0.2987
      11    H5      18.305860   20.043186   22.871327 H          1 MOL1         0.0700
      12    H6      18.880090   21.436945   21.931838 H          1 MOL1         0.0700
      13    H7      18.147242   20.049475   21.099491 H          1 MOL1         0.0700
@<TRIPOS>BOND
    1     1     2    1
    2     1     3    2
    3     1     4    1
    4     4     5    1
    5     4     6    1
    6     4     7    1
    7     7     8    1
    8     7     9    1
    9     7    10    1
   10    10    11    1
   11    10    12    1
   12    10    13    1
@<TRIPOS>SUBSTRUCTURE
       1 MOL1            1 RESIDUE      1      MOL     
@<SCITEGIC>MOL_PROPERTY
VConf Rank
SciTegic.value.IntegerValue
313

@<SCITEGIC>MOL_PROPERTY
Conf_Id
SciTegic.value.IntegerValue
0

@<SCITEGIC>MOL_PROPERTY
Delta U+W
SciTegic.value.DoubleValue
0.000

@<SCITEGIC>MOL_PROPERTY
U+W
SciTegic.value.DoubleValue
-58.332

@<SCITEGIC>MOL_PROPERTY
Grad RMS
SciTegic.value.DoubleValue
0.000000

@<SCITEGIC>MOL_PROPERTY
U
SciTegic.value.DoubleValue
8.390

@<SCITEGIC>MOL_PROPERTY
W
SciTegic.value.DoubleValue
-66.722

@<SCITEGIC>MOL_PROPERTY
W(PB)
SciTegic.value.DoubleValue
-68.455

@<SCITEGIC>MOL_PROPERTY
W(SA)
SciTegic.value.DoubleValue
1.733

@<SCITEGIC>MOL_PROPERTY
Valence
SciTegic.value.DoubleValue
6.333

@<SCITEGIC>MOL_PROPERTY
Coulomb
SciTegic.value.DoubleValue
1.215

@<SCITEGIC>MOL_PROPERTY
VdW
SciTegic.value.DoubleValue
0.842

@<SCITEGIC>MOL_PROPERTY
VdW6
SciTegic.value.DoubleValue
-3.344

@<SCITEGIC>MOL_PROPERTY
VdW12
SciTegic.value.DoubleValue
4.186

@<SCITEGIC>MOL_PROPERTY
Bond
SciTegic.value.DoubleValue
0.091

@<SCITEGIC>MOL_PROPERTY
Angle
SciTegic.value.DoubleValue
2.713

@<SCITEGIC>MOL_PROPERTY
Pdih
SciTegic.value.DoubleValue
3.529

@<SCITEGIC>MOL_PROPERTY
Idih
SciTegic.value.DoubleValue
0.000

@<SCITEGIC>MOL_PROPERTY
Tether
SciTegic.value.DoubleValue
0.000

@<TRIPOS>MOLECULE
guest-6_confgen4.mol2 : confsearch ligand conformer 314
          13          12           1
SMALL
USER_CHARGES
 
@<TRIPOS>ATOM
       1    C1      20.750518   20.893779   22.497449 C.2        1 MOL1         0.6021
       2    O1      21.235568   20.903028   23.611003 O.co2      1 MOL1        -0.6904
       3    O2      20.299767   21.881945   21.953655 O.co2      1 MOL1        -0.6904
       4    C2      20.686938   19.566446   21.749356 C.3        1 MOL1        -0.2102
       5    H1      21.556865   18.966719   22.043588 H          1 MOL1         0.0687
       6    H2      20.785169   19.773994   20.676839 H          1 MOL1         0.0687
       7    C3      19.381477   18.780934   22.022472 C.3        1 MOL1        -0.1974
       8    H3      19.288852   18.587483   23.100349 H          1 MOL1         0.0689
       9    H4      18.517033   19.394853   21.733227 H          1 MOL1         0.0689
      10    C4      19.348129   17.445451   21.252626 C.3        1 MOL1        -0.2987
      11    H5      18.415939   16.903432   21.458781 H          1 MOL1         0.0700
      12    H6      19.409353   17.614819   20.169519 H          1 MOL1         0.0700
      13    H7      20.187066   16.801254   21.547161 H          1 MOL1         0.0700
@<TRIPOS>BOND
    1     1     2    1
    2     1     3    2
    3     1     4    1
    4     4     5    1
    5     4     6    1
    6     4     7    1
    7     7     8    1
    8     7     9    1
    9     7    10    1
   10    10    11    1
   11    10    12    1
   12    10    13    1
@<TRIPOS>SUBSTRUCTURE
       1 MOL1            1 RESIDUE      1      MOL     
@<SCITEGIC>MOL_PROPERTY
VConf Rank
SciTegic.value.IntegerValue
314

@<SCITEGIC>MOL_PROPERTY
Conf_Id
SciTegic.value.IntegerValue
1

@<SCITEGIC>MOL_PROPERTY
Delta U+W
SciTegic.value.DoubleValue
-1.339

@<SCITEGIC>MOL_PROPERTY
U+W
SciTegic.value.DoubleValue
-59.672

@<SCITEGIC>MOL_PROPERTY
Grad RMS
SciTegic.value.DoubleValue
0.000000

@<SCITEGIC>MOL_PROPERTY
U
SciTegic.value.DoubleValue
7.389

@<SCITEGIC>MOL_PROPERTY
W
SciTegic.value.DoubleValue
-67.061

@<SCITEGIC>MOL_PROPERTY
W(PB)
SciTegic.value.DoubleValue
-68.767

@<SCITEGIC>MOL_PROPERTY
W(SA)
SciTegic.value.DoubleValue
1.707

@<SCITEGIC>MOL_PROPERTY
Valence
SciTegic.value.DoubleValue
5.822

@<SCITEGIC>MOL_PROPERTY
Coulomb
SciTegic.value.DoubleValue
1.255

@<SCITEGIC>MOL_PROPERTY
VdW
SciTegic.value.DoubleValue
0.312

@<SCITEGIC>MOL_PROPERTY
VdW6
SciTegic.value.DoubleValue
-3.061

@<SCITEGIC>MOL_PROPERTY
VdW12
SciTegic.value.DoubleValue
3.372

@<SCITEGIC>MOL_PROPERTY
Bond
SciTegic.value.DoubleValue
0.059

@<SCITEGIC>MOL_PROPERTY
Angle
SciTegic.value.DoubleValue
2.241

@<SCITEGIC>MOL_PROPERTY
Pdih
SciTegic.value.DoubleValue
3.522

@<SCITEGIC>MOL_PROPERTY
Idih
SciTegic.value.DoubleValue
0.000

@<SCITEGIC>MOL_PROPERTY
Tether
SciTegic.value.DoubleValue
0.000

@<TRIPOS>MOLECULE
guest-6_confgen4.mol2 : confsearch ligand conformer 315
          13          12           1
SMALL
USER_CHARGES
 
@<TRIPOS>ATOM
       1    C1      20.621156   17.273740   22.305759 C.2        1 MOL1         0.6021
       2    O1      21.330813   16.763550   21.461845 O.co2      1 MOL1        -0.6904
       3    O2      20.772695   17.104837   23.499247 O.co2      1 MOL1        -0.6904
       4    C2      19.456848   18.143363   21.837922 C.3        1 MOL1        -0.2102
       5    H1      18.747160   18.256022   22.666740 H          1 MOL1         0.0687
       6    H2      18.934592   17.592506   21.046599 H          1 MOL1         0.0687
       7    C3      19.879480   19.536042   21.303914 C.3        1 MOL1        -0.1974
       8    H3      20.621199   19.412916   20.502281 H          1 MOL1         0.0689
       9    H4      19.006953   20.028778   20.853601 H          1 MOL1         0.0689
      10    C4      20.454746   20.443219   22.411175 C.3        1 MOL1        -0.2987
      11    H5      21.356813   20.001109   22.854618 H          1 MOL1         0.0700
      12    H6      20.725096   21.426290   22.004262 H          1 MOL1         0.0700
      13    H7      19.720632   20.597639   23.212813 H          1 MOL1         0.0700
@<TRIPOS>BOND
    1     1     2    1
    2     1     3    2
    3     1     4    1
    4     4     5    1
    5     4     6    1
    6     4     7    1
    7     7     8    1
    8     7     9    1
    9     7    10    1
   10    10    11    1
   11    10    12    1
   12    10    13    1
@<TRIPOS>SUBSTRUCTURE
       1 MOL1            1 RESIDUE      1      MOL     
@<SCITEGIC>MOL_PROPERTY
VConf Rank
SciTegic.value.IntegerValue
315

@<SCITEGIC>MOL_PROPERTY
Conf_Id
SciTegic.value.IntegerValue
4

@<SCITEGIC>MOL_PROPERTY
Delta U+W
SciTegic.value.DoubleValue
0.281

@<SCITEGIC>MOL_PROPERTY
U+W
SciTegic.value.DoubleValue
-58.051

@<SCITEGIC>MOL_PROPERTY
Grad RMS
SciTegic.value.DoubleValue
0.000000

@<SCITEGIC>MOL_PROPERTY
U
SciTegic.value.DoubleValue
9.781

@<SCITEGIC>MOL_PROPERTY
W
SciTegic.value.DoubleValue
-67.832

@<SCITEGIC>MOL_PROPERTY
W(PB)
SciTegic.value.DoubleValue
-69.535

@<SCITEGIC>MOL_PROPERTY
W(SA)
SciTegic.value.DoubleValue
1.703

@<SCITEGIC>MOL_PROPERTY
Valence
SciTegic.value.DoubleValue
6.123

@<SCITEGIC>MOL_PROPERTY
Coulomb
SciTegic.value.DoubleValue
3.449

@<SCITEGIC>MOL_PROPERTY
VdW
SciTegic.value.DoubleValue
0.209

@<SCITEGIC>MOL_PROPERTY
VdW6
SciTegic.value.DoubleValue
-3.762

@<SCITEGIC>MOL_PROPERTY
VdW12
SciTegic.value.DoubleValue
3.972

@<SCITEGIC>MOL_PROPERTY
Bond
SciTegic.value.DoubleValue
0.078

@<SCITEGIC>MOL_PROPERTY
Angle
SciTegic.value.DoubleValue
2.428

@<SCITEGIC>MOL_PROPERTY
Pdih
SciTegic.value.DoubleValue
3.616

@<SCITEGIC>MOL_PROPERTY
Idih
SciTegic.value.DoubleValue
0.002

@<SCITEGIC>MOL_PROPERTY
Tether
SciTegic.value.DoubleValue
0.000

@<TRIPOS>MOLECULE
guest-6_confgen4.mol2 : confsearch ligand conformer 316
          13          12           1
SMALL
USER_CHARGES
 
@<TRIPOS>ATOM
       1    C1      21.899384   19.076697   21.848124 C.2        1 MOL1         0.6021
       2    O1      22.202678   20.145353   21.356298 O.co2      1 MOL1        -0.6904
       3    O2      22.541606   18.537939   22.727549 O.co2      1 MOL1        -0.6904
       4    C2      20.667160   18.353709   21.309944 C.3        1 MOL1        -0.2102
       5    H1      20.955872   17.313235   21.119038 H          1 MOL1         0.0687
       6    H2      20.398710   18.790893   20.340361 H          1 MOL1         0.0687
       7    C3      19.446488   18.383058   22.265159 C.3        1 MOL1        -0.1974
       8    H3      18.665112   17.718922   21.871144 H          1 MOL1         0.0689
       9    H4      19.737307   17.981291   23.245939 H          1 MOL1         0.0689
      10    C4      18.863767   19.801328   22.435080 C.3        1 MOL1        -0.2987
      11    H5      18.545825   20.213374   21.468373 H          1 MOL1         0.0700
      12    H6      17.990759   19.783709   23.100393 H          1 MOL1         0.0700
      13    H7      19.606342   20.483668   22.869615 H          1 MOL1         0.0700
@<TRIPOS>BOND
    1     1     2    1
    2     1     3    2
    3     1     4    1
    4     4     5    1
    5     4     6    1
    6     4     7    1
    7     7     8    1
    8     7     9    1
    9     7    10    1
   10    10    11    1
   11    10    12    1
   12    10    13    1
@<TRIPOS>SUBSTRUCTURE
       1 MOL1            1 RESIDUE      1      MOL     
@<SCITEGIC>MOL_PROPERTY
VConf Rank
SciTegic.value.IntegerValue
316

@<SCITEGIC>MOL_PROPERTY
Conf_Id
SciTegic.value.IntegerValue
36

@<SCITEGIC>MOL_PROPERTY
Delta U+W
SciTegic.value.DoubleValue
0.272

@<SCITEGIC>MOL_PROPERTY
U+W
SciTegic.value.DoubleValue
-58.060

@<SCITEGIC>MOL_PROPERTY
Grad RMS
SciTegic.value.DoubleValue
0.000000

@<SCITEGIC>MOL_PROPERTY
U
SciTegic.value.DoubleValue
9.781

@<SCITEGIC>MOL_PROPERTY
W
SciTegic.value.DoubleValue
-67.841

@<SCITEGIC>MOL_PROPERTY
W(PB)
SciTegic.value.DoubleValue
-69.537

@<SCITEGIC>MOL_PROPERTY
W(SA)
SciTegic.value.DoubleValue
1.696

@<SCITEGIC>MOL_PROPERTY
Valence
SciTegic.value.DoubleValue
6.123

@<SCITEGIC>MOL_PROPERTY
Coulomb
SciTegic.value.DoubleValue
3.449

@<SCITEGIC>MOL_PROPERTY
VdW
SciTegic.value.DoubleValue
0.209

@<SCITEGIC>MOL_PROPERTY
VdW6
SciTegic.value.DoubleValue
-3.762

@<SCITEGIC>MOL_PROPERTY
VdW12
SciTegic.value.DoubleValue
3.972

@<SCITEGIC>MOL_PROPERTY
Bond
SciTegic.value.DoubleValue
0.078

@<SCITEGIC>MOL_PROPERTY
Angle
SciTegic.value.DoubleValue
2.428

@<SCITEGIC>MOL_PROPERTY
Pdih
SciTegic.value.DoubleValue
3.616

@<SCITEGIC>MOL_PROPERTY
Idih
SciTegic.value.DoubleValue
0.002

@<SCITEGIC>MOL_PROPERTY
Tether
SciTegic.value.DoubleValue
0.000

@<TRIPOS>MOLECULE
guest-6_confgen4.mol2 : confsearch ligand conformer 317
          13          12           1
SMALL
USER_CHARGES
 
@<TRIPOS>ATOM
       1    C1      21.182644   17.228788   21.571445 C.2        1 MOL1         0.6021
       2    O1      21.975964   17.608057   20.732323 O.co2      1 MOL1        -0.6904
       3    O2      21.194527   16.105550   22.032954 O.co2      1 MOL1        -0.6904
       4    C2      20.107885   18.186256   22.089935 C.3        1 MOL1        -0.2102
       5    H1      20.226537   18.253940   23.177904 H          1 MOL1         0.0687
       6    H2      19.134100   17.718332   21.902515 H          1 MOL1         0.0687
       7    C3      20.131449   19.608909   21.472308 C.3        1 MOL1        -0.1974
       8    H3      21.109115   20.074932   21.658709 H          1 MOL1         0.0689
       9    H4      20.015409   19.538663   20.381732 H          1 MOL1         0.0689
      10    C4      19.015669   20.500602   22.053474 C.3        1 MOL1        -0.2987
      11    H5      19.127656   20.612064   23.140009 H          1 MOL1         0.0700
      12    H6      19.048266   21.502101   21.604927 H          1 MOL1         0.0700
      13    H7      18.025171   20.071449   21.852817 H          1 MOL1         0.0700
@<TRIPOS>BOND
    1     1     2    1
    2     1     3    2
    3     1     4    1
    4     4     5    1
    5     4     6    1
    6     4     7    1
    7     7     8    1
    8     7     9    1
    9     7    10    1
   10    10    11    1
   11    10    12    1
   12    10    13    1
@<TRIPOS>SUBSTRUCTURE
       1 MOL1            1 RESIDUE      1      MOL     
@<SCITEGIC>MOL_PROPERTY
VConf Rank
SciTegic.value.IntegerValue
317

@<SCITEGIC>MOL_PROPERTY
Conf_Id
SciTegic.value.IntegerValue
0

@<SCITEGIC>MOL_PROPERTY
Delta U+W
SciTegic.value.DoubleValue
0.000

@<SCITEGIC>MOL_PROPERTY
U+W
SciTegic.value.DoubleValue
-58.332

@<SCITEGIC>MOL_PROPERTY
Grad RMS
SciTegic.value.DoubleValue
0.000000

@<SCITEGIC>MOL_PROPERTY
U
SciTegic.value.DoubleValue
8.390

@<SCITEGIC>MOL_PROPERTY
W
SciTegic.value.DoubleValue
-66.722

@<SCITEGIC>MOL_PROPERTY
W(PB)
SciTegic.value.DoubleValue
-68.455

@<SCITEGIC>MOL_PROPERTY
W(SA)
SciTegic.value.DoubleValue
1.733

@<SCITEGIC>MOL_PROPERTY
Valence
SciTegic.value.DoubleValue
6.333

@<SCITEGIC>MOL_PROPERTY
Coulomb
SciTegic.value.DoubleValue
1.215

@<SCITEGIC>MOL_PROPERTY
VdW
SciTegic.value.DoubleValue
0.842

@<SCITEGIC>MOL_PROPERTY
VdW6
SciTegic.value.DoubleValue
-3.344

@<SCITEGIC>MOL_PROPERTY
VdW12
SciTegic.value.DoubleValue
4.186

@<SCITEGIC>MOL_PROPERTY
Bond
SciTegic.value.DoubleValue
0.091

@<SCITEGIC>MOL_PROPERTY
Angle
SciTegic.value.DoubleValue
2.713

@<SCITEGIC>MOL_PROPERTY
Pdih
SciTegic.value.DoubleValue
3.529

@<SCITEGIC>MOL_PROPERTY
Idih
SciTegic.value.DoubleValue
0.000

@<SCITEGIC>MOL_PROPERTY
Tether
SciTegic.value.DoubleValue
0.000

@<TRIPOS>MOLECULE
guest-6_confgen4.mol2 : confsearch ligand conformer 318
          13          12           1
SMALL
USER_CHARGES
 
@<TRIPOS>ATOM
       1    C1      19.089530   18.477358   23.658020 C.2        1 MOL1         0.6021
       2    O1      19.525669   19.015242   24.655931 O.co2      1 MOL1        -0.6904
       3    O2      18.528266   17.400205   23.667171 O.co2      1 MOL1        -0.6904
       4    C2      19.273208   19.183675   22.319037 C.3        1 MOL1        -0.2102
       5    H1      19.239403   20.265554   22.496281 H          1 MOL1         0.0687
       6    H2      18.416869   18.933711   21.680899 H          1 MOL1         0.0687
       7    C3      20.595102   18.801075   21.610472 C.3        1 MOL1        -0.1974
       8    H3      21.444901   19.046685   22.262652 H          1 MOL1         0.0689
       9    H4      20.622151   17.714627   21.447006 H          1 MOL1         0.0689
      10    C4      20.750689   19.531089   20.261338 C.3        1 MOL1        -0.2987
      11    H5      21.692847   19.247257   19.774471 H          1 MOL1         0.0700
      12    H6      19.927470   19.277698   19.580414 H          1 MOL1         0.0700
      13    H7      20.756569   20.619962   20.402330 H          1 MOL1         0.0700
@<TRIPOS>BOND
    1     1     2    1
    2     1     3    2
    3     1     4    1
    4     4     5    1
    5     4     6    1
    6     4     7    1
    7     7     8    1
    8     7     9    1
    9     7    10    1
   10    10    11    1
   11    10    12    1
   12    10    13    1
@<TRIPOS>SUBSTRUCTURE
       1 MOL1            1 RESIDUE      1      MOL     
@<SCITEGIC>MOL_PROPERTY
VConf Rank
SciTegic.value.IntegerValue
318

@<SCITEGIC>MOL_PROPERTY
Conf_Id
SciTegic.value.IntegerValue
1

@<SCITEGIC>MOL_PROPERTY
Delta U+W
SciTegic.value.DoubleValue
-1.339

@<SCITEGIC>MOL_PROPERTY
U+W
SciTegic.value.DoubleValue
-59.672

@<SCITEGIC>MOL_PROPERTY
Grad RMS
SciTegic.value.DoubleValue
0.000000

@<SCITEGIC>MOL_PROPERTY
U
SciTegic.value.DoubleValue
7.389

@<SCITEGIC>MOL_PROPERTY
W
SciTegic.value.DoubleValue
-67.061

@<SCITEGIC>MOL_PROPERTY
W(PB)
SciTegic.value.DoubleValue
-68.767

@<SCITEGIC>MOL_PROPERTY
W(SA)
SciTegic.value.DoubleValue
1.707

@<SCITEGIC>MOL_PROPERTY
Valence
SciTegic.value.DoubleValue
5.822

@<SCITEGIC>MOL_PROPERTY
Coulomb
SciTegic.value.DoubleValue
1.255

@<SCITEGIC>MOL_PROPERTY
VdW
SciTegic.value.DoubleValue
0.312

@<SCITEGIC>MOL_PROPERTY
VdW6
SciTegic.value.DoubleValue
-3.061

@<SCITEGIC>MOL_PROPERTY
VdW12
SciTegic.value.DoubleValue
3.372

@<SCITEGIC>MOL_PROPERTY
Bond
SciTegic.value.DoubleValue
0.059

@<SCITEGIC>MOL_PROPERTY
Angle
SciTegic.value.DoubleValue
2.241

@<SCITEGIC>MOL_PROPERTY
Pdih
SciTegic.value.DoubleValue
3.522

@<SCITEGIC>MOL_PROPERTY
Idih
SciTegic.value.DoubleValue
0.000

@<SCITEGIC>MOL_PROPERTY
Tether
SciTegic.value.DoubleValue
0.000

@<TRIPOS>MOLECULE
guest-6_confgen4.mol2 : confsearch ligand conformer 319
          13          12           1
SMALL
USER_CHARGES
 
@<TRIPOS>ATOM
       1    C1      18.362649   19.289644   22.015679 C.2        1 MOL1         0.6021
       2    O1      17.653472   18.356598   22.335981 O.co2      1 MOL1        -0.6904
       3    O2      18.161550   20.435026   22.367197 O.co2      1 MOL1        -0.6904
       4    C2      19.547224   19.010760   21.093870 C.3        1 MOL1        -0.2102
       5    H1      19.878296   19.958013   20.650710 H          1 MOL1         0.0687
       6    H2      19.180679   18.386821   20.270019 H          1 MOL1         0.0687
       7    C3      20.738020   18.300972   21.787804 C.3        1 MOL1        -0.1974
       8    H3      20.387233   17.374378   22.263509 H          1 MOL1         0.0689
       9    H4      21.474043   18.006255   21.027353 H          1 MOL1         0.0689
      10    C4      21.428705   19.196263   22.837251 C.3        1 MOL1        -0.2987
      11    H5      20.731651   19.474482   23.638836 H          1 MOL1         0.0700
      12    H6      22.277762   18.671787   23.294550 H          1 MOL1         0.0700
      13    H7      21.806899   20.119011   22.378016 H          1 MOL1         0.0700
@<TRIPOS>BOND
    1     1     2    1
    2     1     3    2
    3     1     4    1
    4     4     5    1
    5     4     6    1
    6     4     7    1
    7     7     8    1
    8     7     9    1
    9     7    10    1
   10    10    11    1
   11    10    12    1
   12    10    13    1
@<TRIPOS>SUBSTRUCTURE
       1 MOL1            1 RESIDUE      1      MOL     
@<SCITEGIC>MOL_PROPERTY
VConf Rank
SciTegic.value.IntegerValue
319

@<SCITEGIC>MOL_PROPERTY
Conf_Id
SciTegic.value.IntegerValue
4

@<SCITEGIC>MOL_PROPERTY
Delta U+W
SciTegic.value.DoubleValue
0.281

@<SCITEGIC>MOL_PROPERTY
U+W
SciTegic.value.DoubleValue
-58.051

@<SCITEGIC>MOL_PROPERTY
Grad RMS
SciTegic.value.DoubleValue
0.000000

@<SCITEGIC>MOL_PROPERTY
U
SciTegic.value.DoubleValue
9.781

@<SCITEGIC>MOL_PROPERTY
W
SciTegic.value.DoubleValue
-67.832

@<SCITEGIC>MOL_PROPERTY
W(PB)
SciTegic.value.DoubleValue
-69.535

@<SCITEGIC>MOL_PROPERTY
W(SA)
SciTegic.value.DoubleValue
1.703

@<SCITEGIC>MOL_PROPERTY
Valence
SciTegic.value.DoubleValue
6.123

@<SCITEGIC>MOL_PROPERTY
Coulomb
SciTegic.value.DoubleValue
3.449

@<SCITEGIC>MOL_PROPERTY
VdW
SciTegic.value.DoubleValue
0.209

@<SCITEGIC>MOL_PROPERTY
VdW6
SciTegic.value.DoubleValue
-3.762

@<SCITEGIC>MOL_PROPERTY
VdW12
SciTegic.value.DoubleValue
3.972

@<SCITEGIC>MOL_PROPERTY
Bond
SciTegic.value.DoubleValue
0.078

@<SCITEGIC>MOL_PROPERTY
Angle
SciTegic.value.DoubleValue
2.428

@<SCITEGIC>MOL_PROPERTY
Pdih
SciTegic.value.DoubleValue
3.616

@<SCITEGIC>MOL_PROPERTY
Idih
SciTegic.value.DoubleValue
0.002

@<SCITEGIC>MOL_PROPERTY
Tether
SciTegic.value.DoubleValue
0.000

@<TRIPOS>MOLECULE
guest-6_confgen4.mol2 : confsearch ligand conformer 320
          13          12           1
SMALL
USER_CHARGES
 
@<TRIPOS>ATOM
       1    C1      21.753788   18.987221   22.725629 C.2        1 MOL1         0.6021
       2    O1      22.000736   17.896950   23.201267 O.co2      1 MOL1        -0.6904
       3    O2      22.581206   19.674120   22.160257 O.co2      1 MOL1        -0.6904
       4    C2      20.339160   19.541177   22.876248 C.3        1 MOL1        -0.2102
       5    H1      20.428612   20.572546   23.237721 H          1 MOL1         0.0687
       6    H2      19.821498   18.974645   23.660056 H          1 MOL1         0.0687
       7    C3      19.508137   19.523768   21.567648 C.3        1 MOL1        -0.1974
       8    H3      18.570329   20.072569   21.729533 H          1 MOL1         0.0689
       9    H4      20.054500   20.058339   20.777937 H          1 MOL1         0.0689
      10    C4      19.179248   18.092181   21.096144 C.3        1 MOL1        -0.2987
      11    H5      18.613194   17.546866   21.862699 H          1 MOL1         0.0700
      12    H6      18.574672   18.115892   20.180163 H          1 MOL1         0.0700
      13    H7      20.095930   17.526902   20.881714 H          1 MOL1         0.0700
@<TRIPOS>BOND
    1     1     2    1
    2     1     3    2
    3     1     4    1
    4     4     5    1
    5     4     6    1
    6     4     7    1
    7     7     8    1
    8     7     9    1
    9     7    10    1
   10    10    11    1
   11    10    12    1
   12    10    13    1
@<TRIPOS>SUBSTRUCTURE
       1 MOL1            1 RESIDUE      1      MOL     
@<SCITEGIC>MOL_PROPERTY
VConf Rank
SciTegic.value.IntegerValue
320

@<SCITEGIC>MOL_PROPERTY
Conf_Id
SciTegic.value.IntegerValue
36

@<SCITEGIC>MOL_PROPERTY
Delta U+W
SciTegic.value.DoubleValue
0.272

@<SCITEGIC>MOL_PROPERTY
U+W
SciTegic.value.DoubleValue
-58.060

@<SCITEGIC>MOL_PROPERTY
Grad RMS
SciTegic.value.DoubleValue
0.000000

@<SCITEGIC>MOL_PROPERTY
U
SciTegic.value.DoubleValue
9.781

@<SCITEGIC>MOL_PROPERTY
W
SciTegic.value.DoubleValue
-67.841

@<SCITEGIC>MOL_PROPERTY
W(PB)
SciTegic.value.DoubleValue
-69.537

@<SCITEGIC>MOL_PROPERTY
W(SA)
SciTegic.value.DoubleValue
1.696

@<SCITEGIC>MOL_PROPERTY
Valence
SciTegic.value.DoubleValue
6.123

@<SCITEGIC>MOL_PROPERTY
Coulomb
SciTegic.value.DoubleValue
3.449

@<SCITEGIC>MOL_PROPERTY
VdW
SciTegic.value.DoubleValue
0.209

@<SCITEGIC>MOL_PROPERTY
VdW6
SciTegic.value.DoubleValue
-3.762

@<SCITEGIC>MOL_PROPERTY
VdW12
SciTegic.value.DoubleValue
3.972

@<SCITEGIC>MOL_PROPERTY
Bond
SciTegic.value.DoubleValue
0.078

@<SCITEGIC>MOL_PROPERTY
Angle
SciTegic.value.DoubleValue
2.428

@<SCITEGIC>MOL_PROPERTY
Pdih
SciTegic.value.DoubleValue
3.616

@<SCITEGIC>MOL_PROPERTY
Idih
SciTegic.value.DoubleValue
0.002

@<SCITEGIC>MOL_PROPERTY
Tether
SciTegic.value.DoubleValue
0.000

@<TRIPOS>MOLECULE
guest-6_confgen4.mol2 : confsearch ligand conformer 321
          13          12           1
SMALL
USER_CHARGES
 
@<TRIPOS>ATOM
       1    C1      21.195785   17.230628   22.015936 C.2        1 MOL1         0.6021
       2    O1      21.880605   17.315770   21.015386 O.co2      1 MOL1        -0.6904
       3    O2      21.289372   16.312478   22.805263 O.co2      1 MOL1        -0.6904
       4    C2      20.159366   18.313391   22.322761 C.3        1 MOL1        -0.2102
       5    H1      20.395936   18.722516   23.312200 H          1 MOL1         0.0687
       6    H2      19.183943   17.819366   22.405389 H          1 MOL1         0.0687
       7    C3      20.075527   19.465394   21.287475 C.3        1 MOL1        -0.1974
       8    H3      21.054744   19.957256   21.204050 H          1 MOL1         0.0689
       9    H4      19.841333   19.052987   20.296098 H          1 MOL1         0.0689
      10    C4      19.007094   20.506126   21.678834 C.3        1 MOL1        -0.2987
      11    H5      19.235690   20.956360   22.653799 H          1 MOL1         0.0700
      12    H6      18.962454   21.312569   20.935253 H          1 MOL1         0.0700
      13    H7      18.012543   20.044803   21.738606 H          1 MOL1         0.0700
@<TRIPOS>BOND
    1     1     2    1
    2     1     3    2
    3     1     4    1
    4     4     5    1
    5     4     6    1
    6     4     7    1
    7     7     8    1
    8     7     9    1
    9     7    10    1
   10    10    11    1
   11    10    12    1
   12    10    13    1
@<TRIPOS>SUBSTRUCTURE
       1 MOL1            1 RESIDUE      1      MOL     
@<SCITEGIC>MOL_PROPERTY
VConf Rank
SciTegic.value.IntegerValue
321

@<SCITEGIC>MOL_PROPERTY
Conf_Id
SciTegic.value.IntegerValue
0

@<SCITEGIC>MOL_PROPERTY
Delta U+W
SciTegic.value.DoubleValue
0.000

@<SCITEGIC>MOL_PROPERTY
U+W
SciTegic.value.DoubleValue
-58.332

@<SCITEGIC>MOL_PROPERTY
Grad RMS
SciTegic.value.DoubleValue
0.000000

@<SCITEGIC>MOL_PROPERTY
U
SciTegic.value.DoubleValue
8.390

@<SCITEGIC>MOL_PROPERTY
W
SciTegic.value.DoubleValue
-66.722

@<SCITEGIC>MOL_PROPERTY
W(PB)
SciTegic.value.DoubleValue
-68.455

@<SCITEGIC>MOL_PROPERTY
W(SA)
SciTegic.value.DoubleValue
1.733

@<SCITEGIC>MOL_PROPERTY
Valence
SciTegic.value.DoubleValue
6.333

@<SCITEGIC>MOL_PROPERTY
Coulomb
SciTegic.value.DoubleValue
1.215

@<SCITEGIC>MOL_PROPERTY
VdW
SciTegic.value.DoubleValue
0.842

@<SCITEGIC>MOL_PROPERTY
VdW6
SciTegic.value.DoubleValue
-3.344

@<SCITEGIC>MOL_PROPERTY
VdW12
SciTegic.value.DoubleValue
4.186

@<SCITEGIC>MOL_PROPERTY
Bond
SciTegic.value.DoubleValue
0.091

@<SCITEGIC>MOL_PROPERTY
Angle
SciTegic.value.DoubleValue
2.713

@<SCITEGIC>MOL_PROPERTY
Pdih
SciTegic.value.DoubleValue
3.529

@<SCITEGIC>MOL_PROPERTY
Idih
SciTegic.value.DoubleValue
0.000

@<SCITEGIC>MOL_PROPERTY
Tether
SciTegic.value.DoubleValue
0.000

@<TRIPOS>MOLECULE
guest-6_confgen4.mol2 : confsearch ligand conformer 322
          13          12           1
SMALL
USER_CHARGES
 
@<TRIPOS>ATOM
       1    C1      22.014088   19.576320   21.562006 C.2        1 MOL1         0.6021
       2    O1      22.834445   18.730410   21.856646 O.co2      1 MOL1        -0.6904
       3    O2      22.253374   20.767081   21.548212 O.co2      1 MOL1        -0.6904
       4    C2      20.602535   19.120086   21.208638 C.3        1 MOL1        -0.2102
       5    H1      20.672343   18.139071   20.723090 H          1 MOL1         0.0687
       6    H2      20.193167   19.818625   20.468720 H          1 MOL1         0.0687
       7    C3      19.667619   19.039797   22.439628 C.3        1 MOL1        -0.1974
       8    H3      20.092479   18.345254   23.177819 H          1 MOL1         0.0689
       9    H4      19.613115   20.025139   22.923315 H          1 MOL1         0.0689
      10    C4      18.249878   18.576105   22.049386 C.3        1 MOL1        -0.2987
      11    H5      17.602286   18.525418   22.934438 H          1 MOL1         0.0700
      12    H6      17.792150   19.271805   21.333814 H          1 MOL1         0.0700
      13    H7      18.275197   17.579026   21.590312 H          1 MOL1         0.0700
@<TRIPOS>BOND
    1     1     2    1
    2     1     3    2
    3     1     4    1
    4     4     5    1
    5     4     6    1
    6     4     7    1
    7     7     8    1
    8     7     9    1
    9     7    10    1
   10    10    11    1
   11    10    12    1
   12    10    13    1
@<TRIPOS>SUBSTRUCTURE
       1 MOL1            1 RESIDUE      1      MOL     
@<SCITEGIC>MOL_PROPERTY
VConf Rank
SciTegic.value.IntegerValue
322

@<SCITEGIC>MOL_PROPERTY
Conf_Id
SciTegic.value.IntegerValue
1

@<SCITEGIC>MOL_PROPERTY
Delta U+W
SciTegic.value.DoubleValue
-1.339

@<SCITEGIC>MOL_PROPERTY
U+W
SciTegic.value.DoubleValue
-59.672

@<SCITEGIC>MOL_PROPERTY
Grad RMS
SciTegic.value.DoubleValue
0.000000

@<SCITEGIC>MOL_PROPERTY
U
SciTegic.value.DoubleValue
7.389

@<SCITEGIC>MOL_PROPERTY
W
SciTegic.value.DoubleValue
-67.061

@<SCITEGIC>MOL_PROPERTY
W(PB)
SciTegic.value.DoubleValue
-68.767

@<SCITEGIC>MOL_PROPERTY
W(SA)
SciTegic.value.DoubleValue
1.707

@<SCITEGIC>MOL_PROPERTY
Valence
SciTegic.value.DoubleValue
5.822

@<SCITEGIC>MOL_PROPERTY
Coulomb
SciTegic.value.DoubleValue
1.255

@<SCITEGIC>MOL_PROPERTY
VdW
SciTegic.value.DoubleValue
0.312

@<SCITEGIC>MOL_PROPERTY
VdW6
SciTegic.value.DoubleValue
-3.061

@<SCITEGIC>MOL_PROPERTY
VdW12
SciTegic.value.DoubleValue
3.372

@<SCITEGIC>MOL_PROPERTY
Bond
SciTegic.value.DoubleValue
0.059

@<SCITEGIC>MOL_PROPERTY
Angle
SciTegic.value.DoubleValue
2.241

@<SCITEGIC>MOL_PROPERTY
Pdih
SciTegic.value.DoubleValue
3.522

@<SCITEGIC>MOL_PROPERTY
Idih
SciTegic.value.DoubleValue
0.000

@<SCITEGIC>MOL_PROPERTY
Tether
SciTegic.value.DoubleValue
0.000

@<TRIPOS>MOLECULE
guest-6_confgen4.mol2 : confsearch ligand conformer 323
          13          12           1
SMALL
USER_CHARGES
 
@<TRIPOS>ATOM
       1    C1      18.901095   17.663309   22.100838 C.2        1 MOL1         0.6021
       2    O1      17.786656   17.945296   21.707634 O.co2      1 MOL1        -0.6904
       3    O2      19.431567   16.589692   21.896267 O.co2      1 MOL1        -0.6904
       4    C2      19.658010   18.701368   22.925604 C.3        1 MOL1        -0.2102
       5    H1      20.473241   18.198792   23.460491 H          1 MOL1         0.0687
       6    H2      18.966617   19.081371   23.687154 H          1 MOL1         0.0687
       7    C3      20.214598   19.887378   22.096792 C.3        1 MOL1        -0.1974
       8    H3      19.396834   20.357822   21.532995 H          1 MOL1         0.0689
       9    H4      20.606792   20.652019   22.781176 H          1 MOL1         0.0689
      10    C4      21.334853   19.456169   21.127763 C.3        1 MOL1        -0.2987
      11    H5      20.965455   18.722723   20.398770 H          1 MOL1         0.0700
      12    H6      21.719598   20.321044   20.571833 H          1 MOL1         0.0700
      13    H7      22.172868   19.003024   21.673457 H          1 MOL1         0.0700
@<TRIPOS>BOND
    1     1     2    1
    2     1     3    2
    3     1     4    1
    4     4     5    1
    5     4     6    1
    6     4     7    1
    7     7     8    1
    8     7     9    1
    9     7    10    1
   10    10    11    1
   11    10    12    1
   12    10    13    1
@<TRIPOS>SUBSTRUCTURE
       1 MOL1            1 RESIDUE      1      MOL     
@<SCITEGIC>MOL_PROPERTY
VConf Rank
SciTegic.value.IntegerValue
323

@<SCITEGIC>MOL_PROPERTY
Conf_Id
SciTegic.value.IntegerValue
4

@<SCITEGIC>MOL_PROPERTY
Delta U+W
SciTegic.value.DoubleValue
0.281

@<SCITEGIC>MOL_PROPERTY
U+W
SciTegic.value.DoubleValue
-58.051

@<SCITEGIC>MOL_PROPERTY
Grad RMS
SciTegic.value.DoubleValue
0.000000

@<SCITEGIC>MOL_PROPERTY
U
SciTegic.value.DoubleValue
9.781

@<SCITEGIC>MOL_PROPERTY
W
SciTegic.value.DoubleValue
-67.832

@<SCITEGIC>MOL_PROPERTY
W(PB)
SciTegic.value.DoubleValue
-69.535

@<SCITEGIC>MOL_PROPERTY
W(SA)
SciTegic.value.DoubleValue
1.703

@<SCITEGIC>MOL_PROPERTY
Valence
SciTegic.value.DoubleValue
6.123

@<SCITEGIC>MOL_PROPERTY
Coulomb
SciTegic.value.DoubleValue
3.449

@<SCITEGIC>MOL_PROPERTY
VdW
SciTegic.value.DoubleValue
0.209

@<SCITEGIC>MOL_PROPERTY
VdW6
SciTegic.value.DoubleValue
-3.762

@<SCITEGIC>MOL_PROPERTY
VdW12
SciTegic.value.DoubleValue
3.972

@<SCITEGIC>MOL_PROPERTY
Bond
SciTegic.value.DoubleValue
0.078

@<SCITEGIC>MOL_PROPERTY
Angle
SciTegic.value.DoubleValue
2.428

@<SCITEGIC>MOL_PROPERTY
Pdih
SciTegic.value.DoubleValue
3.616

@<SCITEGIC>MOL_PROPERTY
Idih
SciTegic.value.DoubleValue
0.002

@<SCITEGIC>MOL_PROPERTY
Tether
SciTegic.value.DoubleValue
0.000

@<TRIPOS>MOLECULE
guest-6_confgen4.mol2 : confsearch ligand conformer 324
          13          12           1
SMALL
USER_CHARGES
 
@<TRIPOS>ATOM
       1    C1      18.702359   17.869271   22.046802 C.2        1 MOL1         0.6021
       2    O1      18.236116   17.856428   23.168568 O.co2      1 MOL1        -0.6904
       3    O2      18.024554   17.826436   21.039408 O.co2      1 MOL1        -0.6904
       4    C2      20.220778   17.904960   21.892357 C.3        1 MOL1        -0.2102
       5    H1      20.494091   17.128791   21.167616 H          1 MOL1         0.0687
       6    H2      20.678014   17.620933   22.848155 H          1 MOL1         0.0687
       7    C3      20.778562   19.271746   21.418957 C.3        1 MOL1        -0.1974
       8    H3      21.847868   19.164612   21.190965 H          1 MOL1         0.0689
       9    H4      20.284078   19.566343   20.482677 H          1 MOL1         0.0689
      10    C4      20.597298   20.381260   22.475390 C.3        1 MOL1        -0.2987
      11    H5      21.103352   20.116721   23.413111 H          1 MOL1         0.0700
      12    H6      21.019632   21.329136   22.117255 H          1 MOL1         0.0700
      13    H7      19.534309   20.546538   22.695758 H          1 MOL1         0.0700
@<TRIPOS>BOND
    1     1     2    1
    2     1     3    2
    3     1     4    1
    4     4     5    1
    5     4     6    1
    6     4     7    1
    7     7     8    1
    8     7     9    1
    9     7    10    1
   10    10    11    1
   11    10    12    1
   12    10    13    1
@<TRIPOS>SUBSTRUCTURE
       1 MOL1            1 RESIDUE      1      MOL     
@<SCITEGIC>MOL_PROPERTY
VConf Rank
SciTegic.value.IntegerValue
324

@<SCITEGIC>MOL_PROPERTY
Conf_Id
SciTegic.value.IntegerValue
36

@<SCITEGIC>MOL_PROPERTY
Delta U+W
SciTegic.value.DoubleValue
0.272

@<SCITEGIC>MOL_PROPERTY
U+W
SciTegic.value.DoubleValue
-58.060

@<SCITEGIC>MOL_PROPERTY
Grad RMS
SciTegic.value.DoubleValue
0.000000

@<SCITEGIC>MOL_PROPERTY
U
SciTegic.value.DoubleValue
9.781

@<SCITEGIC>MOL_PROPERTY
W
SciTegic.value.DoubleValue
-67.841

@<SCITEGIC>MOL_PROPERTY
W(PB)
SciTegic.value.DoubleValue
-69.537

@<SCITEGIC>MOL_PROPERTY
W(SA)
SciTegic.value.DoubleValue
1.696

@<SCITEGIC>MOL_PROPERTY
Valence
SciTegic.value.DoubleValue
6.123

@<SCITEGIC>MOL_PROPERTY
Coulomb
SciTegic.value.DoubleValue
3.449

@<SCITEGIC>MOL_PROPERTY
VdW
SciTegic.value.DoubleValue
0.209

@<SCITEGIC>MOL_PROPERTY
VdW6
SciTegic.value.DoubleValue
-3.762

@<SCITEGIC>MOL_PROPERTY
VdW12
SciTegic.value.DoubleValue
3.972

@<SCITEGIC>MOL_PROPERTY
Bond
SciTegic.value.DoubleValue
0.078

@<SCITEGIC>MOL_PROPERTY
Angle
SciTegic.value.DoubleValue
2.428

@<SCITEGIC>MOL_PROPERTY
Pdih
SciTegic.value.DoubleValue
3.616

@<SCITEGIC>MOL_PROPERTY
Idih
SciTegic.value.DoubleValue
0.002

@<SCITEGIC>MOL_PROPERTY
Tether
SciTegic.value.DoubleValue
0.000

@<TRIPOS>MOLECULE
guest-6_confgen4.mol2 : confsearch ligand conformer 325
          13          12           1
SMALL
USER_CHARGES
 
@<TRIPOS>ATOM
       1    C1      18.420578   20.315388   22.323545 C.2        1 MOL1         0.6021
       2    O1      18.223969   20.836823   21.243369 O.co2      1 MOL1        -0.6904
       3    O2      17.779847   20.591371   23.317574 O.co2      1 MOL1        -0.6904
       4    C2      19.518316   19.259849   22.470138 C.3        1 MOL1        -0.2102
       5    H1      19.045668   18.345957   22.849272 H          1 MOL1         0.0687
       6    H2      20.207869   19.609924   23.247506 H          1 MOL1         0.0687
       7    C3      20.309845   18.940069   21.175078 C.3        1 MOL1        -0.1974
       8    H3      19.616652   18.592211   20.396469 H          1 MOL1         0.0689
       9    H4      20.780225   19.857755   20.795144 H          1 MOL1         0.0689
      10    C4      21.391706   17.868613   21.418789 C.3        1 MOL1        -0.2987
      11    H5      20.943096   16.930057   21.770051 H          1 MOL1         0.0700
      12    H6      21.940639   17.655871   20.492144 H          1 MOL1         0.0700
      13    H7      22.115980   18.205755   22.171972 H          1 MOL1         0.0700
@<TRIPOS>BOND
    1     1     2    1
    2     1     3    2
    3     1     4    1
    4     4     5    1
    5     4     6    1
    6     4     7    1
    7     7     8    1
    8     7     9    1
    9     7    10    1
   10    10    11    1
   11    10    12    1
   12    10    13    1
@<TRIPOS>SUBSTRUCTURE
       1 MOL1            1 RESIDUE      1      MOL     
@<SCITEGIC>MOL_PROPERTY
VConf Rank
SciTegic.value.IntegerValue
325

@<SCITEGIC>MOL_PROPERTY
Conf_Id
SciTegic.value.IntegerValue
0

@<SCITEGIC>MOL_PROPERTY
Delta U+W
SciTegic.value.DoubleValue
0.000

@<SCITEGIC>MOL_PROPERTY
U+W
SciTegic.value.DoubleValue
-58.332

@<SCITEGIC>MOL_PROPERTY
Grad RMS
SciTegic.value.DoubleValue
0.000000

@<SCITEGIC>MOL_PROPERTY
U
SciTegic.value.DoubleValue
8.390

@<SCITEGIC>MOL_PROPERTY
W
SciTegic.value.DoubleValue
-66.722

@<SCITEGIC>MOL_PROPERTY
W(PB)
SciTegic.value.DoubleValue
-68.455

@<SCITEGIC>MOL_PROPERTY
W(SA)
SciTegic.value.DoubleValue
1.733

@<SCITEGIC>MOL_PROPERTY
Valence
SciTegic.value.DoubleValue
6.333

@<SCITEGIC>MOL_PROPERTY
Coulomb
SciTegic.value.DoubleValue
1.215

@<SCITEGIC>MOL_PROPERTY
VdW
SciTegic.value.DoubleValue
0.842

@<SCITEGIC>MOL_PROPERTY
VdW6
SciTegic.value.DoubleValue
-3.344

@<SCITEGIC>MOL_PROPERTY
VdW12
SciTegic.value.DoubleValue
4.186

@<SCITEGIC>MOL_PROPERTY
Bond
SciTegic.value.DoubleValue
0.091

@<SCITEGIC>MOL_PROPERTY
Angle
SciTegic.value.DoubleValue
2.713

@<SCITEGIC>MOL_PROPERTY
Pdih
SciTegic.value.DoubleValue
3.529

@<SCITEGIC>MOL_PROPERTY
Idih
SciTegic.value.DoubleValue
0.000

@<SCITEGIC>MOL_PROPERTY
Tether
SciTegic.value.DoubleValue
0.000

@<TRIPOS>MOLECULE
guest-6_confgen4.mol2 : confsearch ligand conformer 326
          13          12           1
SMALL
USER_CHARGES
 
@<TRIPOS>ATOM
       1    C1      21.301999   17.420112   21.493125 C.2        1 MOL1         0.6021
       2    O1      21.753968   16.882899   22.484330 O.co2      1 MOL1        -0.6904
       3    O2      21.846220   17.392219   20.407581 O.co2      1 MOL1        -0.6904
       4    C2      19.990171   18.186775   21.622874 C.3        1 MOL1        -0.2102
       5    H1      19.376644   17.687454   22.382664 H          1 MOL1         0.0687
       6    H2      19.452712   18.107450   20.670055 H          1 MOL1         0.0687
       7    C3      20.194483   19.674807   21.996863 C.3        1 MOL1        -0.1974
       8    H3      20.742179   19.741946   22.947306 H          1 MOL1         0.0689
       9    H4      20.818144   20.162041   21.234319 H          1 MOL1         0.0689
      10    C4      18.850991   20.421181   22.120334 C.3        1 MOL1        -0.2987
      11    H5      19.016238   21.473569   22.385731 H          1 MOL1         0.0700
      12    H6      18.297721   20.393490   21.172346 H          1 MOL1         0.0700
      13    H7      18.221203   19.970194   22.898495 H          1 MOL1         0.0700
@<TRIPOS>BOND
    1     1     2    1
    2     1     3    2
    3     1     4    1
    4     4     5    1
    5     4     6    1
    6     4     7    1
    7     7     8    1
    8     7     9    1
    9     7    10    1
   10    10    11    1
   11    10    12    1
   12    10    13    1
@<TRIPOS>SUBSTRUCTURE
       1 MOL1            1 RESIDUE      1      MOL     
@<SCITEGIC>MOL_PROPERTY
VConf Rank
SciTegic.value.IntegerValue
326

@<SCITEGIC>MOL_PROPERTY
Conf_Id
SciTegic.value.IntegerValue
1

@<SCITEGIC>MOL_PROPERTY
Delta U+W
SciTegic.value.DoubleValue
-1.339

@<SCITEGIC>MOL_PROPERTY
U+W
SciTegic.value.DoubleValue
-59.672

@<SCITEGIC>MOL_PROPERTY
Grad RMS
SciTegic.value.DoubleValue
0.000000

@<SCITEGIC>MOL_PROPERTY
U
SciTegic.value.DoubleValue
7.389

@<SCITEGIC>MOL_PROPERTY
W
SciTegic.value.DoubleValue
-67.061

@<SCITEGIC>MOL_PROPERTY
W(PB)
SciTegic.value.DoubleValue
-68.767

@<SCITEGIC>MOL_PROPERTY
W(SA)
SciTegic.value.DoubleValue
1.707

@<SCITEGIC>MOL_PROPERTY
Valence
SciTegic.value.DoubleValue
5.822

@<SCITEGIC>MOL_PROPERTY
Coulomb
SciTegic.value.DoubleValue
1.255

@<SCITEGIC>MOL_PROPERTY
VdW
SciTegic.value.DoubleValue
0.312

@<SCITEGIC>MOL_PROPERTY
VdW6
SciTegic.value.DoubleValue
-3.061

@<SCITEGIC>MOL_PROPERTY
VdW12
SciTegic.value.DoubleValue
3.372

@<SCITEGIC>MOL_PROPERTY
Bond
SciTegic.value.DoubleValue
0.059

@<SCITEGIC>MOL_PROPERTY
Angle
SciTegic.value.DoubleValue
2.241

@<SCITEGIC>MOL_PROPERTY
Pdih
SciTegic.value.DoubleValue
3.522

@<SCITEGIC>MOL_PROPERTY
Idih
SciTegic.value.DoubleValue
0.000

@<SCITEGIC>MOL_PROPERTY
Tether
SciTegic.value.DoubleValue
0.000

@<TRIPOS>MOLECULE
guest-6_confgen4.mol2 : confsearch ligand conformer 327
          13          12           1
SMALL
USER_CHARGES
 
@<TRIPOS>ATOM
       1    C1      19.223307   19.440650   20.522681 C.2        1 MOL1         0.6021
       2    O1      19.766375   20.255712   19.803758 O.co2      1 MOL1        -0.6904
       3    O2      18.601432   18.485661   20.101762 O.co2      1 MOL1        -0.6904
       4    C2      19.297577   19.649774   22.033137 C.3        1 MOL1        -0.2102
       5    H1      18.517582   19.044001   22.510561 H          1 MOL1         0.0687
       6    H2      19.048613   20.699255   22.230600 H          1 MOL1         0.0687
       7    C3      20.680951   19.322880   22.651810 C.3        1 MOL1        -0.1974
       8    H3      21.459881   19.904172   22.138691 H          1 MOL1         0.0689
       9    H4      20.689681   19.642297   23.702891 H          1 MOL1         0.0689
      10    C4      21.019809   17.819607   22.579183 C.3        1 MOL1        -0.2987
      11    H5      21.063484   17.474751   21.537552 H          1 MOL1         0.0700
      12    H6      21.994790   17.620007   23.042504 H          1 MOL1         0.0700
      13    H7      20.264702   17.221241   23.105647 H          1 MOL1         0.0700
@<TRIPOS>BOND
    1     1     2    1
    2     1     3    2
    3     1     4    1
    4     4     5    1
    5     4     6    1
    6     4     7    1
    7     7     8    1
    8     7     9    1
    9     7    10    1
   10    10    11    1
   11    10    12    1
   12    10    13    1
@<TRIPOS>SUBSTRUCTURE
       1 MOL1            1 RESIDUE      1      MOL     
@<SCITEGIC>MOL_PROPERTY
VConf Rank
SciTegic.value.IntegerValue
327

@<SCITEGIC>MOL_PROPERTY
Conf_Id
SciTegic.value.IntegerValue
4

@<SCITEGIC>MOL_PROPERTY
Delta U+W
SciTegic.value.DoubleValue
0.281

@<SCITEGIC>MOL_PROPERTY
U+W
SciTegic.value.DoubleValue
-58.051

@<SCITEGIC>MOL_PROPERTY
Grad RMS
SciTegic.value.DoubleValue
0.000000

@<SCITEGIC>MOL_PROPERTY
U
SciTegic.value.DoubleValue
9.781

@<SCITEGIC>MOL_PROPERTY
W
SciTegic.value.DoubleValue
-67.832

@<SCITEGIC>MOL_PROPERTY
W(PB)
SciTegic.value.DoubleValue
-69.535

@<SCITEGIC>MOL_PROPERTY
W(SA)
SciTegic.value.DoubleValue
1.703

@<SCITEGIC>MOL_PROPERTY
Valence
SciTegic.value.DoubleValue
6.123

@<SCITEGIC>MOL_PROPERTY
Coulomb
SciTegic.value.DoubleValue
3.449

@<SCITEGIC>MOL_PROPERTY
VdW
SciTegic.value.DoubleValue
0.209

@<SCITEGIC>MOL_PROPERTY
VdW6
SciTegic.value.DoubleValue
-3.762

@<SCITEGIC>MOL_PROPERTY
VdW12
SciTegic.value.DoubleValue
3.972

@<SCITEGIC>MOL_PROPERTY
Bond
SciTegic.value.DoubleValue
0.078

@<SCITEGIC>MOL_PROPERTY
Angle
SciTegic.value.DoubleValue
2.428

@<SCITEGIC>MOL_PROPERTY
Pdih
SciTegic.value.DoubleValue
3.616

@<SCITEGIC>MOL_PROPERTY
Idih
SciTegic.value.DoubleValue
0.002

@<SCITEGIC>MOL_PROPERTY
Tether
SciTegic.value.DoubleValue
0.000

@<TRIPOS>MOLECULE
guest-6_confgen4.mol2 : confsearch ligand conformer 328
          13          12           1
SMALL
USER_CHARGES
 
@<TRIPOS>ATOM
       1    C1      19.088940   19.709411   20.730164 C.2        1 MOL1         0.6021
       2    O1      18.086795   19.040291   20.575604 O.co2      1 MOL1        -0.6904
       3    O2      19.098122   20.923244   20.678963 O.co2      1 MOL1        -0.6904
       4    C2      20.413835   18.988355   20.965652 C.3        1 MOL1        -0.2102
       5    H1      21.152022   19.430351   20.285868 H          1 MOL1         0.0687
       6    H2      20.299823   17.938201   20.669907 H          1 MOL1         0.0687
       7    C3      20.935484   19.079057   22.422701 C.3        1 MOL1        -0.1974
       8    H3      21.953758   18.669102   22.466589 H          1 MOL1         0.0689
       9    H4      21.006617   20.133947   22.722816 H          1 MOL1         0.0689
      10    C4      20.040577   18.313150   23.418921 C.3        1 MOL1        -0.2987
      11    H5      19.973773   17.250821   23.149876 H          1 MOL1         0.0700
      12    H6      20.447980   18.380916   24.436038 H          1 MOL1         0.0700
      13    H7      19.023285   18.726330   23.433919 H          1 MOL1         0.0700
@<TRIPOS>BOND
    1     1     2    1
    2     1     3    2
    3     1     4    1
    4     4     5    1
    5     4     6    1
    6     4     7    1
    7     7     8    1
    8     7     9    1
    9     7    10    1
   10    10    11    1
   11    10    12    1
   12    10    13    1
@<TRIPOS>SUBSTRUCTURE
       1 MOL1            1 RESIDUE      1      MOL     
@<SCITEGIC>MOL_PROPERTY
VConf Rank
SciTegic.value.IntegerValue
328

@<SCITEGIC>MOL_PROPERTY
Conf_Id
SciTegic.value.IntegerValue
36

@<SCITEGIC>MOL_PROPERTY
Delta U+W
SciTegic.value.DoubleValue
0.272

@<SCITEGIC>MOL_PROPERTY
U+W
SciTegic.value.DoubleValue
-58.060

@<SCITEGIC>MOL_PROPERTY
Grad RMS
SciTegic.value.DoubleValue
0.000000

@<SCITEGIC>MOL_PROPERTY
U
SciTegic.value.DoubleValue
9.781

@<SCITEGIC>MOL_PROPERTY
W
SciTegic.value.DoubleValue
-67.841

@<SCITEGIC>MOL_PROPERTY
W(PB)
SciTegic.value.DoubleValue
-69.537

@<SCITEGIC>MOL_PROPERTY
W(SA)
SciTegic.value.DoubleValue
1.696

@<SCITEGIC>MOL_PROPERTY
Valence
SciTegic.value.DoubleValue
6.123

@<SCITEGIC>MOL_PROPERTY
Coulomb
SciTegic.value.DoubleValue
3.449

@<SCITEGIC>MOL_PROPERTY
VdW
SciTegic.value.DoubleValue
0.209

@<SCITEGIC>MOL_PROPERTY
VdW6
SciTegic.value.DoubleValue
-3.762

@<SCITEGIC>MOL_PROPERTY
VdW12
SciTegic.value.DoubleValue
3.972

@<SCITEGIC>MOL_PROPERTY
Bond
SciTegic.value.DoubleValue
0.078

@<SCITEGIC>MOL_PROPERTY
Angle
SciTegic.value.DoubleValue
2.428

@<SCITEGIC>MOL_PROPERTY
Pdih
SciTegic.value.DoubleValue
3.616

@<SCITEGIC>MOL_PROPERTY
Idih
SciTegic.value.DoubleValue
0.002

@<SCITEGIC>MOL_PROPERTY
Tether
SciTegic.value.DoubleValue
0.000

@<TRIPOS>MOLECULE
guest-6_confgen4.mol2 : confsearch ligand conformer 329
          13          12           1
SMALL
USER_CHARGES
 
@<TRIPOS>ATOM
       1    C1      18.249689   17.931635   21.309721 C.2        1 MOL1         0.6021
       2    O1      18.278262   18.035161   20.099021 O.co2      1 MOL1        -0.6904
       3    O2      17.369438   17.341144   21.902404 O.co2      1 MOL1        -0.6904
       4    C2      19.358574   18.563286   22.153566 C.3        1 MOL1        -0.2102
       5    H1      19.811824   17.763274   22.750963 H          1 MOL1         0.0687
       6    H2      18.881090   19.256441   22.856334 H          1 MOL1         0.0687
       7    C3      20.460455   19.306541   21.353950 C.3        1 MOL1        -0.1974
       8    H3      20.935693   18.610905   20.648263 H          1 MOL1         0.0689
       9    H4      20.003805   20.105868   20.753699 H          1 MOL1         0.0689
      10    C4      21.531814   19.908697   22.285311 C.3        1 MOL1        -0.2987
      11    H5      22.025525   19.124869   22.874705 H          1 MOL1         0.0700
      12    H6      22.302093   20.430025   21.702093 H          1 MOL1         0.0700
      13    H7      21.086130   20.631797   22.981022 H          1 MOL1         0.0700
@<TRIPOS>BOND
    1     1     2    1
    2     1     3    2
    3     1     4    1
    4     4     5    1
    5     4     6    1
    6     4     7    1
    7     7     8    1
    8     7     9    1
    9     7    10    1
   10    10    11    1
   11    10    12    1
   12    10    13    1
@<TRIPOS>SUBSTRUCTURE
       1 MOL1            1 RESIDUE      1      MOL     
@<SCITEGIC>MOL_PROPERTY
VConf Rank
SciTegic.value.IntegerValue
329

@<SCITEGIC>MOL_PROPERTY
Conf_Id
SciTegic.value.IntegerValue
0

@<SCITEGIC>MOL_PROPERTY
Delta U+W
SciTegic.value.DoubleValue
0.000

@<SCITEGIC>MOL_PROPERTY
U+W
SciTegic.value.DoubleValue
-58.332

@<SCITEGIC>MOL_PROPERTY
Grad RMS
SciTegic.value.DoubleValue
0.000000

@<SCITEGIC>MOL_PROPERTY
U
SciTegic.value.DoubleValue
8.390

@<SCITEGIC>MOL_PROPERTY
W
SciTegic.value.DoubleValue
-66.722

@<SCITEGIC>MOL_PROPERTY
W(PB)
SciTegic.value.DoubleValue
-68.455

@<SCITEGIC>MOL_PROPERTY
W(SA)
SciTegic.value.DoubleValue
1.733

@<SCITEGIC>MOL_PROPERTY
Valence
SciTegic.value.DoubleValue
6.333

@<SCITEGIC>MOL_PROPERTY
Coulomb
SciTegic.value.DoubleValue
1.215

@<SCITEGIC>MOL_PROPERTY
VdW
SciTegic.value.DoubleValue
0.842

@<SCITEGIC>MOL_PROPERTY
VdW6
SciTegic.value.DoubleValue
-3.344

@<SCITEGIC>MOL_PROPERTY
VdW12
SciTegic.value.DoubleValue
4.186

@<SCITEGIC>MOL_PROPERTY
Bond
SciTegic.value.DoubleValue
0.091

@<SCITEGIC>MOL_PROPERTY
Angle
SciTegic.value.DoubleValue
2.713

@<SCITEGIC>MOL_PROPERTY
Pdih
SciTegic.value.DoubleValue
3.529

@<SCITEGIC>MOL_PROPERTY
Idih
SciTegic.value.DoubleValue
0.000

@<SCITEGIC>MOL_PROPERTY
Tether
SciTegic.value.DoubleValue
0.000

@<TRIPOS>MOLECULE
guest-6_confgen4.mol2 : confsearch ligand conformer 330
          13          12           1
SMALL
USER_CHARGES
 
@<TRIPOS>ATOM
       1    C1      20.277419   19.397268   23.893394 C.2        1 MOL1         0.6021
       2    O1      19.288166   19.712493   24.523769 O.co2      1 MOL1        -0.6904
       3    O2      21.408368   19.681980   24.232884 O.co2      1 MOL1        -0.6904
       4    C2      20.088222   18.618375   22.596078 C.3        1 MOL1        -0.2102
       5    H1      19.203418   17.979791   22.707212 H          1 MOL1         0.0687
       6    H2      20.951858   17.954612   22.467344 H          1 MOL1         0.0687
       7    C3      19.931648   19.534789   21.358533 C.3        1 MOL1        -0.1974
       8    H3      19.070051   20.201587   21.502936 H          1 MOL1         0.0689
       9    H4      20.818863   20.176301   21.262954 H          1 MOL1         0.0689
      10    C4      19.742273   18.717924   20.064640 C.3        1 MOL1        -0.2987
      11    H5      19.633148   19.384360   19.199067 H          1 MOL1         0.0700
      12    H6      20.605742   18.064568   19.882699 H          1 MOL1         0.0700
      13    H7      18.843500   18.090088   20.124515 H          1 MOL1         0.0700
@<TRIPOS>BOND
    1     1     2    1
    2     1     3    2
    3     1     4    1
    4     4     5    1
    5     4     6    1
    6     4     7    1
    7     7     8    1
    8     7     9    1
    9     7    10    1
   10    10    11    1
   11    10    12    1
   12    10    13    1
@<TRIPOS>SUBSTRUCTURE
       1 MOL1            1 RESIDUE      1      MOL     
@<SCITEGIC>MOL_PROPERTY
VConf Rank
SciTegic.value.IntegerValue
330

@<SCITEGIC>MOL_PROPERTY
Conf_Id
SciTegic.value.IntegerValue
1

@<SCITEGIC>MOL_PROPERTY
Delta U+W
SciTegic.value.DoubleValue
-1.339

@<SCITEGIC>MOL_PROPERTY
U+W
SciTegic.value.DoubleValue
-59.672

@<SCITEGIC>MOL_PROPERTY
Grad RMS
SciTegic.value.DoubleValue
0.000000

@<SCITEGIC>MOL_PROPERTY
U
SciTegic.value.DoubleValue
7.389

@<SCITEGIC>MOL_PROPERTY
W
SciTegic.value.DoubleValue
-67.061

@<SCITEGIC>MOL_PROPERTY
W(PB)
SciTegic.value.DoubleValue
-68.767

@<SCITEGIC>MOL_PROPERTY
W(SA)
SciTegic.value.DoubleValue
1.707

@<SCITEGIC>MOL_PROPERTY
Valence
SciTegic.value.DoubleValue
5.822

@<SCITEGIC>MOL_PROPERTY
Coulomb
SciTegic.value.DoubleValue
1.255

@<SCITEGIC>MOL_PROPERTY
VdW
SciTegic.value.DoubleValue
0.312

@<SCITEGIC>MOL_PROPERTY
VdW6
SciTegic.value.DoubleValue
-3.061

@<SCITEGIC>MOL_PROPERTY
VdW12
SciTegic.value.DoubleValue
3.372

@<SCITEGIC>MOL_PROPERTY
Bond
SciTegic.value.DoubleValue
0.059

@<SCITEGIC>MOL_PROPERTY
Angle
SciTegic.value.DoubleValue
2.241

@<SCITEGIC>MOL_PROPERTY
Pdih
SciTegic.value.DoubleValue
3.522

@<SCITEGIC>MOL_PROPERTY
Idih
SciTegic.value.DoubleValue
0.000

@<SCITEGIC>MOL_PROPERTY
Tether
SciTegic.value.DoubleValue
0.000

@<TRIPOS>MOLECULE
guest-6_confgen4.mol2 : confsearch ligand conformer 331
          13          12           1
SMALL
USER_CHARGES
 
@<TRIPOS>ATOM
       1    C1      19.379475   18.365474   23.510887 C.2        1 MOL1         0.6021
       2    O1      18.169731   18.253520   23.501622 O.co2      1 MOL1        -0.6904
       3    O2      20.122198   17.562353   24.039342 O.co2      1 MOL1        -0.6904
       4    C2      19.993704   19.599383   22.854444 C.3        1 MOL1        -0.2102
       5    H1      21.022181   19.715534   23.217804 H          1 MOL1         0.0687
       6    H2      19.432256   20.472037   23.208897 H          1 MOL1         0.0687
       7    C3      19.975259   19.569227   21.304576 C.3        1 MOL1        -0.1974
       8    H3      18.946337   19.411165   20.952074 H          1 MOL1         0.0689
       9    H4      20.293056   20.548676   20.921747 H          1 MOL1         0.0689
      10    C4      20.898259   18.477772   20.724297 C.3        1 MOL1        -0.2987
      11    H5      20.581957   17.478439   21.051582 H          1 MOL1         0.0700
      12    H6      20.877070   18.496517   19.626893 H          1 MOL1         0.0700
      13    H7      21.936701   18.629910   21.046610 H          1 MOL1         0.0700
@<TRIPOS>BOND
    1     1     2    1
    2     1     3    2
    3     1     4    1
    4     4     5    1
    5     4     6    1
    6     4     7    1
    7     7     8    1
    8     7     9    1
    9     7    10    1
   10    10    11    1
   11    10    12    1
   12    10    13    1
@<TRIPOS>SUBSTRUCTURE
       1 MOL1            1 RESIDUE      1      MOL     
@<SCITEGIC>MOL_PROPERTY
VConf Rank
SciTegic.value.IntegerValue
331

@<SCITEGIC>MOL_PROPERTY
Conf_Id
SciTegic.value.IntegerValue
4

@<SCITEGIC>MOL_PROPERTY
Delta U+W
SciTegic.value.DoubleValue
0.281

@<SCITEGIC>MOL_PROPERTY
U+W
SciTegic.value.DoubleValue
-58.051

@<SCITEGIC>MOL_PROPERTY
Grad RMS
SciTegic.value.DoubleValue
0.000000

@<SCITEGIC>MOL_PROPERTY
U
SciTegic.value.DoubleValue
9.781

@<SCITEGIC>MOL_PROPERTY
W
SciTegic.value.DoubleValue
-67.832

@<SCITEGIC>MOL_PROPERTY
W(PB)
SciTegic.value.DoubleValue
-69.535

@<SCITEGIC>MOL_PROPERTY
W(SA)
SciTegic.value.DoubleValue
1.703

@<SCITEGIC>MOL_PROPERTY
Valence
SciTegic.value.DoubleValue
6.123

@<SCITEGIC>MOL_PROPERTY
Coulomb
SciTegic.value.DoubleValue
3.449

@<SCITEGIC>MOL_PROPERTY
VdW
SciTegic.value.DoubleValue
0.209

@<SCITEGIC>MOL_PROPERTY
VdW6
SciTegic.value.DoubleValue
-3.762

@<SCITEGIC>MOL_PROPERTY
VdW12
SciTegic.value.DoubleValue
3.972

@<SCITEGIC>MOL_PROPERTY
Bond
SciTegic.value.DoubleValue
0.078

@<SCITEGIC>MOL_PROPERTY
Angle
SciTegic.value.DoubleValue
2.428

@<SCITEGIC>MOL_PROPERTY
Pdih
SciTegic.value.DoubleValue
3.616

@<SCITEGIC>MOL_PROPERTY
Idih
SciTegic.value.DoubleValue
0.002

@<SCITEGIC>MOL_PROPERTY
Tether
SciTegic.value.DoubleValue
0.000

@<TRIPOS>MOLECULE
guest-6_confgen4.mol2 : confsearch ligand conformer 332
          13          12           1
SMALL
USER_CHARGES
 
@<TRIPOS>ATOM
       1    C1      20.774607   18.679842   20.354943 C.2        1 MOL1         0.6021
       2    O1      20.525596   17.541800   20.010327 O.co2      1 MOL1        -0.6904
       3    O2      20.751476   19.629196   19.597124 O.co2      1 MOL1        -0.6904
       4    C2      21.172598   18.927510   21.807867 C.3        1 MOL1        -0.2102
       5    H1      22.074817   19.550642   21.798115 H          1 MOL1         0.0687
       6    H2      21.453889   17.970041   22.263297 H          1 MOL1         0.0687
       7    C3      20.076297   19.620890   22.656799 C.3        1 MOL1        -0.1974
       8    H3      20.497121   19.894505   23.633996 H          1 MOL1         0.0689
       9    H4      19.772434   20.558349   22.170221 H          1 MOL1         0.0689
      10    C4      18.841196   18.722359   22.873809 C.3        1 MOL1        -0.2987
      11    H5      19.119341   17.788394   23.379511 H          1 MOL1         0.0700
      12    H6      18.094145   19.234806   23.493816 H          1 MOL1         0.0700
      13    H7      18.367493   18.464840   21.917192 H          1 MOL1         0.0700
@<TRIPOS>BOND
    1     1     2    1
    2     1     3    2
    3     1     4    1
    4     4     5    1
    5     4     6    1
    6     4     7    1
    7     7     8    1
    8     7     9    1
    9     7    10    1
   10    10    11    1
   11    10    12    1
   12    10    13    1
@<TRIPOS>SUBSTRUCTURE
       1 MOL1            1 RESIDUE      1      MOL     
@<SCITEGIC>MOL_PROPERTY
VConf Rank
SciTegic.value.IntegerValue
332

@<SCITEGIC>MOL_PROPERTY
Conf_Id
SciTegic.value.IntegerValue
36

@<SCITEGIC>MOL_PROPERTY
Delta U+W
SciTegic.value.DoubleValue
0.272

@<SCITEGIC>MOL_PROPERTY
U+W
SciTegic.value.DoubleValue
-58.060

@<SCITEGIC>MOL_PROPERTY
Grad RMS
SciTegic.value.DoubleValue
0.000000

@<SCITEGIC>MOL_PROPERTY
U
SciTegic.value.DoubleValue
9.781

@<SCITEGIC>MOL_PROPERTY
W
SciTegic.value.DoubleValue
-67.841

@<SCITEGIC>MOL_PROPERTY
W(PB)
SciTegic.value.DoubleValue
-69.537

@<SCITEGIC>MOL_PROPERTY
W(SA)
SciTegic.value.DoubleValue
1.696

@<SCITEGIC>MOL_PROPERTY
Valence
SciTegic.value.DoubleValue
6.123

@<SCITEGIC>MOL_PROPERTY
Coulomb
SciTegic.value.DoubleValue
3.449

@<SCITEGIC>MOL_PROPERTY
VdW
SciTegic.value.DoubleValue
0.209

@<SCITEGIC>MOL_PROPERTY
VdW6
SciTegic.value.DoubleValue
-3.762

@<SCITEGIC>MOL_PROPERTY
VdW12
SciTegic.value.DoubleValue
3.972

@<SCITEGIC>MOL_PROPERTY
Bond
SciTegic.value.DoubleValue
0.078

@<SCITEGIC>MOL_PROPERTY
Angle
SciTegic.value.DoubleValue
2.428

@<SCITEGIC>MOL_PROPERTY
Pdih
SciTegic.value.DoubleValue
3.616

@<SCITEGIC>MOL_PROPERTY
Idih
SciTegic.value.DoubleValue
0.002

@<SCITEGIC>MOL_PROPERTY
Tether
SciTegic.value.DoubleValue
0.000

@<TRIPOS>MOLECULE
guest-6_confgen4.mol2 : confsearch ligand conformer 333
          13          12           1
SMALL
USER_CHARGES
 
@<TRIPOS>ATOM
       1    C1      21.035493   17.559111   23.022291 C.2        1 MOL1         0.6021
       2    O1      22.013581   17.352718   22.330861 O.co2      1 MOL1        -0.6904
       3    O2      20.847699   17.002747   24.085300 O.co2      1 MOL1        -0.6904
       4    C2      19.974352   18.559485   22.559781 C.3        1 MOL1        -0.2102
       5    H1      19.877877   19.320563   23.343229 H          1 MOL1         0.0687
       6    H2      19.018138   18.024859   22.513220 H          1 MOL1         0.0687
       7    C3      20.256503   19.245059   21.197307 C.3        1 MOL1        -0.1974
       8    H3      21.216525   19.777809   21.245168 H          1 MOL1         0.0689
       9    H4      20.355805   18.480502   20.414142 H          1 MOL1         0.0689
      10    C4      19.136529   20.233417   20.814369 C.3        1 MOL1        -0.2987
      11    H5      19.038001   21.026503   21.567250 H          1 MOL1         0.0700
      12    H6      19.353527   20.708096   19.848528 H          1 MOL1         0.0700
      13    H7      18.170361   19.718774   20.729606 H          1 MOL1         0.0700
@<TRIPOS>BOND
    1     1     2    1
    2     1     3    2
    3     1     4    1
    4     4     5    1
    5     4     6    1
    6     4     7    1
    7     7     8    1
    8     7     9    1
    9     7    10    1
   10    10    11    1
   11    10    12    1
   12    10    13    1
@<TRIPOS>SUBSTRUCTURE
       1 MOL1            1 RESIDUE      1      MOL     
@<SCITEGIC>MOL_PROPERTY
VConf Rank
SciTegic.value.IntegerValue
333

@<SCITEGIC>MOL_PROPERTY
Conf_Id
SciTegic.value.IntegerValue
0

@<SCITEGIC>MOL_PROPERTY
Delta U+W
SciTegic.value.DoubleValue
0.000

@<SCITEGIC>MOL_PROPERTY
U+W
SciTegic.value.DoubleValue
-58.332

@<SCITEGIC>MOL_PROPERTY
Grad RMS
SciTegic.value.DoubleValue
0.000000

@<SCITEGIC>MOL_PROPERTY
U
SciTegic.value.DoubleValue
8.390

@<SCITEGIC>MOL_PROPERTY
W
SciTegic.value.DoubleValue
-66.722

@<SCITEGIC>MOL_PROPERTY
W(PB)
SciTegic.value.DoubleValue
-68.455

@<SCITEGIC>MOL_PROPERTY
W(SA)
SciTegic.value.DoubleValue
1.733

@<SCITEGIC>MOL_PROPERTY
Valence
SciTegic.value.DoubleValue
6.333

@<SCITEGIC>MOL_PROPERTY
Coulomb
SciTegic.value.DoubleValue
1.215

@<SCITEGIC>MOL_PROPERTY
VdW
SciTegic.value.DoubleValue
0.842

@<SCITEGIC>MOL_PROPERTY
VdW6
SciTegic.value.DoubleValue
-3.344

@<SCITEGIC>MOL_PROPERTY
VdW12
SciTegic.value.DoubleValue
4.186

@<SCITEGIC>MOL_PROPERTY
Bond
SciTegic.value.DoubleValue
0.091

@<SCITEGIC>MOL_PROPERTY
Angle
SciTegic.value.DoubleValue
2.713

@<SCITEGIC>MOL_PROPERTY
Pdih
SciTegic.value.DoubleValue
3.529

@<SCITEGIC>MOL_PROPERTY
Idih
SciTegic.value.DoubleValue
0.000

@<SCITEGIC>MOL_PROPERTY
Tether
SciTegic.value.DoubleValue
0.000

@<TRIPOS>MOLECULE
guest-6_confgen4.mol2 : confsearch ligand conformer 334
          13          12           1
SMALL
USER_CHARGES
 
@<TRIPOS>ATOM
       1    C1      21.541918   19.455426   23.202068 C.2        1 MOL1         0.6021
       2    O1      22.379069   18.586243   23.340117 O.co2      1 MOL1        -0.6904
       3    O2      21.297381   20.291979   24.048084 O.co2      1 MOL1        -0.6904
       4    C2      20.741686   19.486594   21.904318 C.3        1 MOL1        -0.2102
       5    H1      21.388489   19.125082   21.095631 H          1 MOL1         0.0687
       6    H2      20.496483   20.531740   21.679454 H          1 MOL1         0.0687
       7    C3      19.448480   18.638679   21.971446 C.3        1 MOL1        -0.1974
       8    H3      19.705445   17.596400   22.206909 H          1 MOL1         0.0689
       9    H4      18.813226   19.003402   22.790746 H          1 MOL1         0.0689
      10    C4      18.663180   18.690851   20.645597 C.3        1 MOL1        -0.2987
      11    H5      17.750535   18.084343   20.712589 H          1 MOL1         0.0700
      12    H6      18.368867   19.720614   20.403679 H          1 MOL1         0.0700
      13    H7      19.267917   18.302784   19.815385 H          1 MOL1         0.0700
@<TRIPOS>BOND
    1     1     2    1
    2     1     3    2
    3     1     4    1
    4     4     5    1
    5     4     6    1
    6     4     7    1
    7     7     8    1
    8     7     9    1
    9     7    10    1
   10    10    11    1
   11    10    12    1
   12    10    13    1
@<TRIPOS>SUBSTRUCTURE
       1 MOL1            1 RESIDUE      1      MOL     
@<SCITEGIC>MOL_PROPERTY
VConf Rank
SciTegic.value.IntegerValue
334

@<SCITEGIC>MOL_PROPERTY
Conf_Id
SciTegic.value.IntegerValue
1

@<SCITEGIC>MOL_PROPERTY
Delta U+W
SciTegic.value.DoubleValue
-1.339

@<SCITEGIC>MOL_PROPERTY
U+W
SciTegic.value.DoubleValue
-59.672

@<SCITEGIC>MOL_PROPERTY
Grad RMS
SciTegic.value.DoubleValue
0.000000

@<SCITEGIC>MOL_PROPERTY
U
SciTegic.value.DoubleValue
7.389

@<SCITEGIC>MOL_PROPERTY
W
SciTegic.value.DoubleValue
-67.061

@<SCITEGIC>MOL_PROPERTY
W(PB)
SciTegic.value.DoubleValue
-68.767

@<SCITEGIC>MOL_PROPERTY
W(SA)
SciTegic.value.DoubleValue
1.707

@<SCITEGIC>MOL_PROPERTY
Valence
SciTegic.value.DoubleValue
5.822

@<SCITEGIC>MOL_PROPERTY
Coulomb
SciTegic.value.DoubleValue
1.255

@<SCITEGIC>MOL_PROPERTY
VdW
SciTegic.value.DoubleValue
0.312

@<SCITEGIC>MOL_PROPERTY
VdW6
SciTegic.value.DoubleValue
-3.061

@<SCITEGIC>MOL_PROPERTY
VdW12
SciTegic.value.DoubleValue
3.372

@<SCITEGIC>MOL_PROPERTY
Bond
SciTegic.value.DoubleValue
0.059

@<SCITEGIC>MOL_PROPERTY
Angle
SciTegic.value.DoubleValue
2.241

@<SCITEGIC>MOL_PROPERTY
Pdih
SciTegic.value.DoubleValue
3.522

@<SCITEGIC>MOL_PROPERTY
Idih
SciTegic.value.DoubleValue
0.000

@<SCITEGIC>MOL_PROPERTY
Tether
SciTegic.value.DoubleValue
0.000

@<TRIPOS>MOLECULE
guest-6_confgen4.mol2 : confsearch ligand conformer 335
          13          12           1
SMALL
USER_CHARGES
 
@<TRIPOS>ATOM
       1    C1      20.068882   17.176749   22.006536 C.2        1 MOL1         0.6021
       2    O1      18.970347   16.678531   22.151790 O.co2      1 MOL1        -0.6904
       3    O2      20.907204   16.738813   21.244084 O.co2      1 MOL1        -0.6904
       4    C2      20.424764   18.395653   22.854090 C.3        1 MOL1        -0.2102
       5    H1      21.514452   18.521504   22.848562 H          1 MOL1         0.0687
       6    H2      20.137345   18.170234   23.887997 H          1 MOL1         0.0687
       7    C3      19.733549   19.707290   22.401133 C.3        1 MOL1        -0.1974
       8    H3      18.645148   19.557749   22.370444 H          1 MOL1         0.0689
       9    H4      19.923563   20.490583   23.147605 H          1 MOL1         0.0689
      10    C4      20.231886   20.192114   21.023986 C.3        1 MOL1        -0.2987
      11    H5      20.017679   19.450288   20.243193 H          1 MOL1         0.0700
      12    H6      19.738056   21.131282   20.742575 H          1 MOL1         0.0700
      13    H7      21.315309   20.369219   21.038782 H          1 MOL1         0.0700
@<TRIPOS>BOND
    1     1     2    1
    2     1     3    2
    3     1     4    1
    4     4     5    1
    5     4     6    1
    6     4     7    1
    7     7     8    1
    8     7     9    1
    9     7    10    1
   10    10    11    1
   11    10    12    1
   12    10    13    1
@<TRIPOS>SUBSTRUCTURE
       1 MOL1            1 RESIDUE      1      MOL     
@<SCITEGIC>MOL_PROPERTY
VConf Rank
SciTegic.value.IntegerValue
335

@<SCITEGIC>MOL_PROPERTY
Conf_Id
SciTegic.value.IntegerValue
4

@<SCITEGIC>MOL_PROPERTY
Delta U+W
SciTegic.value.DoubleValue
0.281

@<SCITEGIC>MOL_PROPERTY
U+W
SciTegic.value.DoubleValue
-58.051

@<SCITEGIC>MOL_PROPERTY
Grad RMS
SciTegic.value.DoubleValue
0.000000

@<SCITEGIC>MOL_PROPERTY
U
SciTegic.value.DoubleValue
9.781

@<SCITEGIC>MOL_PROPERTY
W
SciTegic.value.DoubleValue
-67.832

@<SCITEGIC>MOL_PROPERTY
W(PB)
SciTegic.value.DoubleValue
-69.535

@<SCITEGIC>MOL_PROPERTY
W(SA)
SciTegic.value.DoubleValue
1.703

@<SCITEGIC>MOL_PROPERTY
Valence
SciTegic.value.DoubleValue
6.123

@<SCITEGIC>MOL_PROPERTY
Coulomb
SciTegic.value.DoubleValue
3.449

@<SCITEGIC>MOL_PROPERTY
VdW
SciTegic.value.DoubleValue
0.209

@<SCITEGIC>MOL_PROPERTY
VdW6
SciTegic.value.DoubleValue
-3.762

@<SCITEGIC>MOL_PROPERTY
VdW12
SciTegic.value.DoubleValue
3.972

@<SCITEGIC>MOL_PROPERTY
Bond
SciTegic.value.DoubleValue
0.078

@<SCITEGIC>MOL_PROPERTY
Angle
SciTegic.value.DoubleValue
2.428

@<SCITEGIC>MOL_PROPERTY
Pdih
SciTegic.value.DoubleValue
3.616

@<SCITEGIC>MOL_PROPERTY
Idih
SciTegic.value.DoubleValue
0.002

@<SCITEGIC>MOL_PROPERTY
Tether
SciTegic.value.DoubleValue
0.000

@<TRIPOS>MOLECULE
guest-6_confgen4.mol2 : confsearch ligand conformer 336
          13          12           1
SMALL
USER_CHARGES
 
@<TRIPOS>ATOM
       1    C1      21.572243   19.535530   22.874702 C.2        1 MOL1         0.6021
       2    O1      22.284983   20.164421   22.118128 O.co2      1 MOL1        -0.6904
       3    O2      21.409403   19.830760   24.041929 O.co2      1 MOL1        -0.6904
       4    C2      20.871503   18.287838   22.342769 C.3        1 MOL1        -0.2102
       5    H1      21.044759   17.482060   23.066019 H          1 MOL1         0.0687
       6    H2      21.357289   17.983755   21.407444 H          1 MOL1         0.0687
       7    C3      19.347183   18.462180   22.120528 C.3        1 MOL1        -0.1974
       8    H3      18.903643   17.484968   21.885580 H          1 MOL1         0.0689
       9    H4      18.876765   18.806641   23.052180 H          1 MOL1         0.0689
      10    C4      19.026046   19.448869   20.978931 C.3        1 MOL1        -0.2987
      11    H5      19.468691   19.111530   20.032539 H          1 MOL1         0.0700
      12    H6      17.941091   19.534129   20.835065 H          1 MOL1         0.0700
      13    H7      19.417413   20.450494   21.201204 H          1 MOL1         0.0700
@<TRIPOS>BOND
    1     1     2    1
    2     1     3    2
    3     1     4    1
    4     4     5    1
    5     4     6    1
    6     4     7    1
    7     7     8    1
    8     7     9    1
    9     7    10    1
   10    10    11    1
   11    10    12    1
   12    10    13    1
@<TRIPOS>SUBSTRUCTURE
       1 MOL1            1 RESIDUE      1      MOL     
@<SCITEGIC>MOL_PROPERTY
VConf Rank
SciTegic.value.IntegerValue
336

@<SCITEGIC>MOL_PROPERTY
Conf_Id
SciTegic.value.IntegerValue
36

@<SCITEGIC>MOL_PROPERTY
Delta U+W
SciTegic.value.DoubleValue
0.272

@<SCITEGIC>MOL_PROPERTY
U+W
SciTegic.value.DoubleValue
-58.060

@<SCITEGIC>MOL_PROPERTY
Grad RMS
SciTegic.value.DoubleValue
0.000000

@<SCITEGIC>MOL_PROPERTY
U
SciTegic.value.DoubleValue
9.781

@<SCITEGIC>MOL_PROPERTY
W
SciTegic.value.DoubleValue
-67.841

@<SCITEGIC>MOL_PROPERTY
W(PB)
SciTegic.value.DoubleValue
-69.537

@<SCITEGIC>MOL_PROPERTY
W(SA)
SciTegic.value.DoubleValue
1.696

@<SCITEGIC>MOL_PROPERTY
Valence
SciTegic.value.DoubleValue
6.123

@<SCITEGIC>MOL_PROPERTY
Coulomb
SciTegic.value.DoubleValue
3.449

@<SCITEGIC>MOL_PROPERTY
VdW
SciTegic.value.DoubleValue
0.209

@<SCITEGIC>MOL_PROPERTY
VdW6
SciTegic.value.DoubleValue
-3.762

@<SCITEGIC>MOL_PROPERTY
VdW12
SciTegic.value.DoubleValue
3.972

@<SCITEGIC>MOL_PROPERTY
Bond
SciTegic.value.DoubleValue
0.078

@<SCITEGIC>MOL_PROPERTY
Angle
SciTegic.value.DoubleValue
2.428

@<SCITEGIC>MOL_PROPERTY
Pdih
SciTegic.value.DoubleValue
3.616

@<SCITEGIC>MOL_PROPERTY
Idih
SciTegic.value.DoubleValue
0.002

@<SCITEGIC>MOL_PROPERTY
Tether
SciTegic.value.DoubleValue
0.000

@<TRIPOS>MOLECULE
guest-6_confgen4.mol2 : confsearch ligand conformer 337
          13          12           1
SMALL
USER_CHARGES
 
@<TRIPOS>ATOM
       1    C1      18.731929   20.550811   22.512916 C.2        1 MOL1         0.6021
       2    O1      18.690700   21.253898   21.522311 O.co2      1 MOL1        -0.6904
       3    O2      18.134410   20.814853   23.536658 O.co2      1 MOL1        -0.6904
       4    C2      19.565967   19.268264   22.501244 C.3        1 MOL1        -0.2102
       5    H1      18.892015   18.436894   22.739888 H          1 MOL1         0.0687
       6    H2      20.289091   19.340107   23.322381 H          1 MOL1         0.0687
       7    C3      20.310997   18.972210   21.173373 C.3        1 MOL1        -0.1974
       8    H3      19.584850   18.903492   20.351337 H          1 MOL1         0.0689
       9    H4      20.983596   19.807856   20.934503 H          1 MOL1         0.0689
      10    C4      21.122813   17.663749   21.255361 C.3        1 MOL1        -0.2987
      11    H5      20.467825   16.807309   21.462783 H          1 MOL1         0.0700
      12    H6      21.642432   17.471274   20.307623 H          1 MOL1         0.0700
      13    H7      21.877767   17.718928   22.050674 H          1 MOL1         0.0700
@<TRIPOS>BOND
    1     1     2    1
    2     1     3    2
    3     1     4    1
    4     4     5    1
    5     4     6    1
    6     4     7    1
    7     7     8    1
    8     7     9    1
    9     7    10    1
   10    10    11    1
   11    10    12    1
   12    10    13    1
@<TRIPOS>SUBSTRUCTURE
       1 MOL1            1 RESIDUE      1      MOL     
@<SCITEGIC>MOL_PROPERTY
VConf Rank
SciTegic.value.IntegerValue
337

@<SCITEGIC>MOL_PROPERTY
Conf_Id
SciTegic.value.IntegerValue
0

@<SCITEGIC>MOL_PROPERTY
Delta U+W
SciTegic.value.DoubleValue
0.000

@<SCITEGIC>MOL_PROPERTY
U+W
SciTegic.value.DoubleValue
-58.332

@<SCITEGIC>MOL_PROPERTY
Grad RMS
SciTegic.value.DoubleValue
0.000000

@<SCITEGIC>MOL_PROPERTY
U
SciTegic.value.DoubleValue
8.390

@<SCITEGIC>MOL_PROPERTY
W
SciTegic.value.DoubleValue
-66.722

@<SCITEGIC>MOL_PROPERTY
W(PB)
SciTegic.value.DoubleValue
-68.455

@<SCITEGIC>MOL_PROPERTY
W(SA)
SciTegic.value.DoubleValue
1.733

@<SCITEGIC>MOL_PROPERTY
Valence
SciTegic.value.DoubleValue
6.333

@<SCITEGIC>MOL_PROPERTY
Coulomb
SciTegic.value.DoubleValue
1.215

@<SCITEGIC>MOL_PROPERTY
VdW
SciTegic.value.DoubleValue
0.842

@<SCITEGIC>MOL_PROPERTY
VdW6
SciTegic.value.DoubleValue
-3.344

@<SCITEGIC>MOL_PROPERTY
VdW12
SciTegic.value.DoubleValue
4.186

@<SCITEGIC>MOL_PROPERTY
Bond
SciTegic.value.DoubleValue
0.091

@<SCITEGIC>MOL_PROPERTY
Angle
SciTegic.value.DoubleValue
2.713

@<SCITEGIC>MOL_PROPERTY
Pdih
SciTegic.value.DoubleValue
3.529

@<SCITEGIC>MOL_PROPERTY
Idih
SciTegic.value.DoubleValue
0.000

@<SCITEGIC>MOL_PROPERTY
Tether
SciTegic.value.DoubleValue
0.000

@<TRIPOS>MOLECULE
guest-6_confgen4.mol2 : confsearch ligand conformer 338
          13          12           1
SMALL
USER_CHARGES
 
@<TRIPOS>ATOM
       1    C1      20.666467   20.981151   21.350292 C.2        1 MOL1         0.6021
       2    O1      21.849970   21.192165   21.523942 O.co2      1 MOL1        -0.6904
       3    O2      19.822692   21.854869   21.345702 O.co2      1 MOL1        -0.6904
       4    C2      20.213196   19.539547   21.145786 C.3        1 MOL1        -0.2102
       5    H1      21.014330   19.000286   20.625786 H          1 MOL1         0.0687
       6    H2      19.342525   19.546793   20.478780 H          1 MOL1         0.0687
       7    C3      19.862230   18.822672   22.471969 C.3        1 MOL1        -0.1974
       8    H3      20.738202   18.830244   23.135623 H          1 MOL1         0.0689
       9    H4      19.066007   19.376776   22.988516 H          1 MOL1         0.0689
      10    C4      19.408282   17.368949   22.231321 C.3        1 MOL1        -0.2987
      11    H5      19.164037   16.877660   23.182237 H          1 MOL1         0.0700
      12    H6      18.514851   17.336873   21.593897 H          1 MOL1         0.0700
      13    H7      20.199887   16.786152   21.742173 H          1 MOL1         0.0700
@<TRIPOS>BOND
    1     1     2    1
    2     1     3    2
    3     1     4    1
    4     4     5    1
    5     4     6    1
    6     4     7    1
    7     7     8    1
    8     7     9    1
    9     7    10    1
   10    10    11    1
   11    10    12    1
   12    10    13    1
@<TRIPOS>SUBSTRUCTURE
       1 MOL1            1 RESIDUE      1      MOL     
@<SCITEGIC>MOL_PROPERTY
VConf Rank
SciTegic.value.IntegerValue
338

@<SCITEGIC>MOL_PROPERTY
Conf_Id
SciTegic.value.IntegerValue
1

@<SCITEGIC>MOL_PROPERTY
Delta U+W
SciTegic.value.DoubleValue
-1.339

@<SCITEGIC>MOL_PROPERTY
U+W
SciTegic.value.DoubleValue
-59.672

@<SCITEGIC>MOL_PROPERTY
Grad RMS
SciTegic.value.DoubleValue
0.000000

@<SCITEGIC>MOL_PROPERTY
U
SciTegic.value.DoubleValue
7.389

@<SCITEGIC>MOL_PROPERTY
W
SciTegic.value.DoubleValue
-67.061

@<SCITEGIC>MOL_PROPERTY
W(PB)
SciTegic.value.DoubleValue
-68.767

@<SCITEGIC>MOL_PROPERTY
W(SA)
SciTegic.value.DoubleValue
1.707

@<SCITEGIC>MOL_PROPERTY
Valence
SciTegic.value.DoubleValue
5.822

@<SCITEGIC>MOL_PROPERTY
Coulomb
SciTegic.value.DoubleValue
1.255

@<SCITEGIC>MOL_PROPERTY
VdW
SciTegic.value.DoubleValue
0.312

@<SCITEGIC>MOL_PROPERTY
VdW6
SciTegic.value.DoubleValue
-3.061

@<SCITEGIC>MOL_PROPERTY
VdW12
SciTegic.value.DoubleValue
3.372

@<SCITEGIC>MOL_PROPERTY
Bond
SciTegic.value.DoubleValue
0.059

@<SCITEGIC>MOL_PROPERTY
Angle
SciTegic.value.DoubleValue
2.241

@<SCITEGIC>MOL_PROPERTY
Pdih
SciTegic.value.DoubleValue
3.522

@<SCITEGIC>MOL_PROPERTY
Idih
SciTegic.value.DoubleValue
0.000

@<SCITEGIC>MOL_PROPERTY
Tether
SciTegic.value.DoubleValue
0.000

@<TRIPOS>MOLECULE
guest-6_confgen4.mol2 : confsearch ligand conformer 339
          13          12           1
SMALL
USER_CHARGES
 
@<TRIPOS>ATOM
       1    C1      19.130230   18.821509   20.513971 C.2        1 MOL1         0.6021
       2    O1      18.023004   18.343051   20.659664 O.co2      1 MOL1        -0.6904
       3    O2      19.363835   19.755533   19.773071 O.co2      1 MOL1        -0.6904
       4    C2      20.293309   18.190992   21.275827 C.3        1 MOL1        -0.2102
       5    H1      21.233224   18.507879   20.807395 H          1 MOL1         0.0687
       6    H2      20.222501   17.105140   21.140561 H          1 MOL1         0.0687
       7    C3      20.313540   18.521632   22.790293 C.3        1 MOL1        -0.1974
       8    H3      19.352260   18.238200   23.241435 H          1 MOL1         0.0689
       9    H4      21.084515   17.912320   23.281424 H          1 MOL1         0.0689
      10    C4      20.598692   20.012600   23.065309 C.3        1 MOL1        -0.2987
      11    H5      19.821067   20.650878   22.625163 H          1 MOL1         0.0700
      12    H6      20.625672   20.208530   24.145114 H          1 MOL1         0.0700
      13    H7      21.566335   20.311743   22.641550 H          1 MOL1         0.0700
@<TRIPOS>BOND
    1     1     2    1
    2     1     3    2
    3     1     4    1
    4     4     5    1
    5     4     6    1
    6     4     7    1
    7     7     8    1
    8     7     9    1
    9     7    10    1
   10    10    11    1
   11    10    12    1
   12    10    13    1
@<TRIPOS>SUBSTRUCTURE
       1 MOL1            1 RESIDUE      1      MOL     
@<SCITEGIC>MOL_PROPERTY
VConf Rank
SciTegic.value.IntegerValue
339

@<SCITEGIC>MOL_PROPERTY
Conf_Id
SciTegic.value.IntegerValue
4

@<SCITEGIC>MOL_PROPERTY
Delta U+W
SciTegic.value.DoubleValue
0.281

@<SCITEGIC>MOL_PROPERTY
U+W
SciTegic.value.DoubleValue
-58.051

@<SCITEGIC>MOL_PROPERTY
Grad RMS
SciTegic.value.DoubleValue
0.000000

@<SCITEGIC>MOL_PROPERTY
U
SciTegic.value.DoubleValue
9.781

@<SCITEGIC>MOL_PROPERTY
W
SciTegic.value.DoubleValue
-67.832

@<SCITEGIC>MOL_PROPERTY
W(PB)
SciTegic.value.DoubleValue
-69.535

@<SCITEGIC>MOL_PROPERTY
W(SA)
SciTegic.value.DoubleValue
1.703

@<SCITEGIC>MOL_PROPERTY
Valence
SciTegic.value.DoubleValue
6.123

@<SCITEGIC>MOL_PROPERTY
Coulomb
SciTegic.value.DoubleValue
3.449

@<SCITEGIC>MOL_PROPERTY
VdW
SciTegic.value.DoubleValue
0.209

@<SCITEGIC>MOL_PROPERTY
VdW6
SciTegic.value.DoubleValue
-3.762

@<SCITEGIC>MOL_PROPERTY
VdW12
SciTegic.value.DoubleValue
3.972

@<SCITEGIC>MOL_PROPERTY
Bond
SciTegic.value.DoubleValue
0.078

@<SCITEGIC>MOL_PROPERTY
Angle
SciTegic.value.DoubleValue
2.428

@<SCITEGIC>MOL_PROPERTY
Pdih
SciTegic.value.DoubleValue
3.616

@<SCITEGIC>MOL_PROPERTY
Idih
SciTegic.value.DoubleValue
0.002

@<SCITEGIC>MOL_PROPERTY
Tether
SciTegic.value.DoubleValue
0.000

@<TRIPOS>MOLECULE
guest-6_confgen4.mol2 : confsearch ligand conformer 340
          13          12           1
SMALL
USER_CHARGES
 
@<TRIPOS>ATOM
       1    C1      21.854523   19.225906   21.642774 C.2        1 MOL1         0.6021
       2    O1      22.491029   19.186790   22.676813 O.co2      1 MOL1        -0.6904
       3    O2      22.257630   18.771153   20.590728 O.co2      1 MOL1        -0.6904
       4    C2      20.491633   19.913733   21.655086 C.3        1 MOL1        -0.2102
       5    H1      20.462969   20.598080   20.798795 H          1 MOL1         0.0687
       6    H2      20.418497   20.532685   22.557769 H          1 MOL1         0.0687
       7    C3      19.288332   18.939418   21.576885 C.3        1 MOL1        -0.1974
       8    H3      18.364881   19.518311   21.439069 H          1 MOL1         0.0689
       9    H4      19.392852   18.296274   20.691807 H          1 MOL1         0.0689
      10    C4      19.152014   18.066874   22.841800 C.3        1 MOL1        -0.2987
      11    H5      19.024032   18.690131   23.736542 H          1 MOL1         0.0700
      12    H6      18.280729   17.403820   22.762322 H          1 MOL1         0.0700
      13    H7      20.041889   17.439999   22.986628 H          1 MOL1         0.0700
@<TRIPOS>BOND
    1     1     2    1
    2     1     3    2
    3     1     4    1
    4     4     5    1
    5     4     6    1
    6     4     7    1
    7     7     8    1
    8     7     9    1
    9     7    10    1
   10    10    11    1
   11    10    12    1
   12    10    13    1
@<TRIPOS>SUBSTRUCTURE
       1 MOL1            1 RESIDUE      1      MOL     
@<SCITEGIC>MOL_PROPERTY
VConf Rank
SciTegic.value.IntegerValue
340

@<SCITEGIC>MOL_PROPERTY
Conf_Id
SciTegic.value.IntegerValue
36

@<SCITEGIC>MOL_PROPERTY
Delta U+W
SciTegic.value.DoubleValue
0.272

@<SCITEGIC>MOL_PROPERTY
U+W
SciTegic.value.DoubleValue
-58.060

@<SCITEGIC>MOL_PROPERTY
Grad RMS
SciTegic.value.DoubleValue
0.000000

@<SCITEGIC>MOL_PROPERTY
U
SciTegic.value.DoubleValue
9.781

@<SCITEGIC>MOL_PROPERTY
W
SciTegic.value.DoubleValue
-67.841

@<SCITEGIC>MOL_PROPERTY
W(PB)
SciTegic.value.DoubleValue
-69.537

@<SCITEGIC>MOL_PROPERTY
W(SA)
SciTegic.value.DoubleValue
1.696

@<SCITEGIC>MOL_PROPERTY
Valence
SciTegic.value.DoubleValue
6.123

@<SCITEGIC>MOL_PROPERTY
Coulomb
SciTegic.value.DoubleValue
3.449

@<SCITEGIC>MOL_PROPERTY
VdW
SciTegic.value.DoubleValue
0.209

@<SCITEGIC>MOL_PROPERTY
VdW6
SciTegic.value.DoubleValue
-3.762

@<SCITEGIC>MOL_PROPERTY
VdW12
SciTegic.value.DoubleValue
3.972

@<SCITEGIC>MOL_PROPERTY
Bond
SciTegic.value.DoubleValue
0.078

@<SCITEGIC>MOL_PROPERTY
Angle
SciTegic.value.DoubleValue
2.428

@<SCITEGIC>MOL_PROPERTY
Pdih
SciTegic.value.DoubleValue
3.616

@<SCITEGIC>MOL_PROPERTY
Idih
SciTegic.value.DoubleValue
0.002

@<SCITEGIC>MOL_PROPERTY
Tether
SciTegic.value.DoubleValue
0.000

@<TRIPOS>MOLECULE
guest-6_confgen4.mol2 : confsearch ligand conformer 341
          13          12           1
SMALL
USER_CHARGES
 
@<TRIPOS>ATOM
       1    C1      19.537255   17.647454   20.245851 C.2        1 MOL1         0.6021
       2    O1      20.627838   17.148717   20.047812 O.co2      1 MOL1        -0.6904
       3    O2      18.544481   17.337242   19.618981 O.co2      1 MOL1        -0.6904
       4    C2      19.375278   18.717784   21.326979 C.3        1 MOL1        -0.2102
       5    H1      18.612528   18.361255   22.029430 H          1 MOL1         0.0687
       6    H2      18.970409   19.614292   20.842529 H          1 MOL1         0.0687
       7    C3      20.669274   19.081461   22.101104 C.3        1 MOL1        -0.1974
       8    H3      21.074961   18.181153   22.583408 H          1 MOL1         0.0689
       9    H4      21.433318   19.435663   21.395035 H          1 MOL1         0.0689
      10    C4      20.409717   20.165224   23.166901 C.3        1 MOL1        -0.2987
      11    H5      19.671153   19.822851   23.903669 H          1 MOL1         0.0700
      12    H6      21.335844   20.409133   23.703609 H          1 MOL1         0.0700
      13    H7      20.032335   21.087416   22.705744 H          1 MOL1         0.0700
@<TRIPOS>BOND
    1     1     2    1
    2     1     3    2
    3     1     4    1
    4     4     5    1
    5     4     6    1
    6     4     7    1
    7     7     8    1
    8     7     9    1
    9     7    10    1
   10    10    11    1
   11    10    12    1
   12    10    13    1
@<TRIPOS>SUBSTRUCTURE
       1 MOL1            1 RESIDUE      1      MOL     
@<SCITEGIC>MOL_PROPERTY
VConf Rank
SciTegic.value.IntegerValue
341

@<SCITEGIC>MOL_PROPERTY
Conf_Id
SciTegic.value.IntegerValue
0

@<SCITEGIC>MOL_PROPERTY
Delta U+W
SciTegic.value.DoubleValue
0.000

@<SCITEGIC>MOL_PROPERTY
U+W
SciTegic.value.DoubleValue
-58.332

@<SCITEGIC>MOL_PROPERTY
Grad RMS
SciTegic.value.DoubleValue
0.000000

@<SCITEGIC>MOL_PROPERTY
U
SciTegic.value.DoubleValue
8.390

@<SCITEGIC>MOL_PROPERTY
W
SciTegic.value.DoubleValue
-66.722

@<SCITEGIC>MOL_PROPERTY
W(PB)
SciTegic.value.DoubleValue
-68.455

@<SCITEGIC>MOL_PROPERTY
W(SA)
SciTegic.value.DoubleValue
1.733

@<SCITEGIC>MOL_PROPERTY
Valence
SciTegic.value.DoubleValue
6.333

@<SCITEGIC>MOL_PROPERTY
Coulomb
SciTegic.value.DoubleValue
1.215

@<SCITEGIC>MOL_PROPERTY
VdW
SciTegic.value.DoubleValue
0.842

@<SCITEGIC>MOL_PROPERTY
VdW6
SciTegic.value.DoubleValue
-3.344

@<SCITEGIC>MOL_PROPERTY
VdW12
SciTegic.value.DoubleValue
4.186

@<SCITEGIC>MOL_PROPERTY
Bond
SciTegic.value.DoubleValue
0.091

@<SCITEGIC>MOL_PROPERTY
Angle
SciTegic.value.DoubleValue
2.713

@<SCITEGIC>MOL_PROPERTY
Pdih
SciTegic.value.DoubleValue
3.529

@<SCITEGIC>MOL_PROPERTY
Idih
SciTegic.value.DoubleValue
0.000

@<SCITEGIC>MOL_PROPERTY
Tether
SciTegic.value.DoubleValue
0.000

@<TRIPOS>MOLECULE
guest-6_confgen4.mol2 : confsearch ligand conformer 342
          13          12           1
SMALL
USER_CHARGES
 
@<TRIPOS>ATOM
       1    C1      18.897693   17.248620   22.078789 C.2        1 MOL1         0.6021
       2    O1      19.074785   16.655189   23.123700 O.co2      1 MOL1        -0.6904
       3    O2      18.515395   16.711600   21.058584 O.co2      1 MOL1        -0.6904
       4    C2      19.189044   18.745005   22.040744 C.3        1 MOL1        -0.2102
       5    H1      18.960130   19.162610   23.028784 H          1 MOL1         0.0687
       6    H2      18.498805   19.209131   21.325778 H          1 MOL1         0.0687
       7    C3      20.652790   19.065848   21.652990 C.3        1 MOL1        -0.1974
       8    H3      21.335008   18.587910   22.369910 H          1 MOL1         0.0689
       9    H4      20.873551   18.634556   20.666544 H          1 MOL1         0.0689
      10    C4      20.914803   20.584985   21.623618 C.3        1 MOL1        -0.2987
      11    H5      21.956782   20.792405   21.346997 H          1 MOL1         0.0700
      12    H6      20.264426   21.081650   20.891574 H          1 MOL1         0.0700
      13    H7      20.729461   21.034626   22.608010 H          1 MOL1         0.0700
@<TRIPOS>BOND
    1     1     2    1
    2     1     3    2
    3     1     4    1
    4     4     5    1
    5     4     6    1
    6     4     7    1
    7     7     8    1
    8     7     9    1
    9     7    10    1
   10    10    11    1
   11    10    12    1
   12    10    13    1
@<TRIPOS>SUBSTRUCTURE
       1 MOL1            1 RESIDUE      1      MOL     
@<SCITEGIC>MOL_PROPERTY
VConf Rank
SciTegic.value.IntegerValue
342

@<SCITEGIC>MOL_PROPERTY
Conf_Id
SciTegic.value.IntegerValue
1

@<SCITEGIC>MOL_PROPERTY
Delta U+W
SciTegic.value.DoubleValue
-1.339

@<SCITEGIC>MOL_PROPERTY
U+W
SciTegic.value.DoubleValue
-59.672

@<SCITEGIC>MOL_PROPERTY
Grad RMS
SciTegic.value.DoubleValue
0.000000

@<SCITEGIC>MOL_PROPERTY
U
SciTegic.value.DoubleValue
7.389

@<SCITEGIC>MOL_PROPERTY
W
SciTegic.value.DoubleValue
-67.061

@<SCITEGIC>MOL_PROPERTY
W(PB)
SciTegic.value.DoubleValue
-68.767

@<SCITEGIC>MOL_PROPERTY
W(SA)
SciTegic.value.DoubleValue
1.707

@<SCITEGIC>MOL_PROPERTY
Valence
SciTegic.value.DoubleValue
5.822

@<SCITEGIC>MOL_PROPERTY
Coulomb
SciTegic.value.DoubleValue
1.255

@<SCITEGIC>MOL_PROPERTY
VdW
SciTegic.value.DoubleValue
0.312

@<SCITEGIC>MOL_PROPERTY
VdW6
SciTegic.value.DoubleValue
-3.061

@<SCITEGIC>MOL_PROPERTY
VdW12
SciTegic.value.DoubleValue
3.372

@<SCITEGIC>MOL_PROPERTY
Bond
SciTegic.value.DoubleValue
0.059

@<SCITEGIC>MOL_PROPERTY
Angle
SciTegic.value.DoubleValue
2.241

@<SCITEGIC>MOL_PROPERTY
Pdih
SciTegic.value.DoubleValue
3.522

@<SCITEGIC>MOL_PROPERTY
Idih
SciTegic.value.DoubleValue
0.000

@<SCITEGIC>MOL_PROPERTY
Tether
SciTegic.value.DoubleValue
0.000

@<TRIPOS>MOLECULE
guest-6_confgen4.mol2 : confsearch ligand conformer 343
          13          12           1
SMALL
USER_CHARGES
 
@<TRIPOS>ATOM
       1    C1      18.506531   18.327714   22.422352 C.2        1 MOL1         0.6021
       2    O1      18.272423   18.215581   23.609246 O.co2      1 MOL1        -0.6904
       3    O2      17.688948   18.717028   21.612477 O.co2      1 MOL1        -0.6904
       4    C2      19.890270   17.923470   21.919778 C.3        1 MOL1        -0.2102
       5    H1      19.840505   17.775871   20.833948 H          1 MOL1         0.0687
       6    H2      20.126474   16.947982   22.361385 H          1 MOL1         0.0687
       7    C3      21.012859   18.933529   22.270370 C.3        1 MOL1        -0.1974
       8    H3      21.026894   19.105581   23.355784 H          1 MOL1         0.0689
       9    H4      21.985658   18.495940   22.007595 H          1 MOL1         0.0689
      10    C4      20.849107   20.278012   21.531804 C.3        1 MOL1        -0.2987
      11    H5      19.904434   20.766276   21.805700 H          1 MOL1         0.0700
      12    H6      21.669297   20.961734   21.786572 H          1 MOL1         0.0700
      13    H7      20.854783   20.131291   20.443763 H          1 MOL1         0.0700
@<TRIPOS>BOND
    1     1     2    1
    2     1     3    2
    3     1     4    1
    4     4     5    1
    5     4     6    1
    6     4     7    1
    7     7     8    1
    8     7     9    1
    9     7    10    1
   10    10    11    1
   11    10    12    1
   12    10    13    1
@<TRIPOS>SUBSTRUCTURE
       1 MOL1            1 RESIDUE      1      MOL     
@<SCITEGIC>MOL_PROPERTY
VConf Rank
SciTegic.value.IntegerValue
343

@<SCITEGIC>MOL_PROPERTY
Conf_Id
SciTegic.value.IntegerValue
4

@<SCITEGIC>MOL_PROPERTY
Delta U+W
SciTegic.value.DoubleValue
0.281

@<SCITEGIC>MOL_PROPERTY
U+W
SciTegic.value.DoubleValue
-58.051

@<SCITEGIC>MOL_PROPERTY
Grad RMS
SciTegic.value.DoubleValue
0.000000

@<SCITEGIC>MOL_PROPERTY
U
SciTegic.value.DoubleValue
9.781

@<SCITEGIC>MOL_PROPERTY
W
SciTegic.value.DoubleValue
-67.832

@<SCITEGIC>MOL_PROPERTY
W(PB)
SciTegic.value.DoubleValue
-69.535

@<SCITEGIC>MOL_PROPERTY
W(SA)
SciTegic.value.DoubleValue
1.703

@<SCITEGIC>MOL_PROPERTY
Valence
SciTegic.value.DoubleValue
6.123

@<SCITEGIC>MOL_PROPERTY
Coulomb
SciTegic.value.DoubleValue
3.449

@<SCITEGIC>MOL_PROPERTY
VdW
SciTegic.value.DoubleValue
0.209

@<SCITEGIC>MOL_PROPERTY
VdW6
SciTegic.value.DoubleValue
-3.762

@<SCITEGIC>MOL_PROPERTY
VdW12
SciTegic.value.DoubleValue
3.972

@<SCITEGIC>MOL_PROPERTY
Bond
SciTegic.value.DoubleValue
0.078

@<SCITEGIC>MOL_PROPERTY
Angle
SciTegic.value.DoubleValue
2.428

@<SCITEGIC>MOL_PROPERTY
Pdih
SciTegic.value.DoubleValue
3.616

@<SCITEGIC>MOL_PROPERTY
Idih
SciTegic.value.DoubleValue
0.002

@<SCITEGIC>MOL_PROPERTY
Tether
SciTegic.value.DoubleValue
0.000

@<TRIPOS>MOLECULE
guest-6_confgen4.mol2 : confsearch ligand conformer 344
          13          12           1
SMALL
USER_CHARGES
 
@<TRIPOS>ATOM
       1    C1      20.490769   18.507152   20.305905 C.2        1 MOL1         0.6021
       2    O1      19.459596   18.423658   19.669024 O.co2      1 MOL1        -0.6904
       3    O2      21.525982   18.949591   19.849092 O.co2      1 MOL1        -0.6904
       4    C2      20.498377   17.997020   21.744805 C.3        1 MOL1        -0.2102
       5    H1      21.381255   17.357020   21.860194 H          1 MOL1         0.0687
       6    H2      19.620851   17.356210   21.895129 H          1 MOL1         0.0687
       7    C3      20.530652   19.117857   22.815327 C.3        1 MOL1        -0.1974
       8    H3      20.686371   18.666281   23.804621 H          1 MOL1         0.0689
       9    H4      21.389794   19.777969   22.630804 H          1 MOL1         0.0689
      10    C4      19.231006   19.948676   22.839594 C.3        1 MOL1        -0.2987
      11    H5      18.361278   19.310848   23.044872 H          1 MOL1         0.0700
      12    H6      19.278913   20.719125   23.620113 H          1 MOL1         0.0700
      13    H7      19.066166   20.451767   21.877537 H          1 MOL1         0.0700
@<TRIPOS>BOND
    1     1     2    1
    2     1     3    2
    3     1     4    1
    4     4     5    1
    5     4     6    1
    6     4     7    1
    7     7     8    1
    8     7     9    1
    9     7    10    1
   10    10    11    1
   11    10    12    1
   12    10    13    1
@<TRIPOS>SUBSTRUCTURE
       1 MOL1            1 RESIDUE      1      MOL     
@<SCITEGIC>MOL_PROPERTY
VConf Rank
SciTegic.value.IntegerValue
344

@<SCITEGIC>MOL_PROPERTY
Conf_Id
SciTegic.value.IntegerValue
36

@<SCITEGIC>MOL_PROPERTY
Delta U+W
SciTegic.value.DoubleValue
0.272

@<SCITEGIC>MOL_PROPERTY
U+W
SciTegic.value.DoubleValue
-58.060

@<SCITEGIC>MOL_PROPERTY
Grad RMS
SciTegic.value.DoubleValue
0.000000

@<SCITEGIC>MOL_PROPERTY
U
SciTegic.value.DoubleValue
9.781

@<SCITEGIC>MOL_PROPERTY
W
SciTegic.value.DoubleValue
-67.841

@<SCITEGIC>MOL_PROPERTY
W(PB)
SciTegic.value.DoubleValue
-69.537

@<SCITEGIC>MOL_PROPERTY
W(SA)
SciTegic.value.DoubleValue
1.696

@<SCITEGIC>MOL_PROPERTY
Valence
SciTegic.value.DoubleValue
6.123

@<SCITEGIC>MOL_PROPERTY
Coulomb
SciTegic.value.DoubleValue
3.449

@<SCITEGIC>MOL_PROPERTY
VdW
SciTegic.value.DoubleValue
0.209

@<SCITEGIC>MOL_PROPERTY
VdW6
SciTegic.value.DoubleValue
-3.762

@<SCITEGIC>MOL_PROPERTY
VdW12
SciTegic.value.DoubleValue
3.972

@<SCITEGIC>MOL_PROPERTY
Bond
SciTegic.value.DoubleValue
0.078

@<SCITEGIC>MOL_PROPERTY
Angle
SciTegic.value.DoubleValue
2.428

@<SCITEGIC>MOL_PROPERTY
Pdih
SciTegic.value.DoubleValue
3.616

@<SCITEGIC>MOL_PROPERTY
Idih
SciTegic.value.DoubleValue
0.002

@<SCITEGIC>MOL_PROPERTY
Tether
SciTegic.value.DoubleValue
0.000

@<TRIPOS>MOLECULE
guest-6_confgen4.mol2 : confsearch ligand conformer 345
          13          12           1
SMALL
USER_CHARGES
 
@<TRIPOS>ATOM
       1    C1      21.182352   18.012402   23.312790 C.2        1 MOL1         0.6021
       2    O1      21.522483   17.020592   22.698011 O.co2      1 MOL1        -0.6904
       3    O2      21.508741   18.221425   24.463692 O.co2      1 MOL1        -0.6904
       4    C2      20.302634   19.063868   22.633672 C.3        1 MOL1        -0.2102
       5    H1      20.839055   20.019111   22.679500 H          1 MOL1         0.0687
       6    H2      19.396997   19.175692   23.241665 H          1 MOL1         0.0687
       7    C3      19.911049   18.754508   21.165029 C.3        1 MOL1        -0.1974
       8    H3      20.820024   18.639946   20.558074 H          1 MOL1         0.0689
       9    H4      19.376254   17.795445   21.120916 H          1 MOL1         0.0689
      10    C4      19.026843   19.866323   20.565127 C.3        1 MOL1        -0.2987
      11    H5      19.551548   20.830787   20.569232 H          1 MOL1         0.0700
      12    H6      18.760206   19.630013   19.526706 H          1 MOL1         0.0700
      13    H7      18.096207   19.979531   21.136638 H          1 MOL1         0.0700
@<TRIPOS>BOND
    1     1     2    1
    2     1     3    2
    3     1     4    1
    4     4     5    1
    5     4     6    1
    6     4     7    1
    7     7     8    1
    8     7     9    1
    9     7    10    1
   10    10    11    1
   11    10    12    1
   12    10    13    1
@<TRIPOS>SUBSTRUCTURE
       1 MOL1            1 RESIDUE      1      MOL     
@<SCITEGIC>MOL_PROPERTY
VConf Rank
SciTegic.value.IntegerValue
345

@<SCITEGIC>MOL_PROPERTY
Conf_Id
SciTegic.value.IntegerValue
0

@<SCITEGIC>MOL_PROPERTY
Delta U+W
SciTegic.value.DoubleValue
0.000

@<SCITEGIC>MOL_PROPERTY
U+W
SciTegic.value.DoubleValue
-58.332

@<SCITEGIC>MOL_PROPERTY
Grad RMS
SciTegic.value.DoubleValue
0.000000

@<SCITEGIC>MOL_PROPERTY
U
SciTegic.value.DoubleValue
8.390

@<SCITEGIC>MOL_PROPERTY
W
SciTegic.value.DoubleValue
-66.722

@<SCITEGIC>MOL_PROPERTY
W(PB)
SciTegic.value.DoubleValue
-68.455

@<SCITEGIC>MOL_PROPERTY
W(SA)
SciTegic.value.DoubleValue
1.733

@<SCITEGIC>MOL_PROPERTY
Valence
SciTegic.value.DoubleValue
6.333

@<SCITEGIC>MOL_PROPERTY
Coulomb
SciTegic.value.DoubleValue
1.215

@<SCITEGIC>MOL_PROPERTY
VdW
SciTegic.value.DoubleValue
0.842

@<SCITEGIC>MOL_PROPERTY
VdW6
SciTegic.value.DoubleValue
-3.344

@<SCITEGIC>MOL_PROPERTY
VdW12
SciTegic.value.DoubleValue
4.186

@<SCITEGIC>MOL_PROPERTY
Bond
SciTegic.value.DoubleValue
0.091

@<SCITEGIC>MOL_PROPERTY
Angle
SciTegic.value.DoubleValue
2.713

@<SCITEGIC>MOL_PROPERTY
Pdih
SciTegic.value.DoubleValue
3.529

@<SCITEGIC>MOL_PROPERTY
Idih
SciTegic.value.DoubleValue
0.000

@<SCITEGIC>MOL_PROPERTY
Tether
SciTegic.value.DoubleValue
0.000

@<TRIPOS>MOLECULE
guest-6_confgen4.mol2 : confsearch ligand conformer 346
          13          12           1
SMALL
USER_CHARGES
 
@<TRIPOS>ATOM
       1    C1      17.969337   18.720523   21.305072 C.2        1 MOL1         0.6021
       2    O1      17.542182   19.398884   20.392534 O.co2      1 MOL1        -0.6904
       3    O2      17.264243   18.231526   22.164772 O.co2      1 MOL1        -0.6904
       4    C2      19.473923   18.485783   21.386415 C.3        1 MOL1        -0.2102
       5    H1      19.870799   18.457578   20.364303 H          1 MOL1         0.0687
       6    H2      19.641591   17.494892   21.825779 H          1 MOL1         0.0687
       7    C3      20.210193   19.566895   22.214033 C.3        1 MOL1        -0.1974
       8    H3      20.027076   20.555699   21.770685 H          1 MOL1         0.0689
       9    H4      19.797917   19.592740   23.232455 H          1 MOL1         0.0689
      10    C4      21.727696   19.301354   22.276990 C.3        1 MOL1        -0.2987
      11    H5      22.231928   20.077532   22.867378 H          1 MOL1         0.0700
      12    H6      21.937439   18.330172   22.744291 H          1 MOL1         0.0700
      13    H7      22.168350   19.300559   21.271316 H          1 MOL1         0.0700
@<TRIPOS>BOND
    1     1     2    1
    2     1     3    2
    3     1     4    1
    4     4     5    1
    5     4     6    1
    6     4     7    1
    7     7     8    1
    8     7     9    1
    9     7    10    1
   10    10    11    1
   11    10    12    1
   12    10    13    1
@<TRIPOS>SUBSTRUCTURE
       1 MOL1            1 RESIDUE      1      MOL     
@<SCITEGIC>MOL_PROPERTY
VConf Rank
SciTegic.value.IntegerValue
346

@<SCITEGIC>MOL_PROPERTY
Conf_Id
SciTegic.value.IntegerValue
1

@<SCITEGIC>MOL_PROPERTY
Delta U+W
SciTegic.value.DoubleValue
-1.339

@<SCITEGIC>MOL_PROPERTY
U+W
SciTegic.value.DoubleValue
-59.672

@<SCITEGIC>MOL_PROPERTY
Grad RMS
SciTegic.value.DoubleValue
0.000000

@<SCITEGIC>MOL_PROPERTY
U
SciTegic.value.DoubleValue
7.389

@<SCITEGIC>MOL_PROPERTY
W
SciTegic.value.DoubleValue
-67.061

@<SCITEGIC>MOL_PROPERTY
W(PB)
SciTegic.value.DoubleValue
-68.767

@<SCITEGIC>MOL_PROPERTY
W(SA)
SciTegic.value.DoubleValue
1.707

@<SCITEGIC>MOL_PROPERTY
Valence
SciTegic.value.DoubleValue
5.822

@<SCITEGIC>MOL_PROPERTY
Coulomb
SciTegic.value.DoubleValue
1.255

@<SCITEGIC>MOL_PROPERTY
VdW
SciTegic.value.DoubleValue
0.312

@<SCITEGIC>MOL_PROPERTY
VdW6
SciTegic.value.DoubleValue
-3.061

@<SCITEGIC>MOL_PROPERTY
VdW12
SciTegic.value.DoubleValue
3.372

@<SCITEGIC>MOL_PROPERTY
Bond
SciTegic.value.DoubleValue
0.059

@<SCITEGIC>MOL_PROPERTY
Angle
SciTegic.value.DoubleValue
2.241

@<SCITEGIC>MOL_PROPERTY
Pdih
SciTegic.value.DoubleValue
3.522

@<SCITEGIC>MOL_PROPERTY
Idih
SciTegic.value.DoubleValue
0.000

@<SCITEGIC>MOL_PROPERTY
Tether
SciTegic.value.DoubleValue
0.000

@<TRIPOS>MOLECULE
guest-6_confgen4.mol2 : confsearch ligand conformer 347
          13          12           1
SMALL
USER_CHARGES
 
@<TRIPOS>ATOM
       1    C1      18.742785   19.085583   20.863116 C.2        1 MOL1         0.6021
       2    O1      18.772600   20.014475   20.080576 O.co2      1 MOL1        -0.6904
       3    O2      18.364770   17.970327   20.564428 O.co2      1 MOL1        -0.6904
       4    C2      19.169364   19.345173   22.305812 C.3        1 MOL1        -0.2102
       5    H1      18.790454   18.531317   22.936172 H          1 MOL1         0.0687
       6    H2      18.666025   20.261781   22.635757 H          1 MOL1         0.0687
       7    C3      20.699985   19.500150   22.496913 C.3        1 MOL1        -0.1974
       8    H3      21.075649   20.289617   21.830925 H          1 MOL1         0.0689
       9    H4      20.902664   19.831299   23.524597 H          1 MOL1         0.0689
      10    C4      21.464155   18.186698   22.230797 C.3        1 MOL1        -0.2987
      11    H5      21.319666   17.848724   21.196039 H          1 MOL1         0.0700
      12    H6      22.540819   18.325721   22.393775 H          1 MOL1         0.0700
      13    H7      21.119247   17.389144   22.901870 H          1 MOL1         0.0700
@<TRIPOS>BOND
    1     1     2    1
    2     1     3    2
    3     1     4    1
    4     4     5    1
    5     4     6    1
    6     4     7    1
    7     7     8    1
    8     7     9    1
    9     7    10    1
   10    10    11    1
   11    10    12    1
   12    10    13    1
@<TRIPOS>SUBSTRUCTURE
       1 MOL1            1 RESIDUE      1      MOL     
@<SCITEGIC>MOL_PROPERTY
VConf Rank
SciTegic.value.IntegerValue
347

@<SCITEGIC>MOL_PROPERTY
Conf_Id
SciTegic.value.IntegerValue
4

@<SCITEGIC>MOL_PROPERTY
Delta U+W
SciTegic.value.DoubleValue
0.281

@<SCITEGIC>MOL_PROPERTY
U+W
SciTegic.value.DoubleValue
-58.051

@<SCITEGIC>MOL_PROPERTY
Grad RMS
SciTegic.value.DoubleValue
0.000000

@<SCITEGIC>MOL_PROPERTY
U
SciTegic.value.DoubleValue
9.781

@<SCITEGIC>MOL_PROPERTY
W
SciTegic.value.DoubleValue
-67.832

@<SCITEGIC>MOL_PROPERTY
W(PB)
SciTegic.value.DoubleValue
-69.535

@<SCITEGIC>MOL_PROPERTY
W(SA)
SciTegic.value.DoubleValue
1.703

@<SCITEGIC>MOL_PROPERTY
Valence
SciTegic.value.DoubleValue
6.123

@<SCITEGIC>MOL_PROPERTY
Coulomb
SciTegic.value.DoubleValue
3.449

@<SCITEGIC>MOL_PROPERTY
VdW
SciTegic.value.DoubleValue
0.209

@<SCITEGIC>MOL_PROPERTY
VdW6
SciTegic.value.DoubleValue
-3.762

@<SCITEGIC>MOL_PROPERTY
VdW12
SciTegic.value.DoubleValue
3.972

@<SCITEGIC>MOL_PROPERTY
Bond
SciTegic.value.DoubleValue
0.078

@<SCITEGIC>MOL_PROPERTY
Angle
SciTegic.value.DoubleValue
2.428

@<SCITEGIC>MOL_PROPERTY
Pdih
SciTegic.value.DoubleValue
3.616

@<SCITEGIC>MOL_PROPERTY
Idih
SciTegic.value.DoubleValue
0.002

@<SCITEGIC>MOL_PROPERTY
Tether
SciTegic.value.DoubleValue
0.000

@<TRIPOS>MOLECULE
guest-6_confgen4.mol2 : confsearch ligand conformer 348
          13          12           1
SMALL
USER_CHARGES
 
@<TRIPOS>ATOM
       1    C1      21.873249   18.756166   22.282238 C.2        1 MOL1         0.6021
       2    O1      22.281462   19.653041   22.992790 O.co2      1 MOL1        -0.6904
       3    O2      22.266449   17.609186   22.359221 O.co2      1 MOL1        -0.6904
       4    C2      20.838042   19.092423   21.211723 C.3        1 MOL1        -0.2102
       5    H1      21.181323   18.643035   20.272258 H          1 MOL1         0.0687
       6    H2      20.830498   20.178662   21.059033 H          1 MOL1         0.0687
       7    C3      19.407388   18.588339   21.531828 C.3        1 MOL1        -0.1974
       8    H3      18.767764   18.737620   20.651221 H          1 MOL1         0.0689
       9    H4      19.433040   17.506461   21.723675 H          1 MOL1         0.0689
      10    C4      18.781044   19.316818   22.738865 C.3        1 MOL1        -0.2987
      11    H5      18.725369   20.398416   22.558761 H          1 MOL1         0.0700
      12    H6      17.763124   18.950845   22.925949 H          1 MOL1         0.0700
      13    H7      19.372260   19.152162   23.649457 H          1 MOL1         0.0700
@<TRIPOS>BOND
    1     1     2    1
    2     1     3    2
    3     1     4    1
    4     4     5    1
    5     4     6    1
    6     4     7    1
    7     7     8    1
    8     7     9    1
    9     7    10    1
   10    10    11    1
   11    10    12    1
   12    10    13    1
@<TRIPOS>SUBSTRUCTURE
       1 MOL1            1 RESIDUE      1      MOL     
@<SCITEGIC>MOL_PROPERTY
VConf Rank
SciTegic.value.IntegerValue
348

@<SCITEGIC>MOL_PROPERTY
Conf_Id
SciTegic.value.IntegerValue
36

@<SCITEGIC>MOL_PROPERTY
Delta U+W
SciTegic.value.DoubleValue
0.272

@<SCITEGIC>MOL_PROPERTY
U+W
SciTegic.value.DoubleValue
-58.060

@<SCITEGIC>MOL_PROPERTY
Grad RMS
SciTegic.value.DoubleValue
0.000000

@<SCITEGIC>MOL_PROPERTY
U
SciTegic.value.DoubleValue
9.781

@<SCITEGIC>MOL_PROPERTY
W
SciTegic.value.DoubleValue
-67.841

@<SCITEGIC>MOL_PROPERTY
W(PB)
SciTegic.value.DoubleValue
-69.537

@<SCITEGIC>MOL_PROPERTY
W(SA)
SciTegic.value.DoubleValue
1.696

@<SCITEGIC>MOL_PROPERTY
Valence
SciTegic.value.DoubleValue
6.123

@<SCITEGIC>MOL_PROPERTY
Coulomb
SciTegic.value.DoubleValue
3.449

@<SCITEGIC>MOL_PROPERTY
VdW
SciTegic.value.DoubleValue
0.209

@<SCITEGIC>MOL_PROPERTY
VdW6
SciTegic.value.DoubleValue
-3.762

@<SCITEGIC>MOL_PROPERTY
VdW12
SciTegic.value.DoubleValue
3.972

@<SCITEGIC>MOL_PROPERTY
Bond
SciTegic.value.DoubleValue
0.078

@<SCITEGIC>MOL_PROPERTY
Angle
SciTegic.value.DoubleValue
2.428

@<SCITEGIC>MOL_PROPERTY
Pdih
SciTegic.value.DoubleValue
3.616

@<SCITEGIC>MOL_PROPERTY
Idih
SciTegic.value.DoubleValue
0.002

@<SCITEGIC>MOL_PROPERTY
Tether
SciTegic.value.DoubleValue
0.000

@<TRIPOS>MOLECULE
guest-6_confgen4.mol2 : confsearch ligand conformer 349
          13          12           1
SMALL
USER_CHARGES
 
@<TRIPOS>ATOM
       1    C1      19.313483   17.133643   22.568278 C.2        1 MOL1         0.6021
       2    O1      18.868946   16.648388   21.546396 O.co2      1 MOL1        -0.6904
       3    O2      19.277873   16.564692   23.640576 O.co2      1 MOL1        -0.6904
       4    C2      19.953036   18.523085   22.535033 C.3        1 MOL1        -0.2102
       5    H1      20.977005   18.421676   22.913901 H          1 MOL1         0.0687
       6    H2      19.408146   19.151839   23.249247 H          1 MOL1         0.0687
       7    C3      19.976023   19.210894   21.144944 C.3        1 MOL1        -0.1974
       8    H3      20.519993   18.577855   20.430022 H          1 MOL1         0.0689
       9    H4      18.949201   19.308851   20.765740 H          1 MOL1         0.0689
      10    C4      20.637290   20.602462   21.208968 C.3        1 MOL1        -0.2987
      11    H5      21.676256   20.528180   21.556178 H          1 MOL1         0.0700
      12    H6      20.644270   21.073057   20.217127 H          1 MOL1         0.0700
      13    H7      20.092871   21.265022   21.894640 H          1 MOL1         0.0700
@<TRIPOS>BOND
    1     1     2    1
    2     1     3    2
    3     1     4    1
    4     4     5    1
    5     4     6    1
    6     4     7    1
    7     7     8    1
    8     7     9    1
    9     7    10    1
   10    10    11    1
   11    10    12    1
   12    10    13    1
@<TRIPOS>SUBSTRUCTURE
       1 MOL1            1 RESIDUE      1      MOL     
@<SCITEGIC>MOL_PROPERTY
VConf Rank
SciTegic.value.IntegerValue
349

@<SCITEGIC>MOL_PROPERTY
Conf_Id
SciTegic.value.IntegerValue
0

@<SCITEGIC>MOL_PROPERTY
Delta U+W
SciTegic.value.DoubleValue
0.000

@<SCITEGIC>MOL_PROPERTY
U+W
SciTegic.value.DoubleValue
-58.332

@<SCITEGIC>MOL_PROPERTY
Grad RMS
SciTegic.value.DoubleValue
0.000000

@<SCITEGIC>MOL_PROPERTY
U
SciTegic.value.DoubleValue
8.390

@<SCITEGIC>MOL_PROPERTY
W
SciTegic.value.DoubleValue
-66.722

@<SCITEGIC>MOL_PROPERTY
W(PB)
SciTegic.value.DoubleValue
-68.455

@<SCITEGIC>MOL_PROPERTY
W(SA)
SciTegic.value.DoubleValue
1.733

@<SCITEGIC>MOL_PROPERTY
Valence
SciTegic.value.DoubleValue
6.333

@<SCITEGIC>MOL_PROPERTY
Coulomb
SciTegic.value.DoubleValue
1.215

@<SCITEGIC>MOL_PROPERTY
VdW
SciTegic.value.DoubleValue
0.842

@<SCITEGIC>MOL_PROPERTY
VdW6
SciTegic.value.DoubleValue
-3.344

@<SCITEGIC>MOL_PROPERTY
VdW12
SciTegic.value.DoubleValue
4.186

@<SCITEGIC>MOL_PROPERTY
Bond
SciTegic.value.DoubleValue
0.091

@<SCITEGIC>MOL_PROPERTY
Angle
SciTegic.value.DoubleValue
2.713

@<SCITEGIC>MOL_PROPERTY
Pdih
SciTegic.value.DoubleValue
3.529

@<SCITEGIC>MOL_PROPERTY
Idih
SciTegic.value.DoubleValue
0.000

@<SCITEGIC>MOL_PROPERTY
Tether
SciTegic.value.DoubleValue
0.000

@<TRIPOS>MOLECULE
guest-6_confgen4.mol2 : confsearch ligand conformer 350
          13          12           1
SMALL
USER_CHARGES
 
@<TRIPOS>ATOM
       1    C1      20.162819   20.604091   23.239972 C.2        1 MOL1         0.6021
       2    O1      19.218102   20.756015   23.988163 O.co2      1 MOL1        -0.6904
       3    O2      20.946888   21.488831   22.960992 O.co2      1 MOL1        -0.6904
       4    C2      20.364464   19.233854   22.601780 C.3        1 MOL1        -0.2102
       5    H1      20.015442   18.472635   23.310121 H          1 MOL1         0.0687
       6    H2      21.441108   19.076954   22.463075 H          1 MOL1         0.0687
       7    C3      19.625636   19.082291   21.250110 C.3        1 MOL1        -0.1974
       8    H3      18.550006   19.251237   21.399435 H          1 MOL1         0.0689
       9    H4      19.976029   19.855578   20.552203 H          1 MOL1         0.0689
      10    C4      19.849127   17.687753   20.631559 C.3        1 MOL1        -0.2987
      11    H5      19.318095   17.599491   19.674754 H          1 MOL1         0.0700
      12    H6      20.915979   17.507183   20.445071 H          1 MOL1         0.0700
      13    H7      19.478981   16.898224   21.298786 H          1 MOL1         0.0700
@<TRIPOS>BOND
    1     1     2    1
    2     1     3    2
    3     1     4    1
    4     4     5    1
    5     4     6    1
    6     4     7    1
    7     7     8    1
    8     7     9    1
    9     7    10    1
   10    10    11    1
   11    10    12    1
   12    10    13    1
@<TRIPOS>SUBSTRUCTURE
       1 MOL1            1 RESIDUE      1      MOL     
@<SCITEGIC>MOL_PROPERTY
VConf Rank
SciTegic.value.IntegerValue
350

@<SCITEGIC>MOL_PROPERTY
Conf_Id
SciTegic.value.IntegerValue
1

@<SCITEGIC>MOL_PROPERTY
Delta U+W
SciTegic.value.DoubleValue
-1.339

@<SCITEGIC>MOL_PROPERTY
U+W
SciTegic.value.DoubleValue
-59.672

@<SCITEGIC>MOL_PROPERTY
Grad RMS
SciTegic.value.DoubleValue
0.000000

@<SCITEGIC>MOL_PROPERTY
U
SciTegic.value.DoubleValue
7.389

@<SCITEGIC>MOL_PROPERTY
W
SciTegic.value.DoubleValue
-67.061

@<SCITEGIC>MOL_PROPERTY
W(PB)
SciTegic.value.DoubleValue
-68.767

@<SCITEGIC>MOL_PROPERTY
W(SA)
SciTegic.value.DoubleValue
1.707

@<SCITEGIC>MOL_PROPERTY
Valence
SciTegic.value.DoubleValue
5.822

@<SCITEGIC>MOL_PROPERTY
Coulomb
SciTegic.value.DoubleValue
1.255

@<SCITEGIC>MOL_PROPERTY
VdW
SciTegic.value.DoubleValue
0.312

@<SCITEGIC>MOL_PROPERTY
VdW6
SciTegic.value.DoubleValue
-3.061

@<SCITEGIC>MOL_PROPERTY
VdW12
SciTegic.value.DoubleValue
3.372

@<SCITEGIC>MOL_PROPERTY
Bond
SciTegic.value.DoubleValue
0.059

@<SCITEGIC>MOL_PROPERTY
Angle
SciTegic.value.DoubleValue
2.241

@<SCITEGIC>MOL_PROPERTY
Pdih
SciTegic.value.DoubleValue
3.522

@<SCITEGIC>MOL_PROPERTY
Idih
SciTegic.value.DoubleValue
0.000

@<SCITEGIC>MOL_PROPERTY
Tether
SciTegic.value.DoubleValue
0.000

@<TRIPOS>MOLECULE
guest-6_confgen4.mol2 : confsearch ligand conformer 351
          13          12           1
SMALL
USER_CHARGES
 
@<TRIPOS>ATOM
       1    C1      19.677952   17.625715   23.096879 C.2        1 MOL1         0.6021
       2    O1      19.654761   17.892639   24.281916 O.co2      1 MOL1        -0.6904
       3    O2      18.858094   16.911278   22.555292 O.co2      1 MOL1        -0.6904
       4    C2      20.818686   18.189976   22.253633 C.3        1 MOL1        -0.2102
       5    H1      20.882122   17.617460   21.320098 H          1 MOL1         0.0687
       6    H2      21.751179   18.007472   22.800932 H          1 MOL1         0.0687
       7    C3      20.690421   19.703582   21.943986 C.3        1 MOL1        -0.1974
       8    H3      20.586005   20.263643   22.883853 H          1 MOL1         0.0689
       9    H4      21.617259   20.053632   21.469316 H          1 MOL1         0.0689
      10    C4      19.499111   20.017341   21.015404 C.3        1 MOL1        -0.2987
      11    H5      18.548805   19.720185   21.478486 H          1 MOL1         0.0700
      12    H6      19.448794   21.092720   20.800635 H          1 MOL1         0.0700
      13    H7      19.594993   19.484365   20.060346 H          1 MOL1         0.0700
@<TRIPOS>BOND
    1     1     2    1
    2     1     3    2
    3     1     4    1
    4     4     5    1
    5     4     6    1
    6     4     7    1
    7     7     8    1
    8     7     9    1
    9     7    10    1
   10    10    11    1
   11    10    12    1
   12    10    13    1
@<TRIPOS>SUBSTRUCTURE
       1 MOL1            1 RESIDUE      1      MOL     
@<SCITEGIC>MOL_PROPERTY
VConf Rank
SciTegic.value.IntegerValue
351

@<SCITEGIC>MOL_PROPERTY
Conf_Id
SciTegic.value.IntegerValue
4

@<SCITEGIC>MOL_PROPERTY
Delta U+W
SciTegic.value.DoubleValue
0.281

@<SCITEGIC>MOL_PROPERTY
U+W
SciTegic.value.DoubleValue
-58.051

@<SCITEGIC>MOL_PROPERTY
Grad RMS
SciTegic.value.DoubleValue
0.000000

@<SCITEGIC>MOL_PROPERTY
U
SciTegic.value.DoubleValue
9.781

@<SCITEGIC>MOL_PROPERTY
W
SciTegic.value.DoubleValue
-67.832

@<SCITEGIC>MOL_PROPERTY
W(PB)
SciTegic.value.DoubleValue
-69.535

@<SCITEGIC>MOL_PROPERTY
W(SA)
SciTegic.value.DoubleValue
1.703

@<SCITEGIC>MOL_PROPERTY
Valence
SciTegic.value.DoubleValue
6.123

@<SCITEGIC>MOL_PROPERTY
Coulomb
SciTegic.value.DoubleValue
3.449

@<SCITEGIC>MOL_PROPERTY
VdW
SciTegic.value.DoubleValue
0.209

@<SCITEGIC>MOL_PROPERTY
VdW6
SciTegic.value.DoubleValue
-3.762

@<SCITEGIC>MOL_PROPERTY
VdW12
SciTegic.value.DoubleValue
3.972

@<SCITEGIC>MOL_PROPERTY
Bond
SciTegic.value.DoubleValue
0.078

@<SCITEGIC>MOL_PROPERTY
Angle
SciTegic.value.DoubleValue
2.428

@<SCITEGIC>MOL_PROPERTY
Pdih
SciTegic.value.DoubleValue
3.616

@<SCITEGIC>MOL_PROPERTY
Idih
SciTegic.value.DoubleValue
0.002

@<SCITEGIC>MOL_PROPERTY
Tether
SciTegic.value.DoubleValue
0.000

@<TRIPOS>MOLECULE
guest-6_confgen4.mol2 : confsearch ligand conformer 352
          13          12           1
SMALL
USER_CHARGES
 
@<TRIPOS>ATOM
       1    C1      19.117641   19.297136   23.447106 C.2        1 MOL1         0.6021
       2    O1      18.273343   20.128781   23.179838 O.co2      1 MOL1        -0.6904
       3    O2      18.916355   18.350776   24.181944 O.co2      1 MOL1        -0.6904
       4    C2      20.515979   19.467473   22.858584 C.3        1 MOL1        -0.2102
       5    H1      21.233384   19.340344   23.678069 H          1 MOL1         0.0687
       6    H2      20.623423   20.498825   22.500737 H          1 MOL1         0.0687
       7    C3      20.851331   18.469781   21.720390 C.3        1 MOL1        -0.1974
       8    H3      21.915338   18.561887   21.462946 H          1 MOL1         0.0689
       9    H4      20.700633   17.441108   22.076824 H          1 MOL1         0.0689
      10    C4      20.003783   18.711913   20.454309 C.3        1 MOL1        -0.2987
      11    H5      20.156654   19.728240   20.068172 H          1 MOL1         0.0700
      12    H6      20.279397   18.002887   19.662845 H          1 MOL1         0.0700
      13    H7      18.933749   18.584024   20.665254 H          1 MOL1         0.0700
@<TRIPOS>BOND
    1     1     2    1
    2     1     3    2
    3     1     4    1
    4     4     5    1
    5     4     6    1
    6     4     7    1
    7     7     8    1
    8     7     9    1
    9     7    10    1
   10    10    11    1
   11    10    12    1
   12    10    13    1
@<TRIPOS>SUBSTRUCTURE
       1 MOL1            1 RESIDUE      1      MOL     
@<SCITEGIC>MOL_PROPERTY
VConf Rank
SciTegic.value.IntegerValue
352

@<SCITEGIC>MOL_PROPERTY
Conf_Id
SciTegic.value.IntegerValue
36

@<SCITEGIC>MOL_PROPERTY
Delta U+W
SciTegic.value.DoubleValue
0.272

@<SCITEGIC>MOL_PROPERTY
U+W
SciTegic.value.DoubleValue
-58.060

@<SCITEGIC>MOL_PROPERTY
Grad RMS
SciTegic.value.DoubleValue
0.000000

@<SCITEGIC>MOL_PROPERTY
U
SciTegic.value.DoubleValue
9.781

@<SCITEGIC>MOL_PROPERTY
W
SciTegic.value.DoubleValue
-67.841

@<SCITEGIC>MOL_PROPERTY
W(PB)
SciTegic.value.DoubleValue
-69.537

@<SCITEGIC>MOL_PROPERTY
W(SA)
SciTegic.value.DoubleValue
1.696

@<SCITEGIC>MOL_PROPERTY
Valence
SciTegic.value.DoubleValue
6.123

@<SCITEGIC>MOL_PROPERTY
Coulomb
SciTegic.value.DoubleValue
3.449

@<SCITEGIC>MOL_PROPERTY
VdW
SciTegic.value.DoubleValue
0.209

@<SCITEGIC>MOL_PROPERTY
VdW6
SciTegic.value.DoubleValue
-3.762

@<SCITEGIC>MOL_PROPERTY
VdW12
SciTegic.value.DoubleValue
3.972

@<SCITEGIC>MOL_PROPERTY
Bond
SciTegic.value.DoubleValue
0.078

@<SCITEGIC>MOL_PROPERTY
Angle
SciTegic.value.DoubleValue
2.428

@<SCITEGIC>MOL_PROPERTY
Pdih
SciTegic.value.DoubleValue
3.616

@<SCITEGIC>MOL_PROPERTY
Idih
SciTegic.value.DoubleValue
0.002

@<SCITEGIC>MOL_PROPERTY
Tether
SciTegic.value.DoubleValue
0.000

@<TRIPOS>MOLECULE
guest-6_confgen4.mol2 : confsearch ligand conformer 353
          13          12           1
SMALL
USER_CHARGES
 
@<TRIPOS>ATOM
       1    C1      18.215927   17.957451   21.379339 C.2        1 MOL1         0.6021
       2    O1      18.634350   17.124403   20.599415 O.co2      1 MOL1        -0.6904
       3    O2      17.048658   18.029787   21.706516 O.co2      1 MOL1        -0.6904
       4    C2      19.178555   18.975488   21.993857 C.3        1 MOL1        -0.2102
       5    H1      19.111449   18.873660   23.083566 H          1 MOL1         0.0687
       6    H2      18.803595   19.974622   21.741917 H          1 MOL1         0.0687
       7    C3      20.658152   18.844709   21.547040 C.3        1 MOL1        -0.1974
       8    H3      21.031079   17.841811   21.797791 H          1 MOL1         0.0689
       9    H4      20.722841   18.944052   20.454474 H          1 MOL1         0.0689
      10    C4      21.551167   19.909287   22.215645 C.3        1 MOL1        -0.2987
      11    H5      21.528065   19.811147   23.308969 H          1 MOL1         0.0700
      12    H6      22.593246   19.800987   21.887621 H          1 MOL1         0.0700
      13    H7      21.217308   20.922240   21.954900 H          1 MOL1         0.0700
@<TRIPOS>BOND
    1     1     2    1
    2     1     3    2
    3     1     4    1
    4     4     5    1
    5     4     6    1
    6     4     7    1
    7     7     8    1
    8     7     9    1
    9     7    10    1
   10    10    11    1
   11    10    12    1
   12    10    13    1
@<TRIPOS>SUBSTRUCTURE
       1 MOL1            1 RESIDUE      1      MOL     
@<SCITEGIC>MOL_PROPERTY
VConf Rank
SciTegic.value.IntegerValue
353

@<SCITEGIC>MOL_PROPERTY
Conf_Id
SciTegic.value.IntegerValue
0

@<SCITEGIC>MOL_PROPERTY
Delta U+W
SciTegic.value.DoubleValue
0.000

@<SCITEGIC>MOL_PROPERTY
U+W
SciTegic.value.DoubleValue
-58.332

@<SCITEGIC>MOL_PROPERTY
Grad RMS
SciTegic.value.DoubleValue
0.000000

@<SCITEGIC>MOL_PROPERTY
U
SciTegic.value.DoubleValue
8.390

@<SCITEGIC>MOL_PROPERTY
W
SciTegic.value.DoubleValue
-66.722

@<SCITEGIC>MOL_PROPERTY
W(PB)
SciTegic.value.DoubleValue
-68.455

@<SCITEGIC>MOL_PROPERTY
W(SA)
SciTegic.value.DoubleValue
1.733

@<SCITEGIC>MOL_PROPERTY
Valence
SciTegic.value.DoubleValue
6.333

@<SCITEGIC>MOL_PROPERTY
Coulomb
SciTegic.value.DoubleValue
1.215

@<SCITEGIC>MOL_PROPERTY
VdW
SciTegic.value.DoubleValue
0.842

@<SCITEGIC>MOL_PROPERTY
VdW6
SciTegic.value.DoubleValue
-3.344

@<SCITEGIC>MOL_PROPERTY
VdW12
SciTegic.value.DoubleValue
4.186

@<SCITEGIC>MOL_PROPERTY
Bond
SciTegic.value.DoubleValue
0.091

@<SCITEGIC>MOL_PROPERTY
Angle
SciTegic.value.DoubleValue
2.713

@<SCITEGIC>MOL_PROPERTY
Pdih
SciTegic.value.DoubleValue
3.529

@<SCITEGIC>MOL_PROPERTY
Idih
SciTegic.value.DoubleValue
0.000

@<SCITEGIC>MOL_PROPERTY
Tether
SciTegic.value.DoubleValue
0.000

@<TRIPOS>MOLECULE
guest-6_confgen4.mol2 : confsearch ligand conformer 354
          13          12           1
SMALL
USER_CHARGES
 
@<TRIPOS>ATOM
       1    C1      21.656522   17.790711   21.483483 C.2        1 MOL1         0.6021
       2    O1      21.619602   16.693615   22.003462 O.co2      1 MOL1        -0.6904
       3    O2      22.688121   18.351731   21.172966 O.co2      1 MOL1        -0.6904
       4    C2      20.337512   18.510596   21.223717 C.3        1 MOL1        -0.2102
       5    H1      19.573235   17.754735   21.005603 H          1 MOL1         0.0687
       6    H2      20.454397   19.122101   20.320711 H          1 MOL1         0.0687
       7    C3      19.887933   19.395306   22.411579 C.3        1 MOL1        -0.1974
       8    H3      19.783782   18.774239   23.312273 H          1 MOL1         0.0689
       9    H4      20.665042   20.141930   22.627163 H          1 MOL1         0.0689
      10    C4      18.552837   20.108446   22.117911 C.3        1 MOL1        -0.2987
      11    H5      18.250814   20.730289   22.970761 H          1 MOL1         0.0700
      12    H6      18.640446   20.759311   21.237993 H          1 MOL1         0.0700
      13    H7      17.752432   19.381126   21.928401 H          1 MOL1         0.0700
@<TRIPOS>BOND
    1     1     2    1
    2     1     3    2
    3     1     4    1
    4     4     5    1
    5     4     6    1
    6     4     7    1
    7     7     8    1
    8     7     9    1
    9     7    10    1
   10    10    11    1
   11    10    12    1
   12    10    13    1
@<TRIPOS>SUBSTRUCTURE
       1 MOL1            1 RESIDUE      1      MOL     
@<SCITEGIC>MOL_PROPERTY
VConf Rank
SciTegic.value.IntegerValue
354

@<SCITEGIC>MOL_PROPERTY
Conf_Id
SciTegic.value.IntegerValue
1

@<SCITEGIC>MOL_PROPERTY
Delta U+W
SciTegic.value.DoubleValue
-1.339

@<SCITEGIC>MOL_PROPERTY
U+W
SciTegic.value.DoubleValue
-59.672

@<SCITEGIC>MOL_PROPERTY
Grad RMS
SciTegic.value.DoubleValue
0.000000

@<SCITEGIC>MOL_PROPERTY
U
SciTegic.value.DoubleValue
7.389

@<SCITEGIC>MOL_PROPERTY
W
SciTegic.value.DoubleValue
-67.061

@<SCITEGIC>MOL_PROPERTY
W(PB)
SciTegic.value.DoubleValue
-68.767

@<SCITEGIC>MOL_PROPERTY
W(SA)
SciTegic.value.DoubleValue
1.707

@<SCITEGIC>MOL_PROPERTY
Valence
SciTegic.value.DoubleValue
5.822

@<SCITEGIC>MOL_PROPERTY
Coulomb
SciTegic.value.DoubleValue
1.255

@<SCITEGIC>MOL_PROPERTY
VdW
SciTegic.value.DoubleValue
0.312

@<SCITEGIC>MOL_PROPERTY
VdW6
SciTegic.value.DoubleValue
-3.061

@<SCITEGIC>MOL_PROPERTY
VdW12
SciTegic.value.DoubleValue
3.372

@<SCITEGIC>MOL_PROPERTY
Bond
SciTegic.value.DoubleValue
0.059

@<SCITEGIC>MOL_PROPERTY
Angle
SciTegic.value.DoubleValue
2.241

@<SCITEGIC>MOL_PROPERTY
Pdih
SciTegic.value.DoubleValue
3.522

@<SCITEGIC>MOL_PROPERTY
Idih
SciTegic.value.DoubleValue
0.000

@<SCITEGIC>MOL_PROPERTY
Tether
SciTegic.value.DoubleValue
0.000

@<TRIPOS>MOLECULE
guest-6_confgen4.mol2 : confsearch ligand conformer 355
          13          12           1
SMALL
USER_CHARGES
 
@<TRIPOS>ATOM
       1    C1      21.731153   19.010896   21.203295 C.2        1 MOL1         0.6021
       2    O1      22.335697   17.957723   21.165191 O.co2      1 MOL1        -0.6904
       3    O2      21.709655   19.804250   20.283495 O.co2      1 MOL1        -0.6904
       4    C2      20.990048   19.369909   22.488830 C.3        1 MOL1        -0.2102
       5    H1      20.780361   20.446618   22.484600 H          1 MOL1         0.0687
       6    H2      21.675570   19.184154   23.324258 H          1 MOL1         0.0687
       7    C3      19.679611   18.571663   22.709960 C.3        1 MOL1        -0.1974
       8    H3      19.894211   17.494460   22.671176 H          1 MOL1         0.0689
       9    H4      19.296424   18.781024   23.718032 H          1 MOL1         0.0689
      10    C4      18.591879   18.923845   21.674231 C.3        1 MOL1        -0.2987
      11    H5      18.924953   18.685220   20.655434 H          1 MOL1         0.0700
      12    H6      17.672548   18.357017   21.870785 H          1 MOL1         0.0700
      13    H7      18.346075   19.993230   21.711489 H          1 MOL1         0.0700
@<TRIPOS>BOND
    1     1     2    1
    2     1     3    2
    3     1     4    1
    4     4     5    1
    5     4     6    1
    6     4     7    1
    7     7     8    1
    8     7     9    1
    9     7    10    1
   10    10    11    1
   11    10    12    1
   12    10    13    1
@<TRIPOS>SUBSTRUCTURE
       1 MOL1            1 RESIDUE      1      MOL     
@<SCITEGIC>MOL_PROPERTY
VConf Rank
SciTegic.value.IntegerValue
355

@<SCITEGIC>MOL_PROPERTY
Conf_Id
SciTegic.value.IntegerValue
4

@<SCITEGIC>MOL_PROPERTY
Delta U+W
SciTegic.value.DoubleValue
0.281

@<SCITEGIC>MOL_PROPERTY
U+W
SciTegic.value.DoubleValue
-58.051

@<SCITEGIC>MOL_PROPERTY
Grad RMS
SciTegic.value.DoubleValue
0.000000

@<SCITEGIC>MOL_PROPERTY
U
SciTegic.value.DoubleValue
9.781

@<SCITEGIC>MOL_PROPERTY
W
SciTegic.value.DoubleValue
-67.832

@<SCITEGIC>MOL_PROPERTY
W(PB)
SciTegic.value.DoubleValue
-69.535

@<SCITEGIC>MOL_PROPERTY
W(SA)
SciTegic.value.DoubleValue
1.703

@<SCITEGIC>MOL_PROPERTY
Valence
SciTegic.value.DoubleValue
6.123

@<SCITEGIC>MOL_PROPERTY
Coulomb
SciTegic.value.DoubleValue
3.449

@<SCITEGIC>MOL_PROPERTY
VdW
SciTegic.value.DoubleValue
0.209

@<SCITEGIC>MOL_PROPERTY
VdW6
SciTegic.value.DoubleValue
-3.762

@<SCITEGIC>MOL_PROPERTY
VdW12
SciTegic.value.DoubleValue
3.972

@<SCITEGIC>MOL_PROPERTY
Bond
SciTegic.value.DoubleValue
0.078

@<SCITEGIC>MOL_PROPERTY
Angle
SciTegic.value.DoubleValue
2.428

@<SCITEGIC>MOL_PROPERTY
Pdih
SciTegic.value.DoubleValue
3.616

@<SCITEGIC>MOL_PROPERTY
Idih
SciTegic.value.DoubleValue
0.002

@<SCITEGIC>MOL_PROPERTY
Tether
SciTegic.value.DoubleValue
0.000

@<TRIPOS>MOLECULE
guest-6_confgen4.mol2 : confsearch ligand conformer 356
          13          12           1
SMALL
USER_CHARGES
 
@<TRIPOS>ATOM
       1    C1      19.933498   17.192363   22.153077 C.2        1 MOL1         0.6021
       2    O1      19.505410   16.922816   23.257609 O.co2      1 MOL1        -0.6904
       3    O2      19.605422   16.599358   21.144707 O.co2      1 MOL1        -0.6904
       4    C2      20.964909   18.310918   22.027572 C.3        1 MOL1        -0.2102
       5    H1      21.787513   17.929532   21.410925 H          1 MOL1         0.0687
       6    H2      21.382681   18.516785   23.020734 H          1 MOL1         0.0687
       7    C3      20.412268   19.616223   21.399797 C.3        1 MOL1        -0.1974
       8    H3      21.246414   20.305347   21.209586 H          1 MOL1         0.0689
       9    H4      19.959298   19.391826   20.423894 H          1 MOL1         0.0689
      10    C4      19.377800   20.315245   22.305982 C.3        1 MOL1        -0.2987
      11    H5      19.816894   20.568670   23.279822 H          1 MOL1         0.0700
      12    H6      19.022010   21.244236   21.841778 H          1 MOL1         0.0700
      13    H7      18.506894   19.669854   22.481534 H          1 MOL1         0.0700
@<TRIPOS>BOND
    1     1     2    1
    2     1     3    2
    3     1     4    1
    4     4     5    1
    5     4     6    1
    6     4     7    1
    7     7     8    1
    8     7     9    1
    9     7    10    1
   10    10    11    1
   11    10    12    1
   12    10    13    1
@<TRIPOS>SUBSTRUCTURE
       1 MOL1            1 RESIDUE      1      MOL     
@<SCITEGIC>MOL_PROPERTY
VConf Rank
SciTegic.value.IntegerValue
356

@<SCITEGIC>MOL_PROPERTY
Conf_Id
SciTegic.value.IntegerValue
36

@<SCITEGIC>MOL_PROPERTY
Delta U+W
SciTegic.value.DoubleValue
0.272

@<SCITEGIC>MOL_PROPERTY
U+W
SciTegic.value.DoubleValue
-58.060

@<SCITEGIC>MOL_PROPERTY
Grad RMS
SciTegic.value.DoubleValue
0.000000

@<SCITEGIC>MOL_PROPERTY
U
SciTegic.value.DoubleValue
9.781

@<SCITEGIC>MOL_PROPERTY
W
SciTegic.value.DoubleValue
-67.841

@<SCITEGIC>MOL_PROPERTY
W(PB)
SciTegic.value.DoubleValue
-69.537

@<SCITEGIC>MOL_PROPERTY
W(SA)
SciTegic.value.DoubleValue
1.696

@<SCITEGIC>MOL_PROPERTY
Valence
SciTegic.value.DoubleValue
6.123

@<SCITEGIC>MOL_PROPERTY
Coulomb
SciTegic.value.DoubleValue
3.449

@<SCITEGIC>MOL_PROPERTY
VdW
SciTegic.value.DoubleValue
0.209

@<SCITEGIC>MOL_PROPERTY
VdW6
SciTegic.value.DoubleValue
-3.762

@<SCITEGIC>MOL_PROPERTY
VdW12
SciTegic.value.DoubleValue
3.972

@<SCITEGIC>MOL_PROPERTY
Bond
SciTegic.value.DoubleValue
0.078

@<SCITEGIC>MOL_PROPERTY
Angle
SciTegic.value.DoubleValue
2.428

@<SCITEGIC>MOL_PROPERTY
Pdih
SciTegic.value.DoubleValue
3.616

@<SCITEGIC>MOL_PROPERTY
Idih
SciTegic.value.DoubleValue
0.002

@<SCITEGIC>MOL_PROPERTY
Tether
SciTegic.value.DoubleValue
0.000

@<TRIPOS>MOLECULE
guest-6_confgen4.mol2 : confsearch ligand conformer 357
          13          12           1
SMALL
USER_CHARGES
 
@<TRIPOS>ATOM
       1    C1      19.016143   20.848630   22.167085 C.2        1 MOL1         0.6021
       2    O1      17.877325   20.448963   22.310922 O.co2      1 MOL1        -0.6904
       3    O2      19.318495   22.022838   22.235019 O.co2      1 MOL1        -0.6904
       4    C2      20.142334   19.851896   21.886198 C.3        1 MOL1        -0.2102
       5    H1      20.894527   19.976689   22.674215 H          1 MOL1         0.0687
       6    H2      20.614997   20.148884   20.942416 H          1 MOL1         0.0687
       7    C3      19.709173   18.364532   21.808230 C.3        1 MOL1        -0.1974
       8    H3      19.233149   18.069758   22.753885 H          1 MOL1         0.0689
       9    H4      18.953212   18.242175   21.020001 H          1 MOL1         0.0689
      10    C4      20.907236   17.436708   21.522533 C.3        1 MOL1        -0.2987
      11    H5      21.664249   17.517569   22.313682 H          1 MOL1         0.0700
      12    H6      20.581461   16.389584   21.470970 H          1 MOL1         0.0700
      13    H7      21.382091   17.691417   20.565893 H          1 MOL1         0.0700
@<TRIPOS>BOND
    1     1     2    1
    2     1     3    2
    3     1     4    1
    4     4     5    1
    5     4     6    1
    6     4     7    1
    7     7     8    1
    8     7     9    1
    9     7    10    1
   10    10    11    1
   11    10    12    1
   12    10    13    1
@<TRIPOS>SUBSTRUCTURE
       1 MOL1            1 RESIDUE      1      MOL     
@<SCITEGIC>MOL_PROPERTY
VConf Rank
SciTegic.value.IntegerValue
357

@<SCITEGIC>MOL_PROPERTY
Conf_Id
SciTegic.value.IntegerValue
0

@<SCITEGIC>MOL_PROPERTY
Delta U+W
SciTegic.value.DoubleValue
0.000

@<SCITEGIC>MOL_PROPERTY
U+W
SciTegic.value.DoubleValue
-58.332

@<SCITEGIC>MOL_PROPERTY
Grad RMS
SciTegic.value.DoubleValue
0.000000

@<SCITEGIC>MOL_PROPERTY
U
SciTegic.value.DoubleValue
8.390

@<SCITEGIC>MOL_PROPERTY
W
SciTegic.value.DoubleValue
-66.722

@<SCITEGIC>MOL_PROPERTY
W(PB)
SciTegic.value.DoubleValue
-68.455

@<SCITEGIC>MOL_PROPERTY
W(SA)
SciTegic.value.DoubleValue
1.733

@<SCITEGIC>MOL_PROPERTY
Valence
SciTegic.value.DoubleValue
6.333

@<SCITEGIC>MOL_PROPERTY
Coulomb
SciTegic.value.DoubleValue
1.215

@<SCITEGIC>MOL_PROPERTY
VdW
SciTegic.value.DoubleValue
0.842

@<SCITEGIC>MOL_PROPERTY
VdW6
SciTegic.value.DoubleValue
-3.344

@<SCITEGIC>MOL_PROPERTY
VdW12
SciTegic.value.DoubleValue
4.186

@<SCITEGIC>MOL_PROPERTY
Bond
SciTegic.value.DoubleValue
0.091

@<SCITEGIC>MOL_PROPERTY
Angle
SciTegic.value.DoubleValue
2.713

@<SCITEGIC>MOL_PROPERTY
Pdih
SciTegic.value.DoubleValue
3.529

@<SCITEGIC>MOL_PROPERTY
Idih
SciTegic.value.DoubleValue
0.000

@<SCITEGIC>MOL_PROPERTY
Tether
SciTegic.value.DoubleValue
0.000

@<TRIPOS>MOLECULE
guest-6_confgen4.mol2 : confsearch ligand conformer 358
          13          12           1
SMALL
USER_CHARGES
 
@<TRIPOS>ATOM
       1    C1      21.678145   17.847166   21.399889 C.2        1 MOL1         0.6021
       2    O1      22.760120   18.360884   21.601844 O.co2      1 MOL1        -0.6904
       3    O2      21.503012   16.938996   20.612541 O.co2      1 MOL1        -0.6904
       4    C2      20.471269   18.383902   22.162035 C.3        1 MOL1        -0.2102
       5    H1      20.813354   18.724622   23.146873 H          1 MOL1         0.0687
       6    H2      19.776678   17.552039   22.331051 H          1 MOL1         0.0687
       7    C3      19.751794   19.536176   21.420100 C.3        1 MOL1        -0.1974
       8    H3      20.459378   20.359211   21.247592 H          1 MOL1         0.0689
       9    H4      19.422401   19.186372   20.431687 H          1 MOL1         0.0689
      10    C4      18.537736   20.056126   22.215717 C.3        1 MOL1        -0.2987
      11    H5      18.041132   20.871870   21.674230 H          1 MOL1         0.0700
      12    H6      17.801356   19.257453   22.375164 H          1 MOL1         0.0700
      13    H7      18.846300   20.439319   23.197301 H          1 MOL1         0.0700
@<TRIPOS>BOND
    1     1     2    1
    2     1     3    2
    3     1     4    1
    4     4     5    1
    5     4     6    1
    6     4     7    1
    7     7     8    1
    8     7     9    1
    9     7    10    1
   10    10    11    1
   11    10    12    1
   12    10    13    1
@<TRIPOS>SUBSTRUCTURE
       1 MOL1            1 RESIDUE      1      MOL     
@<SCITEGIC>MOL_PROPERTY
VConf Rank
SciTegic.value.IntegerValue
358

@<SCITEGIC>MOL_PROPERTY
Conf_Id
SciTegic.value.IntegerValue
1

@<SCITEGIC>MOL_PROPERTY
Delta U+W
SciTegic.value.DoubleValue
-1.339

@<SCITEGIC>MOL_PROPERTY
U+W
SciTegic.value.DoubleValue
-59.672

@<SCITEGIC>MOL_PROPERTY
Grad RMS
SciTegic.value.DoubleValue
0.000000

@<SCITEGIC>MOL_PROPERTY
U
SciTegic.value.DoubleValue
7.389

@<SCITEGIC>MOL_PROPERTY
W
SciTegic.value.DoubleValue
-67.061

@<SCITEGIC>MOL_PROPERTY
W(PB)
SciTegic.value.DoubleValue
-68.767

@<SCITEGIC>MOL_PROPERTY
W(SA)
SciTegic.value.DoubleValue
1.707

@<SCITEGIC>MOL_PROPERTY
Valence
SciTegic.value.DoubleValue
5.822

@<SCITEGIC>MOL_PROPERTY
Coulomb
SciTegic.value.DoubleValue
1.255

@<SCITEGIC>MOL_PROPERTY
VdW
SciTegic.value.DoubleValue
0.312

@<SCITEGIC>MOL_PROPERTY
VdW6
SciTegic.value.DoubleValue
-3.061

@<SCITEGIC>MOL_PROPERTY
VdW12
SciTegic.value.DoubleValue
3.372

@<SCITEGIC>MOL_PROPERTY
Bond
SciTegic.value.DoubleValue
0.059

@<SCITEGIC>MOL_PROPERTY
Angle
SciTegic.value.DoubleValue
2.241

@<SCITEGIC>MOL_PROPERTY
Pdih
SciTegic.value.DoubleValue
3.522

@<SCITEGIC>MOL_PROPERTY
Idih
SciTegic.value.DoubleValue
0.000

@<SCITEGIC>MOL_PROPERTY
Tether
SciTegic.value.DoubleValue
0.000

@<TRIPOS>MOLECULE
guest-6_confgen4.mol2 : confsearch ligand conformer 359
          13          12           1
SMALL
USER_CHARGES
 
@<TRIPOS>ATOM
       1    C1      21.062280   19.362651   23.472354 C.2        1 MOL1         0.6021
       2    O1      21.194928   18.461986   24.276907 O.co2      1 MOL1        -0.6904
       3    O2      21.946360   20.148439   23.195148 O.co2      1 MOL1        -0.6904
       4    C2      19.701255   19.535664   22.802723 C.3        1 MOL1        -0.2102
       5    H1      19.646474   20.543560   22.373266 H          1 MOL1         0.0687
       6    H2      18.940372   19.485502   23.590711 H          1 MOL1         0.0687
       7    C3      19.389052   18.474736   21.716306 C.3        1 MOL1        -0.1974
       8    H3      19.487106   17.468101   22.146415 H          1 MOL1         0.0689
       9    H4      18.342788   18.581767   21.398894 H          1 MOL1         0.0689
      10    C4      20.305834   18.605718   20.482498 C.3        1 MOL1        -0.2987
      11    H5      21.359198   18.459663   20.756212 H          1 MOL1         0.0700
      12    H6      20.045846   17.854085   19.725828 H          1 MOL1         0.0700
      13    H7      20.206692   19.598137   20.023512 H          1 MOL1         0.0700
@<TRIPOS>BOND
    1     1     2    1
    2     1     3    2
    3     1     4    1
    4     4     5    1
    5     4     6    1
    6     4     7    1
    7     7     8    1
    8     7     9    1
    9     7    10    1
   10    10    11    1
   11    10    12    1
   12    10    13    1
@<TRIPOS>SUBSTRUCTURE
       1 MOL1            1 RESIDUE      1      MOL     
@<SCITEGIC>MOL_PROPERTY
VConf Rank
SciTegic.value.IntegerValue
359

@<SCITEGIC>MOL_PROPERTY
Conf_Id
SciTegic.value.IntegerValue
4

@<SCITEGIC>MOL_PROPERTY
Delta U+W
SciTegic.value.DoubleValue
0.281

@<SCITEGIC>MOL_PROPERTY
U+W
SciTegic.value.DoubleValue
-58.051

@<SCITEGIC>MOL_PROPERTY
Grad RMS
SciTegic.value.DoubleValue
0.000000

@<SCITEGIC>MOL_PROPERTY
U
SciTegic.value.DoubleValue
9.781

@<SCITEGIC>MOL_PROPERTY
W
SciTegic.value.DoubleValue
-67.832

@<SCITEGIC>MOL_PROPERTY
W(PB)
SciTegic.value.DoubleValue
-69.535

@<SCITEGIC>MOL_PROPERTY
W(SA)
SciTegic.value.DoubleValue
1.703

@<SCITEGIC>MOL_PROPERTY
Valence
SciTegic.value.DoubleValue
6.123

@<SCITEGIC>MOL_PROPERTY
Coulomb
SciTegic.value.DoubleValue
3.449

@<SCITEGIC>MOL_PROPERTY
VdW
SciTegic.value.DoubleValue
0.209

@<SCITEGIC>MOL_PROPERTY
VdW6
SciTegic.value.DoubleValue
-3.762

@<SCITEGIC>MOL_PROPERTY
VdW12
SciTegic.value.DoubleValue
3.972

@<SCITEGIC>MOL_PROPERTY
Bond
SciTegic.value.DoubleValue
0.078

@<SCITEGIC>MOL_PROPERTY
Angle
SciTegic.value.DoubleValue
2.428

@<SCITEGIC>MOL_PROPERTY
Pdih
SciTegic.value.DoubleValue
3.616

@<SCITEGIC>MOL_PROPERTY
Idih
SciTegic.value.DoubleValue
0.002

@<SCITEGIC>MOL_PROPERTY
Tether
SciTegic.value.DoubleValue
0.000

@<TRIPOS>MOLECULE
guest-6_confgen4.mol2 : confsearch ligand conformer 360
          13          12           1
SMALL
USER_CHARGES
 
@<TRIPOS>ATOM
       1    C1      20.054734   17.243217   21.514763 C.2        1 MOL1         0.6021
       2    O1      19.444388   17.133985   20.470038 O.co2      1 MOL1        -0.6904
       3    O2      21.031647   16.576399   21.792417 O.co2      1 MOL1        -0.6904
       4    C2      19.548558   18.244970   22.549656 C.3        1 MOL1        -0.2102
       5    H1      19.512359   17.727181   23.515560 H          1 MOL1         0.0687
       6    H2      18.516530   18.518817   22.298236 H          1 MOL1         0.0687
       7    C3      20.422297   19.518907   22.680046 C.3        1 MOL1        -0.1974
       8    H3      20.076139   20.106109   23.541580 H          1 MOL1         0.0689
       9    H4      21.461997   19.231725   22.890927 H          1 MOL1         0.0689
      10    C4      20.371745   20.401424   21.415713 C.3        1 MOL1        -0.2987
      11    H5      19.343115   20.718364   21.199238 H          1 MOL1         0.0700
      12    H6      20.984043   21.302853   21.548425 H          1 MOL1         0.0700
      13    H7      20.753459   19.859223   20.540420 H          1 MOL1         0.0700
@<TRIPOS>BOND
    1     1     2    1
    2     1     3    2
    3     1     4    1
    4     4     5    1
    5     4     6    1
    6     4     7    1
    7     7     8    1
    8     7     9    1
    9     7    10    1
   10    10    11    1
   11    10    12    1
   12    10    13    1
@<TRIPOS>SUBSTRUCTURE
       1 MOL1            1 RESIDUE      1      MOL     
@<SCITEGIC>MOL_PROPERTY
VConf Rank
SciTegic.value.IntegerValue
360

@<SCITEGIC>MOL_PROPERTY
Conf_Id
SciTegic.value.IntegerValue
36

@<SCITEGIC>MOL_PROPERTY
Delta U+W
SciTegic.value.DoubleValue
0.272

@<SCITEGIC>MOL_PROPERTY
U+W
SciTegic.value.DoubleValue
-58.060

@<SCITEGIC>MOL_PROPERTY
Grad RMS
SciTegic.value.DoubleValue
0.000000

@<SCITEGIC>MOL_PROPERTY
U
SciTegic.value.DoubleValue
9.781

@<SCITEGIC>MOL_PROPERTY
W
SciTegic.value.DoubleValue
-67.841

@<SCITEGIC>MOL_PROPERTY
W(PB)
SciTegic.value.DoubleValue
-69.537

@<SCITEGIC>MOL_PROPERTY
W(SA)
SciTegic.value.DoubleValue
1.696

@<SCITEGIC>MOL_PROPERTY
Valence
SciTegic.value.DoubleValue
6.123

@<SCITEGIC>MOL_PROPERTY
Coulomb
SciTegic.value.DoubleValue
3.449

@<SCITEGIC>MOL_PROPERTY
VdW
SciTegic.value.DoubleValue
0.209

@<SCITEGIC>MOL_PROPERTY
VdW6
SciTegic.value.DoubleValue
-3.762

@<SCITEGIC>MOL_PROPERTY
VdW12
SciTegic.value.DoubleValue
3.972

@<SCITEGIC>MOL_PROPERTY
Bond
SciTegic.value.DoubleValue
0.078

@<SCITEGIC>MOL_PROPERTY
Angle
SciTegic.value.DoubleValue
2.428

@<SCITEGIC>MOL_PROPERTY
Pdih
SciTegic.value.DoubleValue
3.616

@<SCITEGIC>MOL_PROPERTY
Idih
SciTegic.value.DoubleValue
0.002

@<SCITEGIC>MOL_PROPERTY
Tether
SciTegic.value.DoubleValue
0.000

@<TRIPOS>MOLECULE
guest-6_confgen4.mol2 : confsearch ligand conformer 361
          13          12           1
SMALL
USER_CHARGES
 
@<TRIPOS>ATOM
       1    C1      18.886200   19.095877   20.018890 C.2        1 MOL1         0.6021
       2    O1      18.649965   17.915386   19.851671 O.co2      1 MOL1        -0.6904
       3    O2      18.498958   19.961737   19.260519 O.co2      1 MOL1        -0.6904
       4    C2      19.706534   19.543320   21.230307 C.3        1 MOL1        -0.2102
       5    H1      19.095086   20.257648   21.794402 H          1 MOL1         0.0687
       6    H2      20.575708   20.094488   20.852037 H          1 MOL1         0.0687
       7    C3      20.179229   18.403639   22.170330 C.3        1 MOL1        -0.1974
       8    H3      19.306905   17.850750   22.545987 H          1 MOL1         0.0689
       9    H4      20.789291   17.687340   21.602443 H          1 MOL1         0.0689
      10    C4      20.996135   18.948179   23.359437 C.3        1 MOL1        -0.2987
      11    H5      20.397285   19.643967   23.961750 H          1 MOL1         0.0700
      12    H6      21.321547   18.128021   24.012664 H          1 MOL1         0.0700
      13    H7      21.891548   19.479292   23.010613 H          1 MOL1         0.0700
@<TRIPOS>BOND
    1     1     2    1
    2     1     3    2
    3     1     4    1
    4     4     5    1
    5     4     6    1
    6     4     7    1
    7     7     8    1
    8     7     9    1
    9     7    10    1
   10    10    11    1
   11    10    12    1
   12    10    13    1
@<TRIPOS>SUBSTRUCTURE
       1 MOL1            1 RESIDUE      1      MOL     
@<SCITEGIC>MOL_PROPERTY
VConf Rank
SciTegic.value.IntegerValue
361

@<SCITEGIC>MOL_PROPERTY
Conf_Id
SciTegic.value.IntegerValue
0

@<SCITEGIC>MOL_PROPERTY
Delta U+W
SciTegic.value.DoubleValue
0.000

@<SCITEGIC>MOL_PROPERTY
U+W
SciTegic.value.DoubleValue
-58.332

@<SCITEGIC>MOL_PROPERTY
Grad RMS
SciTegic.value.DoubleValue
0.000000

@<SCITEGIC>MOL_PROPERTY
U
SciTegic.value.DoubleValue
8.390

@<SCITEGIC>MOL_PROPERTY
W
SciTegic.value.DoubleValue
-66.722

@<SCITEGIC>MOL_PROPERTY
W(PB)
SciTegic.value.DoubleValue
-68.455

@<SCITEGIC>MOL_PROPERTY
W(SA)
SciTegic.value.DoubleValue
1.733

@<SCITEGIC>MOL_PROPERTY
Valence
SciTegic.value.DoubleValue
6.333

@<SCITEGIC>MOL_PROPERTY
Coulomb
SciTegic.value.DoubleValue
1.215

@<SCITEGIC>MOL_PROPERTY
VdW
SciTegic.value.DoubleValue
0.842

@<SCITEGIC>MOL_PROPERTY
VdW6
SciTegic.value.DoubleValue
-3.344

@<SCITEGIC>MOL_PROPERTY
VdW12
SciTegic.value.DoubleValue
4.186

@<SCITEGIC>MOL_PROPERTY
Bond
SciTegic.value.DoubleValue
0.091

@<SCITEGIC>MOL_PROPERTY
Angle
SciTegic.value.DoubleValue
2.713

@<SCITEGIC>MOL_PROPERTY
Pdih
SciTegic.value.DoubleValue
3.529

@<SCITEGIC>MOL_PROPERTY
Idih
SciTegic.value.DoubleValue
0.000

@<SCITEGIC>MOL_PROPERTY
Tether
SciTegic.value.DoubleValue
0.000

@<TRIPOS>MOLECULE
guest-6_confgen4.mol2 : confsearch ligand conformer 362
          13          12           1
SMALL
USER_CHARGES
 
@<TRIPOS>ATOM
       1    C1      18.727363   17.777867   22.961410 C.2        1 MOL1         0.6021
       2    O1      18.857467   17.834088   24.167757 O.co2      1 MOL1        -0.6904
       3    O2      18.280417   16.810139   22.379085 O.co2      1 MOL1        -0.6904
       4    C2      19.166318   18.979744   22.131765 C.3        1 MOL1        -0.2102
       5    H1      18.992819   19.885806   22.725035 H          1 MOL1         0.0687
       6    H2      18.516932   19.041405   21.249998 H          1 MOL1         0.0687
       7    C3      20.649777   18.904047   21.696486 C.3        1 MOL1        -0.1974
       8    H3      21.289828   18.832646   22.587024 H          1 MOL1         0.0689
       9    H4      20.813817   17.988167   21.111612 H          1 MOL1         0.0689
      10    C4      21.061929   20.132289   20.860517 C.3        1 MOL1        -0.2987
      11    H5      22.115836   20.060573   20.561522 H          1 MOL1         0.0700
      12    H6      20.455237   20.208213   19.948533 H          1 MOL1         0.0700
      13    H7      20.934935   21.059153   21.435279 H          1 MOL1         0.0700
@<TRIPOS>BOND
    1     1     2    1
    2     1     3    2
    3     1     4    1
    4     4     5    1
    5     4     6    1
    6     4     7    1
    7     7     8    1
    8     7     9    1
    9     7    10    1
   10    10    11    1
   11    10    12    1
   12    10    13    1
@<TRIPOS>SUBSTRUCTURE
       1 MOL1            1 RESIDUE      1      MOL     
@<SCITEGIC>MOL_PROPERTY
VConf Rank
SciTegic.value.IntegerValue
362

@<SCITEGIC>MOL_PROPERTY
Conf_Id
SciTegic.value.IntegerValue
1

@<SCITEGIC>MOL_PROPERTY
Delta U+W
SciTegic.value.DoubleValue
-1.339

@<SCITEGIC>MOL_PROPERTY
U+W
SciTegic.value.DoubleValue
-59.672

@<SCITEGIC>MOL_PROPERTY
Grad RMS
SciTegic.value.DoubleValue
0.000000

@<SCITEGIC>MOL_PROPERTY
U
SciTegic.value.DoubleValue
7.389

@<SCITEGIC>MOL_PROPERTY
W
SciTegic.value.DoubleValue
-67.061

@<SCITEGIC>MOL_PROPERTY
W(PB)
SciTegic.value.DoubleValue
-68.767

@<SCITEGIC>MOL_PROPERTY
W(SA)
SciTegic.value.DoubleValue
1.707

@<SCITEGIC>MOL_PROPERTY
Valence
SciTegic.value.DoubleValue
5.822

@<SCITEGIC>MOL_PROPERTY
Coulomb
SciTegic.value.DoubleValue
1.255

@<SCITEGIC>MOL_PROPERTY
VdW
SciTegic.value.DoubleValue
0.312

@<SCITEGIC>MOL_PROPERTY
VdW6
SciTegic.value.DoubleValue
-3.061

@<SCITEGIC>MOL_PROPERTY
VdW12
SciTegic.value.DoubleValue
3.372

@<SCITEGIC>MOL_PROPERTY
Bond
SciTegic.value.DoubleValue
0.059

@<SCITEGIC>MOL_PROPERTY
Angle
SciTegic.value.DoubleValue
2.241

@<SCITEGIC>MOL_PROPERTY
Pdih
SciTegic.value.DoubleValue
3.522

@<SCITEGIC>MOL_PROPERTY
Idih
SciTegic.value.DoubleValue
0.000

@<SCITEGIC>MOL_PROPERTY
Tether
SciTegic.value.DoubleValue
0.000

@<TRIPOS>MOLECULE
guest-6_confgen4.mol2 : confsearch ligand conformer 363
          13          12           1
SMALL
USER_CHARGES
 
@<TRIPOS>ATOM
       1    C1      21.857623   18.620557   21.698470 C.2        1 MOL1         0.6021
       2    O1      22.095280   17.659913   20.993643 O.co2      1 MOL1        -0.6904
       3    O2      22.477843   19.663552   21.640215 O.co2      1 MOL1        -0.6904
       4    C2      20.744181   18.495254   22.735424 C.3        1 MOL1        -0.2102
       5    H1      20.866433   19.291210   23.480271 H          1 MOL1         0.0687
       6    H2      20.892298   17.544357   23.261010 H          1 MOL1         0.0687
       7    C3      19.313848   18.537307   22.139002 C.3        1 MOL1        -0.1974
       8    H3      19.215212   17.763144   21.365138 H          1 MOL1         0.0689
       9    H4      18.588277   18.290886   22.926210 H          1 MOL1         0.0689
      10    C4      18.962665   19.916600   21.543897 C.3        1 MOL1        -0.2987
      11    H5      19.642625   20.176423   20.721720 H          1 MOL1         0.0700
      12    H6      17.938466   19.918029   21.148789 H          1 MOL1         0.0700
      13    H7      19.033431   20.702777   22.306988 H          1 MOL1         0.0700
@<TRIPOS>BOND
    1     1     2    1
    2     1     3    2
    3     1     4    1
    4     4     5    1
    5     4     6    1
    6     4     7    1
    7     7     8    1
    8     7     9    1
    9     7    10    1
   10    10    11    1
   11    10    12    1
   12    10    13    1
@<TRIPOS>SUBSTRUCTURE
       1 MOL1            1 RESIDUE      1      MOL     
@<SCITEGIC>MOL_PROPERTY
VConf Rank
SciTegic.value.IntegerValue
363

@<SCITEGIC>MOL_PROPERTY
Conf_Id
SciTegic.value.IntegerValue
4

@<SCITEGIC>MOL_PROPERTY
Delta U+W
SciTegic.value.DoubleValue
0.281

@<SCITEGIC>MOL_PROPERTY
U+W
SciTegic.value.DoubleValue
-58.051

@<SCITEGIC>MOL_PROPERTY
Grad RMS
SciTegic.value.DoubleValue
0.000000

@<SCITEGIC>MOL_PROPERTY
U
SciTegic.value.DoubleValue
9.781

@<SCITEGIC>MOL_PROPERTY
W
SciTegic.value.DoubleValue
-67.832

@<SCITEGIC>MOL_PROPERTY
W(PB)
SciTegic.value.DoubleValue
-69.535

@<SCITEGIC>MOL_PROPERTY
W(SA)
SciTegic.value.DoubleValue
1.703

@<SCITEGIC>MOL_PROPERTY
Valence
SciTegic.value.DoubleValue
6.123

@<SCITEGIC>MOL_PROPERTY
Coulomb
SciTegic.value.DoubleValue
3.449

@<SCITEGIC>MOL_PROPERTY
VdW
SciTegic.value.DoubleValue
0.209

@<SCITEGIC>MOL_PROPERTY
VdW6
SciTegic.value.DoubleValue
-3.762

@<SCITEGIC>MOL_PROPERTY
VdW12
SciTegic.value.DoubleValue
3.972

@<SCITEGIC>MOL_PROPERTY
Bond
SciTegic.value.DoubleValue
0.078

@<SCITEGIC>MOL_PROPERTY
Angle
SciTegic.value.DoubleValue
2.428

@<SCITEGIC>MOL_PROPERTY
Pdih
SciTegic.value.DoubleValue
3.616

@<SCITEGIC>MOL_PROPERTY
Idih
SciTegic.value.DoubleValue
0.002

@<SCITEGIC>MOL_PROPERTY
Tether
SciTegic.value.DoubleValue
0.000

@<TRIPOS>MOLECULE
guest-6_confgen4.mol2 : confsearch ligand conformer 364
          13          12           1
SMALL
USER_CHARGES
 
@<TRIPOS>ATOM
       1    C1      21.885583   18.682668   21.957601 C.2        1 MOL1         0.6021
       2    O1      22.230106   18.120211   22.977823 O.co2      1 MOL1        -0.6904
       3    O2      22.362919   18.442285   20.866517 O.co2      1 MOL1        -0.6904
       4    C2      20.822709   19.774316   22.054177 C.3        1 MOL1        -0.2102
       5    H1      21.193314   20.641916   21.495332 H          1 MOL1         0.0687
       6    H2      20.734059   20.086789   23.101931 H          1 MOL1         0.0687
       7    C3      19.434955   19.359540   21.501512 C.3        1 MOL1        -0.1974
       8    H3      18.781404   20.242033   21.470730 H          1 MOL1         0.0689
       9    H4      19.541547   19.009295   20.465226 H          1 MOL1         0.0689
      10    C4      18.762840   18.264306   22.355122 C.3        1 MOL1        -0.2987
      11    H5      18.626391   18.602410   23.390718 H          1 MOL1         0.0700
      12    H6      17.775771   18.008316   21.948601 H          1 MOL1         0.0700
      13    H7      19.369413   17.349090   22.371728 H          1 MOL1         0.0700
@<TRIPOS>BOND
    1     1     2    1
    2     1     3    2
    3     1     4    1
    4     4     5    1
    5     4     6    1
    6     4     7    1
    7     7     8    1
    8     7     9    1
    9     7    10    1
   10    10    11    1
   11    10    12    1
   12    10    13    1
@<TRIPOS>SUBSTRUCTURE
       1 MOL1            1 RESIDUE      1      MOL     
@<SCITEGIC>MOL_PROPERTY
VConf Rank
SciTegic.value.IntegerValue
364

@<SCITEGIC>MOL_PROPERTY
Conf_Id
SciTegic.value.IntegerValue
36

@<SCITEGIC>MOL_PROPERTY
Delta U+W
SciTegic.value.DoubleValue
0.272

@<SCITEGIC>MOL_PROPERTY
U+W
SciTegic.value.DoubleValue
-58.060

@<SCITEGIC>MOL_PROPERTY
Grad RMS
SciTegic.value.DoubleValue
0.000000

@<SCITEGIC>MOL_PROPERTY
U
SciTegic.value.DoubleValue
9.781

@<SCITEGIC>MOL_PROPERTY
W
SciTegic.value.DoubleValue
-67.841

@<SCITEGIC>MOL_PROPERTY
W(PB)
SciTegic.value.DoubleValue
-69.537

@<SCITEGIC>MOL_PROPERTY
W(SA)
SciTegic.value.DoubleValue
1.696

@<SCITEGIC>MOL_PROPERTY
Valence
SciTegic.value.DoubleValue
6.123

@<SCITEGIC>MOL_PROPERTY
Coulomb
SciTegic.value.DoubleValue
3.449

@<SCITEGIC>MOL_PROPERTY
VdW
SciTegic.value.DoubleValue
0.209

@<SCITEGIC>MOL_PROPERTY
VdW6
SciTegic.value.DoubleValue
-3.762

@<SCITEGIC>MOL_PROPERTY
VdW12
SciTegic.value.DoubleValue
3.972

@<SCITEGIC>MOL_PROPERTY
Bond
SciTegic.value.DoubleValue
0.078

@<SCITEGIC>MOL_PROPERTY
Angle
SciTegic.value.DoubleValue
2.428

@<SCITEGIC>MOL_PROPERTY
Pdih
SciTegic.value.DoubleValue
3.616

@<SCITEGIC>MOL_PROPERTY
Idih
SciTegic.value.DoubleValue
0.002

@<SCITEGIC>MOL_PROPERTY
Tether
SciTegic.value.DoubleValue
0.000

@<TRIPOS>MOLECULE
guest-6_confgen4.mol2 : confsearch ligand conformer 365
          13          12           1
SMALL
USER_CHARGES
 
@<TRIPOS>ATOM
       1    C1      20.141940   17.124659   22.827676 C.2        1 MOL1         0.6021
       2    O1      19.932407   16.369075   21.898958 O.co2      1 MOL1        -0.6904
       3    O2      20.345127   16.738985   23.961152 O.co2      1 MOL1        -0.6904
       4    C2      20.156519   18.635995   22.590328 C.3        1 MOL1        -0.2102
       5    H1      21.133229   19.010043   22.919667 H          1 MOL1         0.0687
       6    H2      19.403809   19.079109   23.253211 H          1 MOL1         0.0687
       7    C3      19.892341   19.081573   21.128265 C.3        1 MOL1        -0.1974
       8    H3      20.645964   18.634115   20.465251 H          1 MOL1         0.0689
       9    H4      18.914442   18.703201   20.799173 H          1 MOL1         0.0689
      10    C4      19.926110   20.616631   20.985819 C.3        1 MOL1        -0.2987
      11    H5      20.905315   21.017061   21.279650 H          1 MOL1         0.0700
      12    H6      19.737275   20.912503   19.945598 H          1 MOL1         0.0700
      13    H7      19.159915   21.086694   21.616302 H          1 MOL1         0.0700
@<TRIPOS>BOND
    1     1     2    1
    2     1     3    2
    3     1     4    1
    4     4     5    1
    5     4     6    1
    6     4     7    1
    7     7     8    1
    8     7     9    1
    9     7    10    1
   10    10    11    1
   11    10    12    1
   12    10    13    1
@<TRIPOS>SUBSTRUCTURE
       1 MOL1            1 RESIDUE      1      MOL     
@<SCITEGIC>MOL_PROPERTY
VConf Rank
SciTegic.value.IntegerValue
365

@<SCITEGIC>MOL_PROPERTY
Conf_Id
SciTegic.value.IntegerValue
0

@<SCITEGIC>MOL_PROPERTY
Delta U+W
SciTegic.value.DoubleValue
0.000

@<SCITEGIC>MOL_PROPERTY
U+W
SciTegic.value.DoubleValue
-58.332

@<SCITEGIC>MOL_PROPERTY
Grad RMS
SciTegic.value.DoubleValue
0.000000

@<SCITEGIC>MOL_PROPERTY
U
SciTegic.value.DoubleValue
8.390

@<SCITEGIC>MOL_PROPERTY
W
SciTegic.value.DoubleValue
-66.722

@<SCITEGIC>MOL_PROPERTY
W(PB)
SciTegic.value.DoubleValue
-68.455

@<SCITEGIC>MOL_PROPERTY
W(SA)
SciTegic.value.DoubleValue
1.733

@<SCITEGIC>MOL_PROPERTY
Valence
SciTegic.value.DoubleValue
6.333

@<SCITEGIC>MOL_PROPERTY
Coulomb
SciTegic.value.DoubleValue
1.215

@<SCITEGIC>MOL_PROPERTY
VdW
SciTegic.value.DoubleValue
0.842

@<SCITEGIC>MOL_PROPERTY
VdW6
SciTegic.value.DoubleValue
-3.344

@<SCITEGIC>MOL_PROPERTY
VdW12
SciTegic.value.DoubleValue
4.186

@<SCITEGIC>MOL_PROPERTY
Bond
SciTegic.value.DoubleValue
0.091

@<SCITEGIC>MOL_PROPERTY
Angle
SciTegic.value.DoubleValue
2.713

@<SCITEGIC>MOL_PROPERTY
Pdih
SciTegic.value.DoubleValue
3.529

@<SCITEGIC>MOL_PROPERTY
Idih
SciTegic.value.DoubleValue
0.000

@<SCITEGIC>MOL_PROPERTY
Tether
SciTegic.value.DoubleValue
0.000

@<TRIPOS>MOLECULE
guest-6_confgen4.mol2 : confsearch ligand conformer 366
          13          12           1
SMALL
USER_CHARGES
 
@<TRIPOS>ATOM
       1    C1      19.052830   17.261674   22.481743 C.2        1 MOL1         0.6021
       2    O1      18.414767   16.657312   21.643303 O.co2      1 MOL1        -0.6904
       3    O2      18.846002   17.172739   23.675340 O.co2      1 MOL1        -0.6904
       4    C2      20.160881   18.196874   22.009382 C.3        1 MOL1        -0.2102
       5    H1      20.595458   17.776452   21.094282 H          1 MOL1         0.0687
       6    H2      20.951091   18.201485   22.770017 H          1 MOL1         0.0687
       7    C3      19.663827   19.639434   21.748986 C.3        1 MOL1        -0.1974
       8    H3      18.866177   19.621394   20.993174 H          1 MOL1         0.0689
       9    H4      19.222001   20.046543   22.669244 H          1 MOL1         0.0689
      10    C4      20.806424   20.558876   21.273184 C.3        1 MOL1        -0.2987
      11    H5      20.434920   21.576294   21.093996 H          1 MOL1         0.0700
      12    H6      21.603444   20.616726   22.026156 H          1 MOL1         0.0700
      13    H7      21.244853   20.188333   20.337217 H          1 MOL1         0.0700
@<TRIPOS>BOND
    1     1     2    1
    2     1     3    2
    3     1     4    1
    4     4     5    1
    5     4     6    1
    6     4     7    1
    7     7     8    1
    8     7     9    1
    9     7    10    1
   10    10    11    1
   11    10    12    1
   12    10    13    1
@<TRIPOS>SUBSTRUCTURE
       1 MOL1            1 RESIDUE      1      MOL     
@<SCITEGIC>MOL_PROPERTY
VConf Rank
SciTegic.value.IntegerValue
366

@<SCITEGIC>MOL_PROPERTY
Conf_Id
SciTegic.value.IntegerValue
1

@<SCITEGIC>MOL_PROPERTY
Delta U+W
SciTegic.value.DoubleValue
-1.339

@<SCITEGIC>MOL_PROPERTY
U+W
SciTegic.value.DoubleValue
-59.672

@<SCITEGIC>MOL_PROPERTY
Grad RMS
SciTegic.value.DoubleValue
0.000000

@<SCITEGIC>MOL_PROPERTY
U
SciTegic.value.DoubleValue
7.389

@<SCITEGIC>MOL_PROPERTY
W
SciTegic.value.DoubleValue
-67.061

@<SCITEGIC>MOL_PROPERTY
W(PB)
SciTegic.value.DoubleValue
-68.767

@<SCITEGIC>MOL_PROPERTY
W(SA)
SciTegic.value.DoubleValue
1.707

@<SCITEGIC>MOL_PROPERTY
Valence
SciTegic.value.DoubleValue
5.822

@<SCITEGIC>MOL_PROPERTY
Coulomb
SciTegic.value.DoubleValue
1.255

@<SCITEGIC>MOL_PROPERTY
VdW
SciTegic.value.DoubleValue
0.312

@<SCITEGIC>MOL_PROPERTY
VdW6
SciTegic.value.DoubleValue
-3.061

@<SCITEGIC>MOL_PROPERTY
VdW12
SciTegic.value.DoubleValue
3.372

@<SCITEGIC>MOL_PROPERTY
Bond
SciTegic.value.DoubleValue
0.059

@<SCITEGIC>MOL_PROPERTY
Angle
SciTegic.value.DoubleValue
2.241

@<SCITEGIC>MOL_PROPERTY
Pdih
SciTegic.value.DoubleValue
3.522

@<SCITEGIC>MOL_PROPERTY
Idih
SciTegic.value.DoubleValue
0.000

@<SCITEGIC>MOL_PROPERTY
Tether
SciTegic.value.DoubleValue
0.000

@<TRIPOS>MOLECULE
guest-6_confgen4.mol2 : confsearch ligand conformer 367
          13          12           1
SMALL
USER_CHARGES
 
@<TRIPOS>ATOM
       1    C1      19.679650   17.232298   21.972561 C.2        1 MOL1         0.6021
       2    O1      19.456641   16.723709   23.053164 O.co2      1 MOL1        -0.6904
       3    O2      19.032175   16.992085   20.973072 O.co2      1 MOL1        -0.6904
       4    C2      20.858248   18.196074   21.859556 C.3        1 MOL1        -0.2102
       5    H1      21.119346   18.309242   20.800166 H          1 MOL1         0.0687
       6    H2      21.717195   17.720984   22.348316 H          1 MOL1         0.0687
       7    C3      20.605188   19.585726   22.498436 C.3        1 MOL1        -0.1974
       8    H3      20.304301   19.458708   23.547844 H          1 MOL1         0.0689
       9    H4      21.544874   20.154763   22.506215 H          1 MOL1         0.0689
      10    C4      19.531615   20.396125   21.743042 C.3        1 MOL1        -0.2987
      11    H5      18.564529   19.876064   21.753522 H          1 MOL1         0.0700
      12    H6      19.391198   21.380370   22.208489 H          1 MOL1         0.0700
      13    H7      19.823224   20.553860   20.696392 H          1 MOL1         0.0700
@<TRIPOS>BOND
    1     1     2    1
    2     1     3    2
    3     1     4    1
    4     4     5    1
    5     4     6    1
    6     4     7    1
    7     7     8    1
    8     7     9    1
    9     7    10    1
   10    10    11    1
   11    10    12    1
   12    10    13    1
@<TRIPOS>SUBSTRUCTURE
       1 MOL1            1 RESIDUE      1      MOL     
@<SCITEGIC>MOL_PROPERTY
VConf Rank
SciTegic.value.IntegerValue
367

@<SCITEGIC>MOL_PROPERTY
Conf_Id
SciTegic.value.IntegerValue
4

@<SCITEGIC>MOL_PROPERTY
Delta U+W
SciTegic.value.DoubleValue
0.281

@<SCITEGIC>MOL_PROPERTY
U+W
SciTegic.value.DoubleValue
-58.051

@<SCITEGIC>MOL_PROPERTY
Grad RMS
SciTegic.value.DoubleValue
0.000000

@<SCITEGIC>MOL_PROPERTY
U
SciTegic.value.DoubleValue
9.781

@<SCITEGIC>MOL_PROPERTY
W
SciTegic.value.DoubleValue
-67.832

@<SCITEGIC>MOL_PROPERTY
W(PB)
SciTegic.value.DoubleValue
-69.535

@<SCITEGIC>MOL_PROPERTY
W(SA)
SciTegic.value.DoubleValue
1.703

@<SCITEGIC>MOL_PROPERTY
Valence
SciTegic.value.DoubleValue
6.123

@<SCITEGIC>MOL_PROPERTY
Coulomb
SciTegic.value.DoubleValue
3.449

@<SCITEGIC>MOL_PROPERTY
VdW
SciTegic.value.DoubleValue
0.209

@<SCITEGIC>MOL_PROPERTY
VdW6
SciTegic.value.DoubleValue
-3.762

@<SCITEGIC>MOL_PROPERTY
VdW12
SciTegic.value.DoubleValue
3.972

@<SCITEGIC>MOL_PROPERTY
Bond
SciTegic.value.DoubleValue
0.078

@<SCITEGIC>MOL_PROPERTY
Angle
SciTegic.value.DoubleValue
2.428

@<SCITEGIC>MOL_PROPERTY
Pdih
SciTegic.value.DoubleValue
3.616

@<SCITEGIC>MOL_PROPERTY
Idih
SciTegic.value.DoubleValue
0.002

@<SCITEGIC>MOL_PROPERTY
Tether
SciTegic.value.DoubleValue
0.000

@<TRIPOS>MOLECULE
guest-6_confgen4.mol2 : confsearch ligand conformer 368
          13          12           1
SMALL
USER_CHARGES
 
@<TRIPOS>ATOM
       1    C1      19.769990   20.467686   22.913823 C.2        1 MOL1         0.6021
       2    O1      19.859718   20.246662   24.105042 O.co2      1 MOL1        -0.6904
       3    O2      20.132661   21.505253   22.396115 O.co2      1 MOL1        -0.6904
       4    C2      19.135849   19.401744   22.023677 C.3        1 MOL1        -0.2102
       5    H1      18.393242   19.903065   21.391539 H          1 MOL1         0.0687
       6    H2      18.586541   18.695360   22.658159 H          1 MOL1         0.0687
       7    C3      20.145975   18.640313   21.127460 C.3        1 MOL1        -0.1974
       8    H3      19.593319   18.007544   20.419613 H          1 MOL1         0.0689
       9    H4      20.719498   19.359878   20.526445 H          1 MOL1         0.0689
      10    C4      21.111661   17.757453   21.944734 C.3        1 MOL1        -0.2987
      11    H5      20.559525   17.015604   22.536509 H          1 MOL1         0.0700
      12    H6      21.799141   17.218229   21.280126 H          1 MOL1         0.0700
      13    H7      21.713891   18.364386   22.633776 H          1 MOL1         0.0700
@<TRIPOS>BOND
    1     1     2    1
    2     1     3    2
    3     1     4    1
    4     4     5    1
    5     4     6    1
    6     4     7    1
    7     7     8    1
    8     7     9    1
    9     7    10    1
   10    10    11    1
   11    10    12    1
   12    10    13    1
@<TRIPOS>SUBSTRUCTURE
       1 MOL1            1 RESIDUE      1      MOL     
@<SCITEGIC>MOL_PROPERTY
VConf Rank
SciTegic.value.IntegerValue
368

@<SCITEGIC>MOL_PROPERTY
Conf_Id
SciTegic.value.IntegerValue
36

@<SCITEGIC>MOL_PROPERTY
Delta U+W
SciTegic.value.DoubleValue
0.272

@<SCITEGIC>MOL_PROPERTY
U+W
SciTegic.value.DoubleValue
-58.060

@<SCITEGIC>MOL_PROPERTY
Grad RMS
SciTegic.value.DoubleValue
0.000000

@<SCITEGIC>MOL_PROPERTY
U
SciTegic.value.DoubleValue
9.781

@<SCITEGIC>MOL_PROPERTY
W
SciTegic.value.DoubleValue
-67.841

@<SCITEGIC>MOL_PROPERTY
W(PB)
SciTegic.value.DoubleValue
-69.537

@<SCITEGIC>MOL_PROPERTY
W(SA)
SciTegic.value.DoubleValue
1.696

@<SCITEGIC>MOL_PROPERTY
Valence
SciTegic.value.DoubleValue
6.123

@<SCITEGIC>MOL_PROPERTY
Coulomb
SciTegic.value.DoubleValue
3.449

@<SCITEGIC>MOL_PROPERTY
VdW
SciTegic.value.DoubleValue
0.209

@<SCITEGIC>MOL_PROPERTY
VdW6
SciTegic.value.DoubleValue
-3.762

@<SCITEGIC>MOL_PROPERTY
VdW12
SciTegic.value.DoubleValue
3.972

@<SCITEGIC>MOL_PROPERTY
Bond
SciTegic.value.DoubleValue
0.078

@<SCITEGIC>MOL_PROPERTY
Angle
SciTegic.value.DoubleValue
2.428

@<SCITEGIC>MOL_PROPERTY
Pdih
SciTegic.value.DoubleValue
3.616

@<SCITEGIC>MOL_PROPERTY
Idih
SciTegic.value.DoubleValue
0.002

@<SCITEGIC>MOL_PROPERTY
Tether
SciTegic.value.DoubleValue
0.000

@<TRIPOS>MOLECULE
guest-6_confgen4.mol2 : confsearch ligand conformer 369
          13          12           1
SMALL
USER_CHARGES
 
@<TRIPOS>ATOM
       1    C1      20.266611   16.884812   21.716258 C.2        1 MOL1         0.6021
       2    O1      19.600999   16.544485   22.674625 O.co2      1 MOL1        -0.6904
       3    O2      20.847344   16.094413   21.000148 O.co2      1 MOL1        -0.6904
       4    C2      20.398607   18.369267   21.370349 C.3        1 MOL1        -0.2102
       5    H1      20.042442   18.498934   20.341432 H          1 MOL1         0.0687
       6    H2      21.467831   18.612363   21.372119 H          1 MOL1         0.0687
       7    C3      19.640334   19.340950   22.312056 C.3        1 MOL1        -0.1974
       8    H3      18.569510   19.093790   22.311083 H          1 MOL1         0.0689
       9    H4      19.996599   19.207307   23.343060 H          1 MOL1         0.0689
      10    C4      19.830923   20.810876   21.886817 C.3        1 MOL1        -0.2987
      11    H5      19.453461   20.977667   20.869357 H          1 MOL1         0.0700
      12    H6      19.287706   21.482711   22.564172 H          1 MOL1         0.0700
      13    H7      20.892024   21.092069   21.909573 H          1 MOL1         0.0700
@<TRIPOS>BOND
    1     1     2    1
    2     1     3    2
    3     1     4    1
    4     4     5    1
    5     4     6    1
    6     4     7    1
    7     7     8    1
    8     7     9    1
    9     7    10    1
   10    10    11    1
   11    10    12    1
   12    10    13    1
@<TRIPOS>SUBSTRUCTURE
       1 MOL1            1 RESIDUE      1      MOL     
@<SCITEGIC>MOL_PROPERTY
VConf Rank
SciTegic.value.IntegerValue
369

@<SCITEGIC>MOL_PROPERTY
Conf_Id
SciTegic.value.IntegerValue
0

@<SCITEGIC>MOL_PROPERTY
Delta U+W
SciTegic.value.DoubleValue
0.000

@<SCITEGIC>MOL_PROPERTY
U+W
SciTegic.value.DoubleValue
-58.332

@<SCITEGIC>MOL_PROPERTY
Grad RMS
SciTegic.value.DoubleValue
0.000000

@<SCITEGIC>MOL_PROPERTY
U
SciTegic.value.DoubleValue
8.390

@<SCITEGIC>MOL_PROPERTY
W
SciTegic.value.DoubleValue
-66.722

@<SCITEGIC>MOL_PROPERTY
W(PB)
SciTegic.value.DoubleValue
-68.455

@<SCITEGIC>MOL_PROPERTY
W(SA)
SciTegic.value.DoubleValue
1.733

@<SCITEGIC>MOL_PROPERTY
Valence
SciTegic.value.DoubleValue
6.333

@<SCITEGIC>MOL_PROPERTY
Coulomb
SciTegic.value.DoubleValue
1.215

@<SCITEGIC>MOL_PROPERTY
VdW
SciTegic.value.DoubleValue
0.842

@<SCITEGIC>MOL_PROPERTY
VdW6
SciTegic.value.DoubleValue
-3.344

@<SCITEGIC>MOL_PROPERTY
VdW12
SciTegic.value.DoubleValue
4.186

@<SCITEGIC>MOL_PROPERTY
Bond
SciTegic.value.DoubleValue
0.091

@<SCITEGIC>MOL_PROPERTY
Angle
SciTegic.value.DoubleValue
2.713

@<SCITEGIC>MOL_PROPERTY
Pdih
SciTegic.value.DoubleValue
3.529

@<SCITEGIC>MOL_PROPERTY
Idih
SciTegic.value.DoubleValue
0.000

@<SCITEGIC>MOL_PROPERTY
Tether
SciTegic.value.DoubleValue
0.000

@<TRIPOS>MOLECULE
guest-6_confgen4.mol2 : confsearch ligand conformer 370
          13          12           1
SMALL
USER_CHARGES
 
@<TRIPOS>ATOM
       1    C1      20.679847   19.172779   19.840566 C.2        1 MOL1         0.6021
       2    O1      21.156119   20.240454   19.511027 O.co2      1 MOL1        -0.6904
       3    O2      20.198553   18.381529   19.054666 O.co2      1 MOL1        -0.6904
       4    C2      20.668530   18.814711   21.322847 C.3        1 MOL1        -0.2102
       5    H1      21.556870   19.258952   21.788167 H          1 MOL1         0.0687
       6    H2      20.767225   17.725968   21.411821 H          1 MOL1         0.0687
       7    C3      19.389588   19.294823   22.050618 C.3        1 MOL1        -0.1974
       8    H3      19.295960   20.384868   21.946428 H          1 MOL1         0.0689
       9    H4      18.506193   18.851501   21.570097 H          1 MOL1         0.0689
      10    C4      19.408930   18.917967   23.545575 C.3        1 MOL1        -0.2987
      11    H5      18.494930   19.266364   24.044057 H          1 MOL1         0.0700
      12    H6      19.472065   17.829529   23.675472 H          1 MOL1         0.0700
      13    H7      20.267864   19.374692   24.054684 H          1 MOL1         0.0700
@<TRIPOS>BOND
    1     1     2    1
    2     1     3    2
    3     1     4    1
    4     4     5    1
    5     4     6    1
    6     4     7    1
    7     7     8    1
    8     7     9    1
    9     7    10    1
   10    10    11    1
   11    10    12    1
   12    10    13    1
@<TRIPOS>SUBSTRUCTURE
       1 MOL1            1 RESIDUE      1      MOL     
@<SCITEGIC>MOL_PROPERTY
VConf Rank
SciTegic.value.IntegerValue
370

@<SCITEGIC>MOL_PROPERTY
Conf_Id
SciTegic.value.IntegerValue
1

@<SCITEGIC>MOL_PROPERTY
Delta U+W
SciTegic.value.DoubleValue
-1.339

@<SCITEGIC>MOL_PROPERTY
U+W
SciTegic.value.DoubleValue
-59.672

@<SCITEGIC>MOL_PROPERTY
Grad RMS
SciTegic.value.DoubleValue
0.000000

@<SCITEGIC>MOL_PROPERTY
U
SciTegic.value.DoubleValue
7.389

@<SCITEGIC>MOL_PROPERTY
W
SciTegic.value.DoubleValue
-67.061

@<SCITEGIC>MOL_PROPERTY
W(PB)
SciTegic.value.DoubleValue
-68.767

@<SCITEGIC>MOL_PROPERTY
W(SA)
SciTegic.value.DoubleValue
1.707

@<SCITEGIC>MOL_PROPERTY
Valence
SciTegic.value.DoubleValue
5.822

@<SCITEGIC>MOL_PROPERTY
Coulomb
SciTegic.value.DoubleValue
1.255

@<SCITEGIC>MOL_PROPERTY
VdW
SciTegic.value.DoubleValue
0.312

@<SCITEGIC>MOL_PROPERTY
VdW6
SciTegic.value.DoubleValue
-3.061

@<SCITEGIC>MOL_PROPERTY
VdW12
SciTegic.value.DoubleValue
3.372

@<SCITEGIC>MOL_PROPERTY
Bond
SciTegic.value.DoubleValue
0.059

@<SCITEGIC>MOL_PROPERTY
Angle
SciTegic.value.DoubleValue
2.241

@<SCITEGIC>MOL_PROPERTY
Pdih
SciTegic.value.DoubleValue
3.522

@<SCITEGIC>MOL_PROPERTY
Idih
SciTegic.value.DoubleValue
0.000

@<SCITEGIC>MOL_PROPERTY
Tether
SciTegic.value.DoubleValue
0.000

@<TRIPOS>MOLECULE
guest-6_confgen4.mol2 : confsearch ligand conformer 371
          13          12           1
SMALL
USER_CHARGES
 
@<TRIPOS>ATOM
       1    C1      20.316673   20.629772   21.355425 C.2        1 MOL1         0.6021
       2    O1      20.389831   20.729758   20.146810 O.co2      1 MOL1        -0.6904
       3    O2      19.702969   21.409912   22.055891 O.co2      1 MOL1        -0.6904
       4    C2      21.065814   19.483265   22.029990 C.3        1 MOL1        -0.2102
       5    H1      21.168887   19.711072   23.098057 H          1 MOL1         0.0687
       6    H2      22.079060   19.463526   21.611268 H          1 MOL1         0.0687
       7    C3      20.403084   18.094478   21.841848 C.3        1 MOL1        -0.1974
       8    H3      20.266857   17.894232   20.769810 H          1 MOL1         0.0689
       9    H4      21.079601   17.318068   22.224453 H          1 MOL1         0.0689
      10    C4      19.046958   17.984096   22.568942 C.3        1 MOL1        -0.2987
      11    H5      18.329464   18.718573   22.179617 H          1 MOL1         0.0700
      12    H6      18.614959   16.984211   22.432190 H          1 MOL1         0.0700
      13    H7      19.164027   18.159046   23.646476 H          1 MOL1         0.0700
@<TRIPOS>BOND
    1     1     2    1
    2     1     3    2
    3     1     4    1
    4     4     5    1
    5     4     6    1
    6     4     7    1
    7     7     8    1
    8     7     9    1
    9     7    10    1
   10    10    11    1
   11    10    12    1
   12    10    13    1
@<TRIPOS>SUBSTRUCTURE
       1 MOL1            1 RESIDUE      1      MOL     
@<SCITEGIC>MOL_PROPERTY
VConf Rank
SciTegic.value.IntegerValue
371

@<SCITEGIC>MOL_PROPERTY
Conf_Id
SciTegic.value.IntegerValue
4

@<SCITEGIC>MOL_PROPERTY
Delta U+W
SciTegic.value.DoubleValue
0.281

@<SCITEGIC>MOL_PROPERTY
U+W
SciTegic.value.DoubleValue
-58.051

@<SCITEGIC>MOL_PROPERTY
Grad RMS
SciTegic.value.DoubleValue
0.000000

@<SCITEGIC>MOL_PROPERTY
U
SciTegic.value.DoubleValue
9.781

@<SCITEGIC>MOL_PROPERTY
W
SciTegic.value.DoubleValue
-67.832

@<SCITEGIC>MOL_PROPERTY
W(PB)
SciTegic.value.DoubleValue
-69.535

@<SCITEGIC>MOL_PROPERTY
W(SA)
SciTegic.value.DoubleValue
1.703

@<SCITEGIC>MOL_PROPERTY
Valence
SciTegic.value.DoubleValue
6.123

@<SCITEGIC>MOL_PROPERTY
Coulomb
SciTegic.value.DoubleValue
3.449

@<SCITEGIC>MOL_PROPERTY
VdW
SciTegic.value.DoubleValue
0.209

@<SCITEGIC>MOL_PROPERTY
VdW6
SciTegic.value.DoubleValue
-3.762

@<SCITEGIC>MOL_PROPERTY
VdW12
SciTegic.value.DoubleValue
3.972

@<SCITEGIC>MOL_PROPERTY
Bond
SciTegic.value.DoubleValue
0.078

@<SCITEGIC>MOL_PROPERTY
Angle
SciTegic.value.DoubleValue
2.428

@<SCITEGIC>MOL_PROPERTY
Pdih
SciTegic.value.DoubleValue
3.616

@<SCITEGIC>MOL_PROPERTY
Idih
SciTegic.value.DoubleValue
0.002

@<SCITEGIC>MOL_PROPERTY
Tether
SciTegic.value.DoubleValue
0.000

@<TRIPOS>MOLECULE
guest-6_confgen4.mol2 : confsearch ligand conformer 372
          13          12           1
SMALL
USER_CHARGES
 
@<TRIPOS>ATOM
       1    C1      21.110143   18.151866   20.748299 C.2        1 MOL1         0.6021
       2    O1      22.215288   18.655224   20.713780 O.co2      1 MOL1        -0.6904
       3    O2      20.911355   16.962191   20.602511 O.co2      1 MOL1        -0.6904
       4    C2      19.902968   19.064520   20.949585 C.3        1 MOL1        -0.2102
       5    H1      19.159627   18.795944   20.189520 H          1 MOL1         0.0687
       6    H2      20.206142   20.098613   20.744589 H          1 MOL1         0.0687
       7    C3      19.260260   18.965595   22.356879 C.3        1 MOL1        -0.1974
       8    H3      18.320249   19.534101   22.364007 H          1 MOL1         0.0689
       9    H4      18.998178   17.919481   22.568733 H          1 MOL1         0.0689
      10    C4      20.184571   19.506305   23.467378 C.3        1 MOL1        -0.2987
      11    H5      20.441130   20.558412   23.286716 H          1 MOL1         0.0700
      12    H6      19.692642   19.440004   24.446513 H          1 MOL1         0.0700
      13    H7      21.118457   18.930919   23.518508 H          1 MOL1         0.0700
@<TRIPOS>BOND
    1     1     2    1
    2     1     3    2
    3     1     4    1
    4     4     5    1
    5     4     6    1
    6     4     7    1
    7     7     8    1
    8     7     9    1
    9     7    10    1
   10    10    11    1
   11    10    12    1
   12    10    13    1
@<TRIPOS>SUBSTRUCTURE
       1 MOL1            1 RESIDUE      1      MOL     
@<SCITEGIC>MOL_PROPERTY
VConf Rank
SciTegic.value.IntegerValue
372

@<SCITEGIC>MOL_PROPERTY
Conf_Id
SciTegic.value.IntegerValue
36

@<SCITEGIC>MOL_PROPERTY
Delta U+W
SciTegic.value.DoubleValue
0.272

@<SCITEGIC>MOL_PROPERTY
U+W
SciTegic.value.DoubleValue
-58.060

@<SCITEGIC>MOL_PROPERTY
Grad RMS
SciTegic.value.DoubleValue
0.000000

@<SCITEGIC>MOL_PROPERTY
U
SciTegic.value.DoubleValue
9.781

@<SCITEGIC>MOL_PROPERTY
W
SciTegic.value.DoubleValue
-67.841

@<SCITEGIC>MOL_PROPERTY
W(PB)
SciTegic.value.DoubleValue
-69.537

@<SCITEGIC>MOL_PROPERTY
W(SA)
SciTegic.value.DoubleValue
1.696

@<SCITEGIC>MOL_PROPERTY
Valence
SciTegic.value.DoubleValue
6.123

@<SCITEGIC>MOL_PROPERTY
Coulomb
SciTegic.value.DoubleValue
3.449

@<SCITEGIC>MOL_PROPERTY
VdW
SciTegic.value.DoubleValue
0.209

@<SCITEGIC>MOL_PROPERTY
VdW6
SciTegic.value.DoubleValue
-3.762

@<SCITEGIC>MOL_PROPERTY
VdW12
SciTegic.value.DoubleValue
3.972

@<SCITEGIC>MOL_PROPERTY
Bond
SciTegic.value.DoubleValue
0.078

@<SCITEGIC>MOL_PROPERTY
Angle
SciTegic.value.DoubleValue
2.428

@<SCITEGIC>MOL_PROPERTY
Pdih
SciTegic.value.DoubleValue
3.616

@<SCITEGIC>MOL_PROPERTY
Idih
SciTegic.value.DoubleValue
0.002

@<SCITEGIC>MOL_PROPERTY
Tether
SciTegic.value.DoubleValue
0.000

@<TRIPOS>MOLECULE
guest-6_confgen4.mol2 : confsearch ligand conformer 373
          13          12           1
SMALL
USER_CHARGES
 
@<TRIPOS>ATOM
       1    C1      19.531316   19.271290   19.763420 C.2        1 MOL1         0.6021
       2    O1      18.431422   18.754764   19.735804 O.co2      1 MOL1        -0.6904
       3    O2      20.056737   19.761062   18.784211 O.co2      1 MOL1        -0.6904
       4    C2      20.315022   19.322232   21.076391 C.3        1 MOL1        -0.2102
       5    H1      20.536167   20.375681   21.285388 H          1 MOL1         0.0687
       6    H2      21.275240   18.821447   20.904544 H          1 MOL1         0.0687
       7    C3      19.604866   18.684894   22.299272 C.3        1 MOL1        -0.1974
       8    H3      18.641554   19.186215   22.467979 H          1 MOL1         0.0689
       9    H4      19.381465   17.630079   22.086639 H          1 MOL1         0.0689
      10    C4      20.467572   18.782797   23.573629 C.3        1 MOL1        -0.2987
      11    H5      20.679020   19.830364   23.825456 H          1 MOL1         0.0700
      12    H6      19.949112   18.327046   24.427296 H          1 MOL1         0.0700
      13    H7      21.424897   18.261772   23.441022 H          1 MOL1         0.0700
@<TRIPOS>BOND
    1     1     2    1
    2     1     3    2
    3     1     4    1
    4     4     5    1
    5     4     6    1
    6     4     7    1
    7     7     8    1
    8     7     9    1
    9     7    10    1
   10    10    11    1
   11    10    12    1
   12    10    13    1
@<TRIPOS>SUBSTRUCTURE
       1 MOL1            1 RESIDUE      1      MOL     
@<SCITEGIC>MOL_PROPERTY
VConf Rank
SciTegic.value.IntegerValue
373

@<SCITEGIC>MOL_PROPERTY
Conf_Id
SciTegic.value.IntegerValue
0

@<SCITEGIC>MOL_PROPERTY
Delta U+W
SciTegic.value.DoubleValue
0.000

@<SCITEGIC>MOL_PROPERTY
U+W
SciTegic.value.DoubleValue
-58.332

@<SCITEGIC>MOL_PROPERTY
Grad RMS
SciTegic.value.DoubleValue
0.000000

@<SCITEGIC>MOL_PROPERTY
U
SciTegic.value.DoubleValue
8.390

@<SCITEGIC>MOL_PROPERTY
W
SciTegic.value.DoubleValue
-66.722

@<SCITEGIC>MOL_PROPERTY
W(PB)
SciTegic.value.DoubleValue
-68.455

@<SCITEGIC>MOL_PROPERTY
W(SA)
SciTegic.value.DoubleValue
1.733

@<SCITEGIC>MOL_PROPERTY
Valence
SciTegic.value.DoubleValue
6.333

@<SCITEGIC>MOL_PROPERTY
Coulomb
SciTegic.value.DoubleValue
1.215

@<SCITEGIC>MOL_PROPERTY
VdW
SciTegic.value.DoubleValue
0.842

@<SCITEGIC>MOL_PROPERTY
VdW6
SciTegic.value.DoubleValue
-3.344

@<SCITEGIC>MOL_PROPERTY
VdW12
SciTegic.value.DoubleValue
4.186

@<SCITEGIC>MOL_PROPERTY
Bond
SciTegic.value.DoubleValue
0.091

@<SCITEGIC>MOL_PROPERTY
Angle
SciTegic.value.DoubleValue
2.713

@<SCITEGIC>MOL_PROPERTY
Pdih
SciTegic.value.DoubleValue
3.529

@<SCITEGIC>MOL_PROPERTY
Idih
SciTegic.value.DoubleValue
0.000

@<SCITEGIC>MOL_PROPERTY
Tether
SciTegic.value.DoubleValue
0.000

@<TRIPOS>MOLECULE
guest-6_confgen4.mol2 : confsearch ligand conformer 374
          13          12           1
SMALL
USER_CHARGES
 
@<TRIPOS>ATOM
       1    C1      20.176369   17.074422   21.081292 C.2        1 MOL1         0.6021
       2    O1      21.110956   16.426587   21.508164 O.co2      1 MOL1        -0.6904
       3    O2      19.643598   16.858840   20.011227 O.co2      1 MOL1        -0.6904
       4    C2      19.656050   18.232693   21.925788 C.3        1 MOL1        -0.2102
       5    H1      19.787911   17.970812   22.982694 H          1 MOL1         0.0687
       6    H2      18.577832   18.327257   21.748242 H          1 MOL1         0.0687
       7    C3      20.366323   19.572722   21.616460 C.3        1 MOL1        -0.1974
       8    H3      21.446297   19.463254   21.788200 H          1 MOL1         0.0689
       9    H4      20.235882   19.819823   20.553563 H          1 MOL1         0.0689
      10    C4      19.818341   20.722259   22.485696 C.3        1 MOL1        -0.2987
      11    H5      20.333631   21.663122   22.252214 H          1 MOL1         0.0700
      12    H6      18.744873   20.870820   22.309194 H          1 MOL1         0.0700
      13    H7      19.964612   20.511526   23.553288 H          1 MOL1         0.0700
@<TRIPOS>BOND
    1     1     2    1
    2     1     3    2
    3     1     4    1
    4     4     5    1
    5     4     6    1
    6     4     7    1
    7     7     8    1
    8     7     9    1
    9     7    10    1
   10    10    11    1
   11    10    12    1
   12    10    13    1
@<TRIPOS>SUBSTRUCTURE
       1 MOL1            1 RESIDUE      1      MOL     
@<SCITEGIC>MOL_PROPERTY
VConf Rank
SciTegic.value.IntegerValue
374

@<SCITEGIC>MOL_PROPERTY
Conf_Id
SciTegic.value.IntegerValue
1

@<SCITEGIC>MOL_PROPERTY
Delta U+W
SciTegic.value.DoubleValue
-1.339

@<SCITEGIC>MOL_PROPERTY
U+W
SciTegic.value.DoubleValue
-59.672

@<SCITEGIC>MOL_PROPERTY
Grad RMS
SciTegic.value.DoubleValue
0.000000

@<SCITEGIC>MOL_PROPERTY
U
SciTegic.value.DoubleValue
7.389

@<SCITEGIC>MOL_PROPERTY
W
SciTegic.value.DoubleValue
-67.061

@<SCITEGIC>MOL_PROPERTY
W(PB)
SciTegic.value.DoubleValue
-68.767

@<SCITEGIC>MOL_PROPERTY
W(SA)
SciTegic.value.DoubleValue
1.707

@<SCITEGIC>MOL_PROPERTY
Valence
SciTegic.value.DoubleValue
5.822

@<SCITEGIC>MOL_PROPERTY
Coulomb
SciTegic.value.DoubleValue
1.255

@<SCITEGIC>MOL_PROPERTY
VdW
SciTegic.value.DoubleValue
0.312

@<SCITEGIC>MOL_PROPERTY
VdW6
SciTegic.value.DoubleValue
-3.061

@<SCITEGIC>MOL_PROPERTY
VdW12
SciTegic.value.DoubleValue
3.372

@<SCITEGIC>MOL_PROPERTY
Bond
SciTegic.value.DoubleValue
0.059

@<SCITEGIC>MOL_PROPERTY
Angle
SciTegic.value.DoubleValue
2.241

@<SCITEGIC>MOL_PROPERTY
Pdih
SciTegic.value.DoubleValue
3.522

@<SCITEGIC>MOL_PROPERTY
Idih
SciTegic.value.DoubleValue
0.000

@<SCITEGIC>MOL_PROPERTY
Tether
SciTegic.value.DoubleValue
0.000

@<TRIPOS>MOLECULE
guest-6_confgen4.mol2 : confsearch ligand conformer 375
          13          12           1
SMALL
USER_CHARGES
 
@<TRIPOS>ATOM
       1    C1      18.619200   19.833987   21.558680 C.2        1 MOL1         0.6021
       2    O1      17.764571   19.887371   22.420573 O.co2      1 MOL1        -0.6904
       3    O2      18.883075   20.760952   20.819079 O.co2      1 MOL1        -0.6904
       4    C2      19.374770   18.520329   21.373903 C.3        1 MOL1        -0.2102
       5    H1      19.856188   18.527448   20.388269 H          1 MOL1         0.0687
       6    H2      18.630945   17.714830   21.357120 H          1 MOL1         0.0687
       7    C3      20.423532   18.230678   22.478231 C.3        1 MOL1        -0.1974
       8    H3      19.939005   18.266744   23.464058 H          1 MOL1         0.0689
       9    H4      20.806298   17.208717   22.351905 H          1 MOL1         0.0689
      10    C4      21.606794   19.219900   22.442746 C.3        1 MOL1        -0.2987
      11    H5      21.265247   20.249960   22.610524 H          1 MOL1         0.0700
      12    H6      22.339087   18.975243   23.223122 H          1 MOL1         0.0700
      13    H7      22.119471   19.183851   21.472563 H          1 MOL1         0.0700
@<TRIPOS>BOND
    1     1     2    1
    2     1     3    2
    3     1     4    1
    4     4     5    1
    5     4     6    1
    6     4     7    1
    7     7     8    1
    8     7     9    1
    9     7    10    1
   10    10    11    1
   11    10    12    1
   12    10    13    1
@<TRIPOS>SUBSTRUCTURE
       1 MOL1            1 RESIDUE      1      MOL     
@<SCITEGIC>MOL_PROPERTY
VConf Rank
SciTegic.value.IntegerValue
375

@<SCITEGIC>MOL_PROPERTY
Conf_Id
SciTegic.value.IntegerValue
4

@<SCITEGIC>MOL_PROPERTY
Delta U+W
SciTegic.value.DoubleValue
0.281

@<SCITEGIC>MOL_PROPERTY
U+W
SciTegic.value.DoubleValue
-58.051

@<SCITEGIC>MOL_PROPERTY
Grad RMS
SciTegic.value.DoubleValue
0.000000

@<SCITEGIC>MOL_PROPERTY
U
SciTegic.value.DoubleValue
9.781

@<SCITEGIC>MOL_PROPERTY
W
SciTegic.value.DoubleValue
-67.832

@<SCITEGIC>MOL_PROPERTY
W(PB)
SciTegic.value.DoubleValue
-69.535

@<SCITEGIC>MOL_PROPERTY
W(SA)
SciTegic.value.DoubleValue
1.703

@<SCITEGIC>MOL_PROPERTY
Valence
SciTegic.value.DoubleValue
6.123

@<SCITEGIC>MOL_PROPERTY
Coulomb
SciTegic.value.DoubleValue
3.449

@<SCITEGIC>MOL_PROPERTY
VdW
SciTegic.value.DoubleValue
0.209

@<SCITEGIC>MOL_PROPERTY
VdW6
SciTegic.value.DoubleValue
-3.762

@<SCITEGIC>MOL_PROPERTY
VdW12
SciTegic.value.DoubleValue
3.972

@<SCITEGIC>MOL_PROPERTY
Bond
SciTegic.value.DoubleValue
0.078

@<SCITEGIC>MOL_PROPERTY
Angle
SciTegic.value.DoubleValue
2.428

@<SCITEGIC>MOL_PROPERTY
Pdih
SciTegic.value.DoubleValue
3.616

@<SCITEGIC>MOL_PROPERTY
Idih
SciTegic.value.DoubleValue
0.002

@<SCITEGIC>MOL_PROPERTY
Tether
SciTegic.value.DoubleValue
0.000

@<TRIPOS>MOLECULE
guest-6_confgen4.mol2 : confsearch ligand conformer 376
          13          12           1
SMALL
USER_CHARGES
 
@<TRIPOS>ATOM
       1    C1      18.654666   18.786660   23.016255 C.2        1 MOL1         0.6021
       2    O1      17.837048   19.631279   22.709618 O.co2      1 MOL1        -0.6904
       3    O2      18.358861   17.649981   23.326992 O.co2      1 MOL1        -0.6904
       4    C2      20.129013   19.181632   23.048247 C.3        1 MOL1        -0.2102
       5    H1      20.542398   18.825488   23.999384 H          1 MOL1         0.0687
       6    H2      20.199372   20.276226   23.062403 H          1 MOL1         0.0687
       7    C3      20.965262   18.608013   21.875650 C.3        1 MOL1        -0.1974
       8    H3      22.029033   18.812662   22.058359 H          1 MOL1         0.0689
       9    H4      20.854691   17.514954   21.845346 H          1 MOL1         0.0689
      10    C4      20.562964   19.210346   20.513565 C.3        1 MOL1        -0.2987
      11    H5      20.687251   20.301191   20.514777 H          1 MOL1         0.0700
      12    H6      21.186190   18.798427   19.709197 H          1 MOL1         0.0700
      13    H7      19.514260   18.986316   20.277226 H          1 MOL1         0.0700
@<TRIPOS>BOND
    1     1     2    1
    2     1     3    2
    3     1     4    1
    4     4     5    1
    5     4     6    1
    6     4     7    1
    7     7     8    1
    8     7     9    1
    9     7    10    1
   10    10    11    1
   11    10    12    1
   12    10    13    1
@<TRIPOS>SUBSTRUCTURE
       1 MOL1            1 RESIDUE      1      MOL     
@<SCITEGIC>MOL_PROPERTY
VConf Rank
SciTegic.value.IntegerValue
376

@<SCITEGIC>MOL_PROPERTY
Conf_Id
SciTegic.value.IntegerValue
36

@<SCITEGIC>MOL_PROPERTY
Delta U+W
SciTegic.value.DoubleValue
0.272

@<SCITEGIC>MOL_PROPERTY
U+W
SciTegic.value.DoubleValue
-58.060

@<SCITEGIC>MOL_PROPERTY
Grad RMS
SciTegic.value.DoubleValue
0.000000

@<SCITEGIC>MOL_PROPERTY
U
SciTegic.value.DoubleValue
9.781

@<SCITEGIC>MOL_PROPERTY
W
SciTegic.value.DoubleValue
-67.841

@<SCITEGIC>MOL_PROPERTY
W(PB)
SciTegic.value.DoubleValue
-69.537

@<SCITEGIC>MOL_PROPERTY
W(SA)
SciTegic.value.DoubleValue
1.696

@<SCITEGIC>MOL_PROPERTY
Valence
SciTegic.value.DoubleValue
6.123

@<SCITEGIC>MOL_PROPERTY
Coulomb
SciTegic.value.DoubleValue
3.449

@<SCITEGIC>MOL_PROPERTY
VdW
SciTegic.value.DoubleValue
0.209

@<SCITEGIC>MOL_PROPERTY
VdW6
SciTegic.value.DoubleValue
-3.762

@<SCITEGIC>MOL_PROPERTY
VdW12
SciTegic.value.DoubleValue
3.972

@<SCITEGIC>MOL_PROPERTY
Bond
SciTegic.value.DoubleValue
0.078

@<SCITEGIC>MOL_PROPERTY
Angle
SciTegic.value.DoubleValue
2.428

@<SCITEGIC>MOL_PROPERTY
Pdih
SciTegic.value.DoubleValue
3.616

@<SCITEGIC>MOL_PROPERTY
Idih
SciTegic.value.DoubleValue
0.002

@<SCITEGIC>MOL_PROPERTY
Tether
SciTegic.value.DoubleValue
0.000

@<TRIPOS>MOLECULE
guest-6_confgen4.mol2 : confsearch ligand conformer 377
          13          12           1
SMALL
USER_CHARGES
 
@<TRIPOS>ATOM
       1    C1      20.113051   19.706026   19.810373 C.2        1 MOL1         0.6021
       2    O1      20.142274   18.647931   19.212952 O.co2      1 MOL1        -0.6904
       3    O2      20.136825   20.782981   19.249661 O.co2      1 MOL1        -0.6904
       4    C2      20.043392   19.714989   21.338689 C.3        1 MOL1        -0.2102
       5    H1      19.147276   20.279532   21.622597 H          1 MOL1         0.0687
       6    H2      20.908091   20.282466   21.702837 H          1 MOL1         0.0687
       7    C3      20.015089   18.317322   22.010763 C.3        1 MOL1        -0.1974
       8    H3      19.149496   17.749213   21.642312 H          1 MOL1         0.0689
       9    H4      20.912446   17.752114   21.722589 H          1 MOL1         0.0689
      10    C4      19.944946   18.425624   23.547378 C.3        1 MOL1        -0.2987
      11    H5      19.039308   18.960361   23.862654 H          1 MOL1         0.0700
      12    H6      19.925799   17.427747   24.004687 H          1 MOL1         0.0700
      13    H7      20.816398   18.963337   23.943560 H          1 MOL1         0.0700
@<TRIPOS>BOND
    1     1     2    1
    2     1     3    2
    3     1     4    1
    4     4     5    1
    5     4     6    1
    6     4     7    1
    7     7     8    1
    8     7     9    1
    9     7    10    1
   10    10    11    1
   11    10    12    1
   12    10    13    1
@<TRIPOS>SUBSTRUCTURE
       1 MOL1            1 RESIDUE      1      MOL     
@<SCITEGIC>MOL_PROPERTY
VConf Rank
SciTegic.value.IntegerValue
377

@<SCITEGIC>MOL_PROPERTY
Conf_Id
SciTegic.value.IntegerValue
0

@<SCITEGIC>MOL_PROPERTY
Delta U+W
SciTegic.value.DoubleValue
0.000

@<SCITEGIC>MOL_PROPERTY
U+W
SciTegic.value.DoubleValue
-58.332

@<SCITEGIC>MOL_PROPERTY
Grad RMS
SciTegic.value.DoubleValue
0.000000

@<SCITEGIC>MOL_PROPERTY
U
SciTegic.value.DoubleValue
8.390

@<SCITEGIC>MOL_PROPERTY
W
SciTegic.value.DoubleValue
-66.722

@<SCITEGIC>MOL_PROPERTY
W(PB)
SciTegic.value.DoubleValue
-68.455

@<SCITEGIC>MOL_PROPERTY
W(SA)
SciTegic.value.DoubleValue
1.733

@<SCITEGIC>MOL_PROPERTY
Valence
SciTegic.value.DoubleValue
6.333

@<SCITEGIC>MOL_PROPERTY
Coulomb
SciTegic.value.DoubleValue
1.215

@<SCITEGIC>MOL_PROPERTY
VdW
SciTegic.value.DoubleValue
0.842

@<SCITEGIC>MOL_PROPERTY
VdW6
SciTegic.value.DoubleValue
-3.344

@<SCITEGIC>MOL_PROPERTY
VdW12
SciTegic.value.DoubleValue
4.186

@<SCITEGIC>MOL_PROPERTY
Bond
SciTegic.value.DoubleValue
0.091

@<SCITEGIC>MOL_PROPERTY
Angle
SciTegic.value.DoubleValue
2.713

@<SCITEGIC>MOL_PROPERTY
Pdih
SciTegic.value.DoubleValue
3.529

@<SCITEGIC>MOL_PROPERTY
Idih
SciTegic.value.DoubleValue
0.000

@<SCITEGIC>MOL_PROPERTY
Tether
SciTegic.value.DoubleValue
0.000

@<TRIPOS>MOLECULE
guest-6_confgen4.mol2 : confsearch ligand conformer 378
          13          12           1
SMALL
USER_CHARGES
 
@<TRIPOS>ATOM
       1    C1      18.326734   18.959271   23.131698 C.2        1 MOL1         0.6021
       2    O1      18.502418   18.386786   24.188465 O.co2      1 MOL1        -0.6904
       3    O2      17.236480   19.089799   22.612401 O.co2      1 MOL1        -0.6904
       4    C2      19.542854   19.528347   22.408716 C.3        1 MOL1        -0.2102
       5    H1      20.271049   19.847140   23.164442 H          1 MOL1         0.0687
       6    H2      19.227081   20.426901   21.864741 H          1 MOL1         0.0687
       7    C3      20.194333   18.517320   21.434422 C.3        1 MOL1        -0.1974
       8    H3      20.497477   17.617809   21.988322 H          1 MOL1         0.0689
       9    H4      19.453359   18.197784   20.688314 H          1 MOL1         0.0689
      10    C4      21.419583   19.122342   20.720278 C.3        1 MOL1        -0.2987
      11    H5      21.867423   18.391358   20.034449 H          1 MOL1         0.0700
      12    H6      21.135876   20.006873   20.134898 H          1 MOL1         0.0700
      13    H7      22.188007   19.422407   21.444876 H          1 MOL1         0.0700
@<TRIPOS>BOND
    1     1     2    1
    2     1     3    2
    3     1     4    1
    4     4     5    1
    5     4     6    1
    6     4     7    1
    7     7     8    1
    8     7     9    1
    9     7    10    1
   10    10    11    1
   11    10    12    1
   12    10    13    1
@<TRIPOS>SUBSTRUCTURE
       1 MOL1            1 RESIDUE      1      MOL     
@<SCITEGIC>MOL_PROPERTY
VConf Rank
SciTegic.value.IntegerValue
378

@<SCITEGIC>MOL_PROPERTY
Conf_Id
SciTegic.value.IntegerValue
1

@<SCITEGIC>MOL_PROPERTY
Delta U+W
SciTegic.value.DoubleValue
-1.339

@<SCITEGIC>MOL_PROPERTY
U+W
SciTegic.value.DoubleValue
-59.672

@<SCITEGIC>MOL_PROPERTY
Grad RMS
SciTegic.value.DoubleValue
0.000000

@<SCITEGIC>MOL_PROPERTY
U
SciTegic.value.DoubleValue
7.389

@<SCITEGIC>MOL_PROPERTY
W
SciTegic.value.DoubleValue
-67.061

@<SCITEGIC>MOL_PROPERTY
W(PB)
SciTegic.value.DoubleValue
-68.767

@<SCITEGIC>MOL_PROPERTY
W(SA)
SciTegic.value.DoubleValue
1.707

@<SCITEGIC>MOL_PROPERTY
Valence
SciTegic.value.DoubleValue
5.822

@<SCITEGIC>MOL_PROPERTY
Coulomb
SciTegic.value.DoubleValue
1.255

@<SCITEGIC>MOL_PROPERTY
VdW
SciTegic.value.DoubleValue
0.312

@<SCITEGIC>MOL_PROPERTY
VdW6
SciTegic.value.DoubleValue
-3.061

@<SCITEGIC>MOL_PROPERTY
VdW12
SciTegic.value.DoubleValue
3.372

@<SCITEGIC>MOL_PROPERTY
Bond
SciTegic.value.DoubleValue
0.059

@<SCITEGIC>MOL_PROPERTY
Angle
SciTegic.value.DoubleValue
2.241

@<SCITEGIC>MOL_PROPERTY
Pdih
SciTegic.value.DoubleValue
3.522

@<SCITEGIC>MOL_PROPERTY
Idih
SciTegic.value.DoubleValue
0.000

@<SCITEGIC>MOL_PROPERTY
Tether
SciTegic.value.DoubleValue
0.000

@<TRIPOS>MOLECULE
guest-6_confgen4.mol2 : confsearch ligand conformer 379
          13          12           1
SMALL
USER_CHARGES
 
@<TRIPOS>ATOM
       1    C1      21.818638   18.930263   21.412375 C.2        1 MOL1         0.6021
       2    O1      22.219162   19.942646   20.873153 O.co2      1 MOL1        -0.6904
       3    O2      22.495457   18.261095   22.167381 O.co2      1 MOL1        -0.6904
       4    C2      20.402347   18.457005   21.094770 C.3        1 MOL1        -0.2102
       5    H1      20.310237   17.403475   21.386109 H          1 MOL1         0.0687
       6    H2      20.281026   18.496074   20.005669 H          1 MOL1         0.0687
       7    C3      19.286662   19.296664   21.768239 C.3        1 MOL1        -0.1974
       8    H3      19.412760   20.355787   21.503134 H          1 MOL1         0.0689
       9    H4      18.311537   18.985418   21.369327 H          1 MOL1         0.0689
      10    C4      19.275992   19.141452   23.303076 C.3        1 MOL1        -0.2987
      11    H5      20.222141   19.485961   23.741189 H          1 MOL1         0.0700
      12    H6      18.463529   19.732075   23.745980 H          1 MOL1         0.0700
      13    H7      19.128696   18.092092   23.590372 H          1 MOL1         0.0700
@<TRIPOS>BOND
    1     1     2    1
    2     1     3    2
    3     1     4    1
    4     4     5    1
    5     4     6    1
    6     4     7    1
    7     7     8    1
    8     7     9    1
    9     7    10    1
   10    10    11    1
   11    10    12    1
   12    10    13    1
@<TRIPOS>SUBSTRUCTURE
       1 MOL1            1 RESIDUE      1      MOL     
@<SCITEGIC>MOL_PROPERTY
VConf Rank
SciTegic.value.IntegerValue
379

@<SCITEGIC>MOL_PROPERTY
Conf_Id
SciTegic.value.IntegerValue
4

@<SCITEGIC>MOL_PROPERTY
Delta U+W
SciTegic.value.DoubleValue
0.281

@<SCITEGIC>MOL_PROPERTY
U+W
SciTegic.value.DoubleValue
-58.051

@<SCITEGIC>MOL_PROPERTY
Grad RMS
SciTegic.value.DoubleValue
0.000000

@<SCITEGIC>MOL_PROPERTY
U
SciTegic.value.DoubleValue
9.781

@<SCITEGIC>MOL_PROPERTY
W
SciTegic.value.DoubleValue
-67.832

@<SCITEGIC>MOL_PROPERTY
W(PB)
SciTegic.value.DoubleValue
-69.535

@<SCITEGIC>MOL_PROPERTY
W(SA)
SciTegic.value.DoubleValue
1.703

@<SCITEGIC>MOL_PROPERTY
Valence
SciTegic.value.DoubleValue
6.123

@<SCITEGIC>MOL_PROPERTY
Coulomb
SciTegic.value.DoubleValue
3.449

@<SCITEGIC>MOL_PROPERTY
VdW
SciTegic.value.DoubleValue
0.209

@<SCITEGIC>MOL_PROPERTY
VdW6
SciTegic.value.DoubleValue
-3.762

@<SCITEGIC>MOL_PROPERTY
VdW12
SciTegic.value.DoubleValue
3.972

@<SCITEGIC>MOL_PROPERTY
Bond
SciTegic.value.DoubleValue
0.078

@<SCITEGIC>MOL_PROPERTY
Angle
SciTegic.value.DoubleValue
2.428

@<SCITEGIC>MOL_PROPERTY
Pdih
SciTegic.value.DoubleValue
3.616

@<SCITEGIC>MOL_PROPERTY
Idih
SciTegic.value.DoubleValue
0.002

@<SCITEGIC>MOL_PROPERTY
Tether
SciTegic.value.DoubleValue
0.000

@<TRIPOS>MOLECULE
guest-6_confgen4.mol2 : confsearch ligand conformer 380
          13          12           1
SMALL
USER_CHARGES
 
@<TRIPOS>ATOM
       1    C1      18.426711   19.429674   22.371538 C.2        1 MOL1         0.6021
       2    O1      18.341988   19.751813   23.539850 O.co2      1 MOL1        -0.6904
       3    O2      17.814068   19.980889   21.478830 O.co2      1 MOL1        -0.6904
       4    C2      19.321692   18.247564   22.007739 C.3        1 MOL1        -0.2102
       5    H1      18.741676   17.588195   21.351079 H          1 MOL1         0.0687
       6    H2      19.537582   17.676647   22.919184 H          1 MOL1         0.0687
       7    C3      20.643120   18.645748   21.301613 C.3        1 MOL1        -0.1974
       8    H3      21.147874   17.737853   20.944089 H          1 MOL1         0.0689
       9    H4      20.417100   19.251989   20.413183 H          1 MOL1         0.0689
      10    C4      21.599241   19.420741   22.231745 C.3        1 MOL1        -0.2987
      11    H5      21.856024   18.823374   23.116395 H          1 MOL1         0.0700
      12    H6      22.531257   19.669707   21.707857 H          1 MOL1         0.0700
      13    H7      21.142678   20.358981   22.573917 H          1 MOL1         0.0700
@<TRIPOS>BOND
    1     1     2    1
    2     1     3    2
    3     1     4    1
    4     4     5    1
    5     4     6    1
    6     4     7    1
    7     7     8    1
    8     7     9    1
    9     7    10    1
   10    10    11    1
   11    10    12    1
   12    10    13    1
@<TRIPOS>SUBSTRUCTURE
       1 MOL1            1 RESIDUE      1      MOL     
@<SCITEGIC>MOL_PROPERTY
VConf Rank
SciTegic.value.IntegerValue
380

@<SCITEGIC>MOL_PROPERTY
Conf_Id
SciTegic.value.IntegerValue
36

@<SCITEGIC>MOL_PROPERTY
Delta U+W
SciTegic.value.DoubleValue
0.272

@<SCITEGIC>MOL_PROPERTY
U+W
SciTegic.value.DoubleValue
-58.060

@<SCITEGIC>MOL_PROPERTY
Grad RMS
SciTegic.value.DoubleValue
0.000000

@<SCITEGIC>MOL_PROPERTY
U
SciTegic.value.DoubleValue
9.781

@<SCITEGIC>MOL_PROPERTY
W
SciTegic.value.DoubleValue
-67.841

@<SCITEGIC>MOL_PROPERTY
W(PB)
SciTegic.value.DoubleValue
-69.537

@<SCITEGIC>MOL_PROPERTY
W(SA)
SciTegic.value.DoubleValue
1.696

@<SCITEGIC>MOL_PROPERTY
Valence
SciTegic.value.DoubleValue
6.123

@<SCITEGIC>MOL_PROPERTY
Coulomb
SciTegic.value.DoubleValue
3.449

@<SCITEGIC>MOL_PROPERTY
VdW
SciTegic.value.DoubleValue
0.209

@<SCITEGIC>MOL_PROPERTY
VdW6
SciTegic.value.DoubleValue
-3.762

@<SCITEGIC>MOL_PROPERTY
VdW12
SciTegic.value.DoubleValue
3.972

@<SCITEGIC>MOL_PROPERTY
Bond
SciTegic.value.DoubleValue
0.078

@<SCITEGIC>MOL_PROPERTY
Angle
SciTegic.value.DoubleValue
2.428

@<SCITEGIC>MOL_PROPERTY
Pdih
SciTegic.value.DoubleValue
3.616

@<SCITEGIC>MOL_PROPERTY
Idih
SciTegic.value.DoubleValue
0.002

@<SCITEGIC>MOL_PROPERTY
Tether
SciTegic.value.DoubleValue
0.000

@<TRIPOS>MOLECULE
guest-6_confgen4.mol2 : confsearch ligand conformer 381
          13          12           1
SMALL
USER_CHARGES
 
@<TRIPOS>ATOM
       1    C1      21.627477   19.407062   20.476589 C.2        1 MOL1         0.6021
       2    O1      21.822180   18.292760   20.031897 O.co2      1 MOL1        -0.6904
       3    O2      22.271134   20.377942   20.133234 O.co2      1 MOL1        -0.6904
       4    C2      20.528915   19.629244   21.517973 C.3        1 MOL1        -0.2102
       5    H1      19.841792   20.382206   21.113935 H          1 MOL1         0.0687
       6    H2      21.001500   20.069632   22.404008 H          1 MOL1         0.0687
       7    C3      19.733641   18.361470   21.925704 C.3        1 MOL1        -0.1974
       8    H3      19.263261   17.920067   21.035950 H          1 MOL1         0.0689
       9    H4      20.424410   17.607071   22.327544 H          1 MOL1         0.0689
      10    C4      18.651270   18.681578   22.976341 C.3        1 MOL1        -0.2987
      11    H5      17.929305   19.411390   22.586903 H          1 MOL1         0.0700
      12    H6      18.099720   17.773287   23.252125 H          1 MOL1         0.0700
      13    H7      19.099787   19.095932   23.888847 H          1 MOL1         0.0700
@<TRIPOS>BOND
    1     1     2    1
    2     1     3    2
    3     1     4    1
    4     4     5    1
    5     4     6    1
    6     4     7    1
    7     7     8    1
    8     7     9    1
    9     7    10    1
   10    10    11    1
   11    10    12    1
   12    10    13    1
@<TRIPOS>SUBSTRUCTURE
       1 MOL1            1 RESIDUE      1      MOL     
@<SCITEGIC>MOL_PROPERTY
VConf Rank
SciTegic.value.IntegerValue
381

@<SCITEGIC>MOL_PROPERTY
Conf_Id
SciTegic.value.IntegerValue
0

@<SCITEGIC>MOL_PROPERTY
Delta U+W
SciTegic.value.DoubleValue
0.000

@<SCITEGIC>MOL_PROPERTY
U+W
SciTegic.value.DoubleValue
-58.332

@<SCITEGIC>MOL_PROPERTY
Grad RMS
SciTegic.value.DoubleValue
0.000000

@<SCITEGIC>MOL_PROPERTY
U
SciTegic.value.DoubleValue
8.390

@<SCITEGIC>MOL_PROPERTY
W
SciTegic.value.DoubleValue
-66.722

@<SCITEGIC>MOL_PROPERTY
W(PB)
SciTegic.value.DoubleValue
-68.455

@<SCITEGIC>MOL_PROPERTY
W(SA)
SciTegic.value.DoubleValue
1.733

@<SCITEGIC>MOL_PROPERTY
Valence
SciTegic.value.DoubleValue
6.333

@<SCITEGIC>MOL_PROPERTY
Coulomb
SciTegic.value.DoubleValue
1.215

@<SCITEGIC>MOL_PROPERTY
VdW
SciTegic.value.DoubleValue
0.842

@<SCITEGIC>MOL_PROPERTY
VdW6
SciTegic.value.DoubleValue
-3.344

@<SCITEGIC>MOL_PROPERTY
VdW12
SciTegic.value.DoubleValue
4.186

@<SCITEGIC>MOL_PROPERTY
Bond
SciTegic.value.DoubleValue
0.091

@<SCITEGIC>MOL_PROPERTY
Angle
SciTegic.value.DoubleValue
2.713

@<SCITEGIC>MOL_PROPERTY
Pdih
SciTegic.value.DoubleValue
3.529

@<SCITEGIC>MOL_PROPERTY
Idih
SciTegic.value.DoubleValue
0.000

@<SCITEGIC>MOL_PROPERTY
Tether
SciTegic.value.DoubleValue
0.000

@<TRIPOS>MOLECULE
guest-6_confgen4.mol2 : confsearch ligand conformer 382
          13          12           1
SMALL
USER_CHARGES
 
@<TRIPOS>ATOM
       1    C1      18.034631   18.545994   22.460787 C.2        1 MOL1         0.6021
       2    O1      17.908479   18.255453   23.633405 O.co2      1 MOL1        -0.6904
       3    O2      17.272265   18.173837   21.591500 O.co2      1 MOL1        -0.6904
       4    C2      19.224839   19.408899   22.055452 C.3        1 MOL1        -0.2102
       5    H1      19.448568   20.092567   22.883439 H          1 MOL1         0.0687
       6    H2      18.923897   20.025278   21.199572 H          1 MOL1         0.0687
       7    C3      20.480137   18.577043   21.697552 C.3        1 MOL1        -0.1974
       8    H3      20.766307   17.956606   22.558357 H          1 MOL1         0.0689
       9    H4      20.241574   17.889408   20.874103 H          1 MOL1         0.0689
      10    C4      21.664355   19.477598   21.292685 C.3        1 MOL1        -0.2987
      11    H5      22.544176   18.870371   21.042782 H          1 MOL1         0.0700
      12    H6      21.412336   20.086704   20.414601 H          1 MOL1         0.0700
      13    H7      21.941110   20.154380   22.111788 H          1 MOL1         0.0700
@<TRIPOS>BOND
    1     1     2    1
    2     1     3    2
    3     1     4    1
    4     4     5    1
    5     4     6    1
    6     4     7    1
    7     7     8    1
    8     7     9    1
    9     7    10    1
   10    10    11    1
   11    10    12    1
   12    10    13    1
@<TRIPOS>SUBSTRUCTURE
       1 MOL1            1 RESIDUE      1      MOL     
@<SCITEGIC>MOL_PROPERTY
VConf Rank
SciTegic.value.IntegerValue
382

@<SCITEGIC>MOL_PROPERTY
Conf_Id
SciTegic.value.IntegerValue
1

@<SCITEGIC>MOL_PROPERTY
Delta U+W
SciTegic.value.DoubleValue
-1.339

@<SCITEGIC>MOL_PROPERTY
U+W
SciTegic.value.DoubleValue
-59.672

@<SCITEGIC>MOL_PROPERTY
Grad RMS
SciTegic.value.DoubleValue
0.000000

@<SCITEGIC>MOL_PROPERTY
U
SciTegic.value.DoubleValue
7.389

@<SCITEGIC>MOL_PROPERTY
W
SciTegic.value.DoubleValue
-67.061

@<SCITEGIC>MOL_PROPERTY
W(PB)
SciTegic.value.DoubleValue
-68.767

@<SCITEGIC>MOL_PROPERTY
W(SA)
SciTegic.value.DoubleValue
1.707

@<SCITEGIC>MOL_PROPERTY
Valence
SciTegic.value.DoubleValue
5.822

@<SCITEGIC>MOL_PROPERTY
Coulomb
SciTegic.value.DoubleValue
1.255

@<SCITEGIC>MOL_PROPERTY
VdW
SciTegic.value.DoubleValue
0.312

@<SCITEGIC>MOL_PROPERTY
VdW6
SciTegic.value.DoubleValue
-3.061

@<SCITEGIC>MOL_PROPERTY
VdW12
SciTegic.value.DoubleValue
3.372

@<SCITEGIC>MOL_PROPERTY
Bond
SciTegic.value.DoubleValue
0.059

@<SCITEGIC>MOL_PROPERTY
Angle
SciTegic.value.DoubleValue
2.241

@<SCITEGIC>MOL_PROPERTY
Pdih
SciTegic.value.DoubleValue
3.522

@<SCITEGIC>MOL_PROPERTY
Idih
SciTegic.value.DoubleValue
0.000

@<SCITEGIC>MOL_PROPERTY
Tether
SciTegic.value.DoubleValue
0.000

@<TRIPOS>MOLECULE
guest-6_confgen4.mol2 : confsearch ligand conformer 383
          13          12           1
SMALL
USER_CHARGES
 
@<TRIPOS>ATOM
       1    C1      19.001812   20.142747   21.243396 C.2        1 MOL1         0.6021
       2    O1      17.949548   20.322061   21.823643 O.co2      1 MOL1        -0.6904
       3    O2      19.637586   21.035108   20.718622 O.co2      1 MOL1        -0.6904
       4    C2      19.532516   18.715111   21.138816 C.3        1 MOL1        -0.2102
       5    H1      20.283659   18.677026   20.340304 H          1 MOL1         0.0687
       6    H2      18.698525   18.078776   20.819562 H          1 MOL1         0.0687
       7    C3      20.127843   18.161085   22.458657 C.3        1 MOL1        -0.1974
       8    H3      19.381381   18.242019   23.261258 H          1 MOL1         0.0689
       9    H4      20.343467   17.091003   22.334942 H          1 MOL1         0.0689
      10    C4      21.421652   18.890966   22.874903 C.3        1 MOL1        -0.2987
      11    H5      21.233470   19.958428   23.050798 H          1 MOL1         0.0700
      12    H6      21.827004   18.462155   23.800596 H          1 MOL1         0.0700
      13    H7      22.189722   18.803523   22.095278 H          1 MOL1         0.0700
@<TRIPOS>BOND
    1     1     2    1
    2     1     3    2
    3     1     4    1
    4     4     5    1
    5     4     6    1
    6     4     7    1
    7     7     8    1
    8     7     9    1
    9     7    10    1
   10    10    11    1
   11    10    12    1
   12    10    13    1
@<TRIPOS>SUBSTRUCTURE
       1 MOL1            1 RESIDUE      1      MOL     
@<SCITEGIC>MOL_PROPERTY
VConf Rank
SciTegic.value.IntegerValue
383

@<SCITEGIC>MOL_PROPERTY
Conf_Id
SciTegic.value.IntegerValue
4

@<SCITEGIC>MOL_PROPERTY
Delta U+W
SciTegic.value.DoubleValue
0.281

@<SCITEGIC>MOL_PROPERTY
U+W
SciTegic.value.DoubleValue
-58.051

@<SCITEGIC>MOL_PROPERTY
Grad RMS
SciTegic.value.DoubleValue
0.000000

@<SCITEGIC>MOL_PROPERTY
U
SciTegic.value.DoubleValue
9.781

@<SCITEGIC>MOL_PROPERTY
W
SciTegic.value.DoubleValue
-67.832

@<SCITEGIC>MOL_PROPERTY
W(PB)
SciTegic.value.DoubleValue
-69.535

@<SCITEGIC>MOL_PROPERTY
W(SA)
SciTegic.value.DoubleValue
1.703

@<SCITEGIC>MOL_PROPERTY
Valence
SciTegic.value.DoubleValue
6.123

@<SCITEGIC>MOL_PROPERTY
Coulomb
SciTegic.value.DoubleValue
3.449

@<SCITEGIC>MOL_PROPERTY
VdW
SciTegic.value.DoubleValue
0.209

@<SCITEGIC>MOL_PROPERTY
VdW6
SciTegic.value.DoubleValue
-3.762

@<SCITEGIC>MOL_PROPERTY
VdW12
SciTegic.value.DoubleValue
3.972

@<SCITEGIC>MOL_PROPERTY
Bond
SciTegic.value.DoubleValue
0.078

@<SCITEGIC>MOL_PROPERTY
Angle
SciTegic.value.DoubleValue
2.428

@<SCITEGIC>MOL_PROPERTY
Pdih
SciTegic.value.DoubleValue
3.616

@<SCITEGIC>MOL_PROPERTY
Idih
SciTegic.value.DoubleValue
0.002

@<SCITEGIC>MOL_PROPERTY
Tether
SciTegic.value.DoubleValue
0.000

@<TRIPOS>MOLECULE
guest-6_confgen4.mol2 : confsearch ligand conformer 384
          13          12           1
SMALL
USER_CHARGES
 
@<TRIPOS>ATOM
       1    C1      20.490920   20.101745   20.660485 C.2        1 MOL1         0.6021
       2    O1      19.477129   20.677662   20.319235 O.co2      1 MOL1        -0.6904
       3    O2      21.581843   20.634823   20.703062 O.co2      1 MOL1        -0.6904
       4    C2      20.398164   18.621121   21.020865 C.3        1 MOL1        -0.2102
       5    H1      21.202160   18.103049   20.484602 H          1 MOL1         0.0687
       6    H2      19.451885   18.223784   20.633609 H          1 MOL1         0.0687
       7    C3      20.518800   18.328603   22.538500 C.3        1 MOL1        -0.1974
       8    H3      20.593579   17.243234   22.690995 H          1 MOL1         0.0689
       9    H4      21.449977   18.766568   22.924528 H          1 MOL1         0.0689
      10    C4      19.317117   18.868598   23.341177 C.3        1 MOL1        -0.2987
      11    H5      18.377199   18.426219   22.985866 H          1 MOL1         0.0700
      12    H6      19.424206   18.627959   24.406879 H          1 MOL1         0.0700
      13    H7      19.238031   19.959810   23.247215 H          1 MOL1         0.0700
@<TRIPOS>BOND
    1     1     2    1
    2     1     3    2
    3     1     4    1
    4     4     5    1
    5     4     6    1
    6     4     7    1
    7     7     8    1
    8     7     9    1
    9     7    10    1
   10    10    11    1
   11    10    12    1
   12    10    13    1
@<TRIPOS>SUBSTRUCTURE
       1 MOL1            1 RESIDUE      1      MOL     
@<SCITEGIC>MOL_PROPERTY
VConf Rank
SciTegic.value.IntegerValue
384

@<SCITEGIC>MOL_PROPERTY
Conf_Id
SciTegic.value.IntegerValue
36

@<SCITEGIC>MOL_PROPERTY
Delta U+W
SciTegic.value.DoubleValue
0.272

@<SCITEGIC>MOL_PROPERTY
U+W
SciTegic.value.DoubleValue
-58.060

@<SCITEGIC>MOL_PROPERTY
Grad RMS
SciTegic.value.DoubleValue
0.000000

@<SCITEGIC>MOL_PROPERTY
U
SciTegic.value.DoubleValue
9.781

@<SCITEGIC>MOL_PROPERTY
W
SciTegic.value.DoubleValue
-67.841

@<SCITEGIC>MOL_PROPERTY
W(PB)
SciTegic.value.DoubleValue
-69.537

@<SCITEGIC>MOL_PROPERTY
W(SA)
SciTegic.value.DoubleValue
1.696

@<SCITEGIC>MOL_PROPERTY
Valence
SciTegic.value.DoubleValue
6.123

@<SCITEGIC>MOL_PROPERTY
Coulomb
SciTegic.value.DoubleValue
3.449

@<SCITEGIC>MOL_PROPERTY
VdW
SciTegic.value.DoubleValue
0.209

@<SCITEGIC>MOL_PROPERTY
VdW6
SciTegic.value.DoubleValue
-3.762

@<SCITEGIC>MOL_PROPERTY
VdW12
SciTegic.value.DoubleValue
3.972

@<SCITEGIC>MOL_PROPERTY
Bond
SciTegic.value.DoubleValue
0.078

@<SCITEGIC>MOL_PROPERTY
Angle
SciTegic.value.DoubleValue
2.428

@<SCITEGIC>MOL_PROPERTY
Pdih
SciTegic.value.DoubleValue
3.616

@<SCITEGIC>MOL_PROPERTY
Idih
SciTegic.value.DoubleValue
0.002

@<SCITEGIC>MOL_PROPERTY
Tether
SciTegic.value.DoubleValue
0.000

@<TRIPOS>MOLECULE
guest-6_confgen4.mol2 : confsearch ligand conformer 385
          13          12           1
SMALL
USER_CHARGES
 
@<TRIPOS>ATOM
       1    C1      18.473639   18.310598   23.113869 C.2        1 MOL1         0.6021
       2    O1      17.670358   17.912756   22.293021 O.co2      1 MOL1        -0.6904
       3    O2      18.279703   18.252148   24.311270 O.co2      1 MOL1        -0.6904
       4    C2      19.798605   18.918188   22.649131 C.3        1 MOL1        -0.2102
       5    H1      20.605579   18.334900   23.108376 H          1 MOL1         0.0687
       6    H2      19.858617   19.930867   23.065326 H          1 MOL1         0.0687
       7    C3      20.002159   18.971997   21.112372 C.3        1 MOL1        -0.1974
       8    H3      19.938758   17.956548   20.696923 H          1 MOL1         0.0689
       9    H4      19.190830   19.554419   20.653804 H          1 MOL1         0.0689
      10    C4      21.361148   19.598055   20.739498 C.3        1 MOL1        -0.2987
      11    H5      22.190975   19.015456   21.160792 H          1 MOL1         0.0700
      12    H6      21.486970   19.627568   19.649289 H          1 MOL1         0.0700
      13    H7      21.437050   20.626144   21.117380 H          1 MOL1         0.0700
@<TRIPOS>BOND
    1     1     2    1
    2     1     3    2
    3     1     4    1
    4     4     5    1
    5     4     6    1
    6     4     7    1
    7     7     8    1
    8     7     9    1
    9     7    10    1
   10    10    11    1
   11    10    12    1
   12    10    13    1
@<TRIPOS>SUBSTRUCTURE
       1 MOL1            1 RESIDUE      1      MOL     
@<SCITEGIC>MOL_PROPERTY
VConf Rank
SciTegic.value.IntegerValue
385

@<SCITEGIC>MOL_PROPERTY
Conf_Id
SciTegic.value.IntegerValue
0

@<SCITEGIC>MOL_PROPERTY
Delta U+W
SciTegic.value.DoubleValue
0.000

@<SCITEGIC>MOL_PROPERTY
U+W
SciTegic.value.DoubleValue
-58.332

@<SCITEGIC>MOL_PROPERTY
Grad RMS
SciTegic.value.DoubleValue
0.000000

@<SCITEGIC>MOL_PROPERTY
U
SciTegic.value.DoubleValue
8.390

@<SCITEGIC>MOL_PROPERTY
W
SciTegic.value.DoubleValue
-66.722

@<SCITEGIC>MOL_PROPERTY
W(PB)
SciTegic.value.DoubleValue
-68.455

@<SCITEGIC>MOL_PROPERTY
W(SA)
SciTegic.value.DoubleValue
1.733

@<SCITEGIC>MOL_PROPERTY
Valence
SciTegic.value.DoubleValue
6.333

@<SCITEGIC>MOL_PROPERTY
Coulomb
SciTegic.value.DoubleValue
1.215

@<SCITEGIC>MOL_PROPERTY
VdW
SciTegic.value.DoubleValue
0.842

@<SCITEGIC>MOL_PROPERTY
VdW6
SciTegic.value.DoubleValue
-3.344

@<SCITEGIC>MOL_PROPERTY
VdW12
SciTegic.value.DoubleValue
4.186

@<SCITEGIC>MOL_PROPERTY
Bond
SciTegic.value.DoubleValue
0.091

@<SCITEGIC>MOL_PROPERTY
Angle
SciTegic.value.DoubleValue
2.713

@<SCITEGIC>MOL_PROPERTY
Pdih
SciTegic.value.DoubleValue
3.529

@<SCITEGIC>MOL_PROPERTY
Idih
SciTegic.value.DoubleValue
0.000

@<SCITEGIC>MOL_PROPERTY
Tether
SciTegic.value.DoubleValue
0.000

@<TRIPOS>MOLECULE
guest-6_confgen4.mol2 : confsearch ligand conformer 386
          13          12           1
SMALL
USER_CHARGES
 
@<TRIPOS>ATOM
       1    C1      20.427562   17.160552   22.690868 C.2        1 MOL1         0.6021
       2    O1      21.103825   16.410036   22.016512 O.co2      1 MOL1        -0.6904
       3    O2      19.669669   16.781648   23.561149 O.co2      1 MOL1        -0.6904
       4    C2      20.521020   18.657879   22.417412 C.3        1 MOL1        -0.2102
       5    H1      21.543607   18.881976   22.090128 H          1 MOL1         0.0687
       6    H2      20.360936   19.188427   23.363937 H          1 MOL1         0.0687
       7    C3      19.503823   19.142893   21.356318 C.3        1 MOL1        -0.1974
       8    H3      19.667124   18.597872   20.416049 H          1 MOL1         0.0689
       9    H4      18.484242   18.904499   21.690154 H          1 MOL1         0.0689
      10    C4      19.623785   20.659017   21.102808 C.3        1 MOL1        -0.2987
      11    H5      18.895335   20.983771   20.348383 H          1 MOL1         0.0700
      12    H6      19.434905   21.227282   22.023109 H          1 MOL1         0.0700
      13    H7      20.626842   20.918285   20.739197 H          1 MOL1         0.0700
@<TRIPOS>BOND
    1     1     2    1
    2     1     3    2
    3     1     4    1
    4     4     5    1
    5     4     6    1
    6     4     7    1
    7     7     8    1
    8     7     9    1
    9     7    10    1
   10    10    11    1
   11    10    12    1
   12    10    13    1
@<TRIPOS>SUBSTRUCTURE
       1 MOL1            1 RESIDUE      1      MOL     
@<SCITEGIC>MOL_PROPERTY
VConf Rank
SciTegic.value.IntegerValue
386

@<SCITEGIC>MOL_PROPERTY
Conf_Id
SciTegic.value.IntegerValue
1

@<SCITEGIC>MOL_PROPERTY
Delta U+W
SciTegic.value.DoubleValue
-1.339

@<SCITEGIC>MOL_PROPERTY
U+W
SciTegic.value.DoubleValue
-59.672

@<SCITEGIC>MOL_PROPERTY
Grad RMS
SciTegic.value.DoubleValue
0.000000

@<SCITEGIC>MOL_PROPERTY
U
SciTegic.value.DoubleValue
7.389

@<SCITEGIC>MOL_PROPERTY
W
SciTegic.value.DoubleValue
-67.061

@<SCITEGIC>MOL_PROPERTY
W(PB)
SciTegic.value.DoubleValue
-68.767

@<SCITEGIC>MOL_PROPERTY
W(SA)
SciTegic.value.DoubleValue
1.707

@<SCITEGIC>MOL_PROPERTY
Valence
SciTegic.value.DoubleValue
5.822

@<SCITEGIC>MOL_PROPERTY
Coulomb
SciTegic.value.DoubleValue
1.255

@<SCITEGIC>MOL_PROPERTY
VdW
SciTegic.value.DoubleValue
0.312

@<SCITEGIC>MOL_PROPERTY
VdW6
SciTegic.value.DoubleValue
-3.061

@<SCITEGIC>MOL_PROPERTY
VdW12
SciTegic.value.DoubleValue
3.372

@<SCITEGIC>MOL_PROPERTY
Bond
SciTegic.value.DoubleValue
0.059

@<SCITEGIC>MOL_PROPERTY
Angle
SciTegic.value.DoubleValue
2.241

@<SCITEGIC>MOL_PROPERTY
Pdih
SciTegic.value.DoubleValue
3.522

@<SCITEGIC>MOL_PROPERTY
Idih
SciTegic.value.DoubleValue
0.000

@<SCITEGIC>MOL_PROPERTY
Tether
SciTegic.value.DoubleValue
0.000

@<TRIPOS>MOLECULE
guest-6_confgen4.mol2 : confsearch ligand conformer 387
          13          12           1
SMALL
USER_CHARGES
 
@<TRIPOS>ATOM
       1    C1      21.714277   19.736018   22.305854 C.2        1 MOL1         0.6021
       2    O1      22.049058   20.602267   21.522508 O.co2      1 MOL1        -0.6904
       3    O2      21.907368   19.805135   23.503286 O.co2      1 MOL1        -0.6904
       4    C2      21.048474   18.479909   21.749416 C.3        1 MOL1        -0.2102
       5    H1      21.103601   17.688137   22.506611 H          1 MOL1         0.0687
       6    H2      21.647792   18.143240   20.895098 H          1 MOL1         0.0687
       7    C3      19.579513   18.686677   21.299148 C.3        1 MOL1        -0.1974
       8    H3      19.530134   19.509209   20.571876 H          1 MOL1         0.0689
       9    H4      19.232193   17.783800   20.778518 H          1 MOL1         0.0689
      10    C4      18.634954   18.980503   22.482956 C.3        1 MOL1        -0.2987
      11    H5      18.926891   19.903611   23.001100 H          1 MOL1         0.0700
      12    H6      17.601716   19.101846   22.132540 H          1 MOL1         0.0700
      13    H7      18.652214   18.159658   23.211864 H          1 MOL1         0.0700
@<TRIPOS>BOND
    1     1     2    1
    2     1     3    2
    3     1     4    1
    4     4     5    1
    5     4     6    1
    6     4     7    1
    7     7     8    1
    8     7     9    1
    9     7    10    1
   10    10    11    1
   11    10    12    1
   12    10    13    1
@<TRIPOS>SUBSTRUCTURE
       1 MOL1            1 RESIDUE      1      MOL     
@<SCITEGIC>MOL_PROPERTY
VConf Rank
SciTegic.value.IntegerValue
387

@<SCITEGIC>MOL_PROPERTY
Conf_Id
SciTegic.value.IntegerValue
4

@<SCITEGIC>MOL_PROPERTY
Delta U+W
SciTegic.value.DoubleValue
0.281

@<SCITEGIC>MOL_PROPERTY
U+W
SciTegic.value.DoubleValue
-58.051

@<SCITEGIC>MOL_PROPERTY
Grad RMS
SciTegic.value.DoubleValue
0.000000

@<SCITEGIC>MOL_PROPERTY
U
SciTegic.value.DoubleValue
9.781

@<SCITEGIC>MOL_PROPERTY
W
SciTegic.value.DoubleValue
-67.832

@<SCITEGIC>MOL_PROPERTY
W(PB)
SciTegic.value.DoubleValue
-69.535

@<SCITEGIC>MOL_PROPERTY
W(SA)
SciTegic.value.DoubleValue
1.703

@<SCITEGIC>MOL_PROPERTY
Valence
SciTegic.value.DoubleValue
6.123

@<SCITEGIC>MOL_PROPERTY
Coulomb
SciTegic.value.DoubleValue
3.449

@<SCITEGIC>MOL_PROPERTY
VdW
SciTegic.value.DoubleValue
0.209

@<SCITEGIC>MOL_PROPERTY
VdW6
SciTegic.value.DoubleValue
-3.762

@<SCITEGIC>MOL_PROPERTY
VdW12
SciTegic.value.DoubleValue
3.972

@<SCITEGIC>MOL_PROPERTY
Bond
SciTegic.value.DoubleValue
0.078

@<SCITEGIC>MOL_PROPERTY
Angle
SciTegic.value.DoubleValue
2.428

@<SCITEGIC>MOL_PROPERTY
Pdih
SciTegic.value.DoubleValue
3.616

@<SCITEGIC>MOL_PROPERTY
Idih
SciTegic.value.DoubleValue
0.002

@<SCITEGIC>MOL_PROPERTY
Tether
SciTegic.value.DoubleValue
0.000

@<TRIPOS>MOLECULE
guest-6_confgen4.mol2 : confsearch ligand conformer 388
          13          12           1
SMALL
USER_CHARGES
 
@<TRIPOS>ATOM
       1    C1      18.509867   18.200487   22.194005 C.2        1 MOL1         0.6021
       2    O1      17.712300   19.023342   22.597370 O.co2      1 MOL1        -0.6904
       3    O2      18.229696   17.335161   21.388516 O.co2      1 MOL1        -0.6904
       4    C2      19.929844   18.230906   22.753882 C.3        1 MOL1        -0.2102
       5    H1      20.187712   17.206290   23.047228 H          1 MOL1         0.0687
       6    H2      19.933298   18.833195   23.670683 H          1 MOL1         0.0687
       7    C3      20.992610   18.765526   21.759876 C.3        1 MOL1        -0.1974
       8    H3      21.993457   18.611736   22.185933 H          1 MOL1         0.0689
       9    H4      20.952429   18.181851   20.829483 H          1 MOL1         0.0689
      10    C4      20.804365   20.263681   21.443616 C.3        1 MOL1        -0.2987
      11    H5      20.863311   20.868248   22.358174 H          1 MOL1         0.0700
      12    H6      21.583166   20.614297   20.753955 H          1 MOL1         0.0700
      13    H7      19.828955   20.448456   20.974296 H          1 MOL1         0.0700
@<TRIPOS>BOND
    1     1     2    1
    2     1     3    2
    3     1     4    1
    4     4     5    1
    5     4     6    1
    6     4     7    1
    7     7     8    1
    8     7     9    1
    9     7    10    1
   10    10    11    1
   11    10    12    1
   12    10    13    1
@<TRIPOS>SUBSTRUCTURE
       1 MOL1            1 RESIDUE      1      MOL     
@<SCITEGIC>MOL_PROPERTY
VConf Rank
SciTegic.value.IntegerValue
388

@<SCITEGIC>MOL_PROPERTY
Conf_Id
SciTegic.value.IntegerValue
36

@<SCITEGIC>MOL_PROPERTY
Delta U+W
SciTegic.value.DoubleValue
0.272

@<SCITEGIC>MOL_PROPERTY
U+W
SciTegic.value.DoubleValue
-58.060

@<SCITEGIC>MOL_PROPERTY
Grad RMS
SciTegic.value.DoubleValue
0.000000

@<SCITEGIC>MOL_PROPERTY
U
SciTegic.value.DoubleValue
9.781

@<SCITEGIC>MOL_PROPERTY
W
SciTegic.value.DoubleValue
-67.841

@<SCITEGIC>MOL_PROPERTY
W(PB)
SciTegic.value.DoubleValue
-69.537

@<SCITEGIC>MOL_PROPERTY
W(SA)
SciTegic.value.DoubleValue
1.696

@<SCITEGIC>MOL_PROPERTY
Valence
SciTegic.value.DoubleValue
6.123

@<SCITEGIC>MOL_PROPERTY
Coulomb
SciTegic.value.DoubleValue
3.449

@<SCITEGIC>MOL_PROPERTY
VdW
SciTegic.value.DoubleValue
0.209

@<SCITEGIC>MOL_PROPERTY
VdW6
SciTegic.value.DoubleValue
-3.762

@<SCITEGIC>MOL_PROPERTY
VdW12
SciTegic.value.DoubleValue
3.972

@<SCITEGIC>MOL_PROPERTY
Bond
SciTegic.value.DoubleValue
0.078

@<SCITEGIC>MOL_PROPERTY
Angle
SciTegic.value.DoubleValue
2.428

@<SCITEGIC>MOL_PROPERTY
Pdih
SciTegic.value.DoubleValue
3.616

@<SCITEGIC>MOL_PROPERTY
Idih
SciTegic.value.DoubleValue
0.002

@<SCITEGIC>MOL_PROPERTY
Tether
SciTegic.value.DoubleValue
0.000

@<TRIPOS>MOLECULE
guest-6_confgen4.mol2 : confsearch ligand conformer 389
          13          12           1
SMALL
USER_CHARGES
 
@<TRIPOS>ATOM
       1    C1      21.311985   19.825308   20.335821 C.2        1 MOL1         0.6021
       2    O1      20.875789   19.275235   19.343610 O.co2      1 MOL1        -0.6904
       3    O2      22.240637   20.607230   20.304230 O.co2      1 MOL1        -0.6904
       4    C2      20.684227   19.540326   21.701613 C.3        1 MOL1        -0.2102
       5    H1      20.351090   20.499427   22.115717 H          1 MOL1         0.0687
       6    H2      21.480515   19.167849   22.356993 H          1 MOL1         0.0687
       7    C3      19.502092   18.536114   21.693053 C.3        1 MOL1        -0.1974
       8    H3      18.706462   18.909829   21.033459 H          1 MOL1         0.0689
       9    H4      19.837256   17.576626   21.274959 H          1 MOL1         0.0689
      10    C4      18.935151   18.311802   23.109420 C.3        1 MOL1        -0.2987
      11    H5      18.564386   19.252331   23.537744 H          1 MOL1         0.0700
      12    H6      18.100515   17.599094   23.083241 H          1 MOL1         0.0700
      13    H7      19.704288   17.908471   23.781191 H          1 MOL1         0.0700
@<TRIPOS>BOND
    1     1     2    1
    2     1     3    2
    3     1     4    1
    4     4     5    1
    5     4     6    1
    6     4     7    1
    7     7     8    1
    8     7     9    1
    9     7    10    1
   10    10    11    1
   11    10    12    1
   12    10    13    1
@<TRIPOS>SUBSTRUCTURE
       1 MOL1            1 RESIDUE      1      MOL     
@<SCITEGIC>MOL_PROPERTY
VConf Rank
SciTegic.value.IntegerValue
389

@<SCITEGIC>MOL_PROPERTY
Conf_Id
SciTegic.value.IntegerValue
0

@<SCITEGIC>MOL_PROPERTY
Delta U+W
SciTegic.value.DoubleValue
0.000

@<SCITEGIC>MOL_PROPERTY
U+W
SciTegic.value.DoubleValue
-58.332

@<SCITEGIC>MOL_PROPERTY
Grad RMS
SciTegic.value.DoubleValue
0.000000

@<SCITEGIC>MOL_PROPERTY
U
SciTegic.value.DoubleValue
8.390

@<SCITEGIC>MOL_PROPERTY
W
SciTegic.value.DoubleValue
-66.722

@<SCITEGIC>MOL_PROPERTY
W(PB)
SciTegic.value.DoubleValue
-68.455

@<SCITEGIC>MOL_PROPERTY
W(SA)
SciTegic.value.DoubleValue
1.733

@<SCITEGIC>MOL_PROPERTY
Valence
SciTegic.value.DoubleValue
6.333

@<SCITEGIC>MOL_PROPERTY
Coulomb
SciTegic.value.DoubleValue
1.215

@<SCITEGIC>MOL_PROPERTY
VdW
SciTegic.value.DoubleValue
0.842

@<SCITEGIC>MOL_PROPERTY
VdW6
SciTegic.value.DoubleValue
-3.344

@<SCITEGIC>MOL_PROPERTY
VdW12
SciTegic.value.DoubleValue
4.186

@<SCITEGIC>MOL_PROPERTY
Bond
SciTegic.value.DoubleValue
0.091

@<SCITEGIC>MOL_PROPERTY
Angle
SciTegic.value.DoubleValue
2.713

@<SCITEGIC>MOL_PROPERTY
Pdih
SciTegic.value.DoubleValue
3.529

@<SCITEGIC>MOL_PROPERTY
Idih
SciTegic.value.DoubleValue
0.000

@<SCITEGIC>MOL_PROPERTY
Tether
SciTegic.value.DoubleValue
0.000

@<TRIPOS>MOLECULE
guest-6_confgen4.mol2 : confsearch ligand conformer 390
          13          12           1
SMALL
USER_CHARGES
 
@<TRIPOS>ATOM
       1    C1      19.995567   18.920313   19.723453 C.2        1 MOL1         0.6021
       2    O1      18.991986   19.313756   19.163642 O.co2      1 MOL1        -0.6904
       3    O2      20.763612   18.115080   19.236558 O.co2      1 MOL1        -0.6904
       4    C2      20.297591   19.451686   21.120565 C.3        1 MOL1        -0.2102
       5    H1      19.925894   20.481791   21.181766 H          1 MOL1         0.0687
       6    H2      21.386887   19.493309   21.241887 H          1 MOL1         0.0687
       7    C3      19.669140   18.591092   22.243185 C.3        1 MOL1        -0.1974
       8    H3      18.579587   18.548388   22.105811 H          1 MOL1         0.0689
       9    H4      20.040950   17.559770   22.166019 H          1 MOL1         0.0689
      10    C4      19.992391   19.154105   23.641689 C.3        1 MOL1        -0.2987
      11    H5      19.538785   18.531180   24.423653 H          1 MOL1         0.0700
      12    H6      21.076447   19.178745   23.814231 H          1 MOL1         0.0700
      13    H7      19.603840   20.174923   23.753564 H          1 MOL1         0.0700
@<TRIPOS>BOND
    1     1     2    1
    2     1     3    2
    3     1     4    1
    4     4     5    1
    5     4     6    1
    6     4     7    1
    7     7     8    1
    8     7     9    1
    9     7    10    1
   10    10    11    1
   11    10    12    1
   12    10    13    1
@<TRIPOS>SUBSTRUCTURE
       1 MOL1            1 RESIDUE      1      MOL     
@<SCITEGIC>MOL_PROPERTY
VConf Rank
SciTegic.value.IntegerValue
390

@<SCITEGIC>MOL_PROPERTY
Conf_Id
SciTegic.value.IntegerValue
1

@<SCITEGIC>MOL_PROPERTY
Delta U+W
SciTegic.value.DoubleValue
-1.339

@<SCITEGIC>MOL_PROPERTY
U+W
SciTegic.value.DoubleValue
-59.672

@<SCITEGIC>MOL_PROPERTY
Grad RMS
SciTegic.value.DoubleValue
0.000000

@<SCITEGIC>MOL_PROPERTY
U
SciTegic.value.DoubleValue
7.389

@<SCITEGIC>MOL_PROPERTY
W
SciTegic.value.DoubleValue
-67.061

@<SCITEGIC>MOL_PROPERTY
W(PB)
SciTegic.value.DoubleValue
-68.767

@<SCITEGIC>MOL_PROPERTY
W(SA)
SciTegic.value.DoubleValue
1.707

@<SCITEGIC>MOL_PROPERTY
Valence
SciTegic.value.DoubleValue
5.822

@<SCITEGIC>MOL_PROPERTY
Coulomb
SciTegic.value.DoubleValue
1.255

@<SCITEGIC>MOL_PROPERTY
VdW
SciTegic.value.DoubleValue
0.312

@<SCITEGIC>MOL_PROPERTY
VdW6
SciTegic.value.DoubleValue
-3.061

@<SCITEGIC>MOL_PROPERTY
VdW12
SciTegic.value.DoubleValue
3.372

@<SCITEGIC>MOL_PROPERTY
Bond
SciTegic.value.DoubleValue
0.059

@<SCITEGIC>MOL_PROPERTY
Angle
SciTegic.value.DoubleValue
2.241

@<SCITEGIC>MOL_PROPERTY
Pdih
SciTegic.value.DoubleValue
3.522

@<SCITEGIC>MOL_PROPERTY
Idih
SciTegic.value.DoubleValue
0.000

@<SCITEGIC>MOL_PROPERTY
Tether
SciTegic.value.DoubleValue
0.000

@<TRIPOS>MOLECULE
guest-6_confgen4.mol2 : confsearch ligand conformer 391
          13          12           1
SMALL
USER_CHARGES
 
@<TRIPOS>ATOM
       1    C1      18.582935   18.232402   21.457191 C.2        1 MOL1         0.6021
       2    O1      17.720972   18.117888   22.305722 O.co2      1 MOL1        -0.6904
       3    O2      18.354063   18.561807   20.310450 O.co2      1 MOL1        -0.6904
       4    C2      20.023684   17.910130   21.845920 C.3        1 MOL1        -0.2102
       5    H1      20.606843   17.748758   20.930950 H          1 MOL1         0.0687
       6    H2      20.011069   16.955768   22.385755 H          1 MOL1         0.0687
       7    C3      20.700469   18.991677   22.726578 C.3        1 MOL1        -0.1974
       8    H3      20.087084   19.175221   23.619882 H          1 MOL1         0.0689
       9    H4      21.668857   18.612936   23.081054 H          1 MOL1         0.0689
      10    C4      20.924618   20.315814   21.967402 C.3        1 MOL1        -0.2987
      11    H5      19.970704   20.746994   21.635803 H          1 MOL1         0.0700
      12    H6      21.422351   21.051862   22.612066 H          1 MOL1         0.0700
      13    H7      21.554535   20.158753   21.082004 H          1 MOL1         0.0700
@<TRIPOS>BOND
    1     1     2    1
    2     1     3    2
    3     1     4    1
    4     4     5    1
    5     4     6    1
    6     4     7    1
    7     7     8    1
    8     7     9    1
    9     7    10    1
   10    10    11    1
   11    10    12    1
   12    10    13    1
@<TRIPOS>SUBSTRUCTURE
       1 MOL1            1 RESIDUE      1      MOL     
@<SCITEGIC>MOL_PROPERTY
VConf Rank
SciTegic.value.IntegerValue
391

@<SCITEGIC>MOL_PROPERTY
Conf_Id
SciTegic.value.IntegerValue
4

@<SCITEGIC>MOL_PROPERTY
Delta U+W
SciTegic.value.DoubleValue
0.281

@<SCITEGIC>MOL_PROPERTY
U+W
SciTegic.value.DoubleValue
-58.051

@<SCITEGIC>MOL_PROPERTY
Grad RMS
SciTegic.value.DoubleValue
0.000000

@<SCITEGIC>MOL_PROPERTY
U
SciTegic.value.DoubleValue
9.781

@<SCITEGIC>MOL_PROPERTY
W
SciTegic.value.DoubleValue
-67.832

@<SCITEGIC>MOL_PROPERTY
W(PB)
SciTegic.value.DoubleValue
-69.535

@<SCITEGIC>MOL_PROPERTY
W(SA)
SciTegic.value.DoubleValue
1.703

@<SCITEGIC>MOL_PROPERTY
Valence
SciTegic.value.DoubleValue
6.123

@<SCITEGIC>MOL_PROPERTY
Coulomb
SciTegic.value.DoubleValue
3.449

@<SCITEGIC>MOL_PROPERTY
VdW
SciTegic.value.DoubleValue
0.209

@<SCITEGIC>MOL_PROPERTY
VdW6
SciTegic.value.DoubleValue
-3.762

@<SCITEGIC>MOL_PROPERTY
VdW12
SciTegic.value.DoubleValue
3.972

@<SCITEGIC>MOL_PROPERTY
Bond
SciTegic.value.DoubleValue
0.078

@<SCITEGIC>MOL_PROPERTY
Angle
SciTegic.value.DoubleValue
2.428

@<SCITEGIC>MOL_PROPERTY
Pdih
SciTegic.value.DoubleValue
3.616

@<SCITEGIC>MOL_PROPERTY
Idih
SciTegic.value.DoubleValue
0.002

@<SCITEGIC>MOL_PROPERTY
Tether
SciTegic.value.DoubleValue
0.000

@<TRIPOS>MOLECULE
guest-6_confgen4.mol2 : confsearch ligand conformer 392
          13          12           1
SMALL
USER_CHARGES
 
@<TRIPOS>ATOM
       1    C1      21.376323   19.890428   22.876414 C.2        1 MOL1         0.6021
       2    O1      21.929743   20.655295   22.111816 O.co2      1 MOL1        -0.6904
       3    O2      21.126147   20.164385   24.033331 O.co2      1 MOL1        -0.6904
       4    C2      21.006959   18.498467   22.369719 C.3        1 MOL1        -0.2102
       5    H1      21.356490   17.775322   23.116228 H          1 MOL1         0.0687
       6    H2      21.568462   18.299303   21.448669 H          1 MOL1         0.0687
       7    C3      19.489846   18.294145   22.124858 C.3        1 MOL1        -0.1974
       8    H3      19.299457   17.233568   21.910847 H          1 MOL1         0.0689
       9    H4      18.933579   18.536110   23.041342 H          1 MOL1         0.0689
      10    C4      18.960688   19.147416   20.953599 C.3        1 MOL1        -0.2987
      11    H5      19.488553   18.905310   20.021862 H          1 MOL1         0.0700
      12    H6      17.889973   18.964648   20.794663 H          1 MOL1         0.0700
      13    H7      19.094790   20.218777   21.153670 H          1 MOL1         0.0700
@<TRIPOS>BOND
    1     1     2    1
    2     1     3    2
    3     1     4    1
    4     4     5    1
    5     4     6    1
    6     4     7    1
    7     7     8    1
    8     7     9    1
    9     7    10    1
   10    10    11    1
   11    10    12    1
   12    10    13    1
@<TRIPOS>SUBSTRUCTURE
       1 MOL1            1 RESIDUE      1      MOL     
@<SCITEGIC>MOL_PROPERTY
VConf Rank
SciTegic.value.IntegerValue
392

@<SCITEGIC>MOL_PROPERTY
Conf_Id
SciTegic.value.IntegerValue
36

@<SCITEGIC>MOL_PROPERTY
Delta U+W
SciTegic.value.DoubleValue
0.272

@<SCITEGIC>MOL_PROPERTY
U+W
SciTegic.value.DoubleValue
-58.060

@<SCITEGIC>MOL_PROPERTY
Grad RMS
SciTegic.value.DoubleValue
0.000000

@<SCITEGIC>MOL_PROPERTY
U
SciTegic.value.DoubleValue
9.781

@<SCITEGIC>MOL_PROPERTY
W
SciTegic.value.DoubleValue
-67.841

@<SCITEGIC>MOL_PROPERTY
W(PB)
SciTegic.value.DoubleValue
-69.537

@<SCITEGIC>MOL_PROPERTY
W(SA)
SciTegic.value.DoubleValue
1.696

@<SCITEGIC>MOL_PROPERTY
Valence
SciTegic.value.DoubleValue
6.123

@<SCITEGIC>MOL_PROPERTY
Coulomb
SciTegic.value.DoubleValue
3.449

@<SCITEGIC>MOL_PROPERTY
VdW
SciTegic.value.DoubleValue
0.209

@<SCITEGIC>MOL_PROPERTY
VdW6
SciTegic.value.DoubleValue
-3.762

@<SCITEGIC>MOL_PROPERTY
VdW12
SciTegic.value.DoubleValue
3.972

@<SCITEGIC>MOL_PROPERTY
Bond
SciTegic.value.DoubleValue
0.078

@<SCITEGIC>MOL_PROPERTY
Angle
SciTegic.value.DoubleValue
2.428

@<SCITEGIC>MOL_PROPERTY
Pdih
SciTegic.value.DoubleValue
3.616

@<SCITEGIC>MOL_PROPERTY
Idih
SciTegic.value.DoubleValue
0.002

@<SCITEGIC>MOL_PROPERTY
Tether
SciTegic.value.DoubleValue
0.000

@<TRIPOS>MOLECULE
guest-6_confgen4.mol2 : confsearch ligand conformer 393
          13          12           1
SMALL
USER_CHARGES
 
@<TRIPOS>ATOM
       1    C1      20.251412   17.193114   20.712805 C.2        1 MOL1         0.6021
       2    O1      19.553797   17.442407   19.749211 O.co2      1 MOL1        -0.6904
       3    O2      20.846674   16.142800   20.844338 O.co2      1 MOL1        -0.6904
       4    C2      20.406653   18.229025   21.827915 C.3        1 MOL1        -0.2102
       5    H1      21.477396   18.441744   21.930867 H          1 MOL1         0.0687
       6    H2      20.082938   17.755552   22.762457 H          1 MOL1         0.0687
       7    C3      19.628660   19.554210   21.616804 C.3        1 MOL1        -0.1974
       8    H3      19.952441   20.025601   20.678341 H          1 MOL1         0.0689
       9    H4      18.556266   19.338559   21.510877 H          1 MOL1         0.0689
      10    C4      19.844647   20.534116   22.787688 C.3        1 MOL1        -0.2987
      11    H5      20.906947   20.790114   22.894955 H          1 MOL1         0.0700
      12    H6      19.286956   21.464881   22.620610 H          1 MOL1         0.0700
      13    H7      19.499604   20.097521   23.734183 H          1 MOL1         0.0700
@<TRIPOS>BOND
    1     1     2    1
    2     1     3    2
    3     1     4    1
    4     4     5    1
    5     4     6    1
    6     4     7    1
    7     7     8    1
    8     7     9    1
    9     7    10    1
   10    10    11    1
   11    10    12    1
   12    10    13    1
@<TRIPOS>SUBSTRUCTURE
       1 MOL1            1 RESIDUE      1      MOL     
@<SCITEGIC>MOL_PROPERTY
VConf Rank
SciTegic.value.IntegerValue
393

@<SCITEGIC>MOL_PROPERTY
Conf_Id
SciTegic.value.IntegerValue
0

@<SCITEGIC>MOL_PROPERTY
Delta U+W
SciTegic.value.DoubleValue
0.000

@<SCITEGIC>MOL_PROPERTY
U+W
SciTegic.value.DoubleValue
-58.332

@<SCITEGIC>MOL_PROPERTY
Grad RMS
SciTegic.value.DoubleValue
0.000000

@<SCITEGIC>MOL_PROPERTY
U
SciTegic.value.DoubleValue
8.390

@<SCITEGIC>MOL_PROPERTY
W
SciTegic.value.DoubleValue
-66.722

@<SCITEGIC>MOL_PROPERTY
W(PB)
SciTegic.value.DoubleValue
-68.455

@<SCITEGIC>MOL_PROPERTY
W(SA)
SciTegic.value.DoubleValue
1.733

@<SCITEGIC>MOL_PROPERTY
Valence
SciTegic.value.DoubleValue
6.333

@<SCITEGIC>MOL_PROPERTY
Coulomb
SciTegic.value.DoubleValue
1.215

@<SCITEGIC>MOL_PROPERTY
VdW
SciTegic.value.DoubleValue
0.842

@<SCITEGIC>MOL_PROPERTY
VdW6
SciTegic.value.DoubleValue
-3.344

@<SCITEGIC>MOL_PROPERTY
VdW12
SciTegic.value.DoubleValue
4.186

@<SCITEGIC>MOL_PROPERTY
Bond
SciTegic.value.DoubleValue
0.091

@<SCITEGIC>MOL_PROPERTY
Angle
SciTegic.value.DoubleValue
2.713

@<SCITEGIC>MOL_PROPERTY
Pdih
SciTegic.value.DoubleValue
3.529

@<SCITEGIC>MOL_PROPERTY
Idih
SciTegic.value.DoubleValue
0.000

@<SCITEGIC>MOL_PROPERTY
Tether
SciTegic.value.DoubleValue
0.000

@<TRIPOS>MOLECULE
guest-6_confgen4.mol2 : confsearch ligand conformer 394
          13          12           1
SMALL
USER_CHARGES
 
@<TRIPOS>ATOM
       1    C1      19.621462   17.072382   21.157403 C.2        1 MOL1         0.6021
       2    O1      19.895130   16.181132   21.935953 O.co2      1 MOL1        -0.6904
       3    O2      19.575735   16.920831   19.953118 O.co2      1 MOL1        -0.6904
       4    C2      19.338490   18.460848   21.720952 C.3        1 MOL1        -0.2102
       5    H1      18.868125   18.340745   22.704492 H          1 MOL1         0.0687
       6    H2      18.604716   18.950735   21.069334 H          1 MOL1         0.0687
       7    C3      20.610460   19.334518   21.841960 C.3        1 MOL1        -0.1974
       8    H3      21.341759   18.829558   22.488519 H          1 MOL1         0.0689
       9    H4      21.078218   19.439765   20.853047 H          1 MOL1         0.0689
      10    C4      20.291060   20.730172   22.414168 C.3        1 MOL1        -0.2987
      11    H5      21.204373   21.334325   22.492390 H          1 MOL1         0.0700
      12    H6      19.583772   21.267010   21.768332 H          1 MOL1         0.0700
      13    H7      19.849376   20.652114   23.416355 H          1 MOL1         0.0700
@<TRIPOS>BOND
    1     1     2    1
    2     1     3    2
    3     1     4    1
    4     4     5    1
    5     4     6    1
    6     4     7    1
    7     7     8    1
    8     7     9    1
    9     7    10    1
   10    10    11    1
   11    10    12    1
   12    10    13    1
@<TRIPOS>SUBSTRUCTURE
       1 MOL1            1 RESIDUE      1      MOL     
@<SCITEGIC>MOL_PROPERTY
VConf Rank
SciTegic.value.IntegerValue
394

@<SCITEGIC>MOL_PROPERTY
Conf_Id
SciTegic.value.IntegerValue
1

@<SCITEGIC>MOL_PROPERTY
Delta U+W
SciTegic.value.DoubleValue
-1.339

@<SCITEGIC>MOL_PROPERTY
U+W
SciTegic.value.DoubleValue
-59.672

@<SCITEGIC>MOL_PROPERTY
Grad RMS
SciTegic.value.DoubleValue
0.000000

@<SCITEGIC>MOL_PROPERTY
U
SciTegic.value.DoubleValue
7.389

@<SCITEGIC>MOL_PROPERTY
W
SciTegic.value.DoubleValue
-67.061

@<SCITEGIC>MOL_PROPERTY
W(PB)
SciTegic.value.DoubleValue
-68.767

@<SCITEGIC>MOL_PROPERTY
W(SA)
SciTegic.value.DoubleValue
1.707

@<SCITEGIC>MOL_PROPERTY
Valence
SciTegic.value.DoubleValue
5.822

@<SCITEGIC>MOL_PROPERTY
Coulomb
SciTegic.value.DoubleValue
1.255

@<SCITEGIC>MOL_PROPERTY
VdW
SciTegic.value.DoubleValue
0.312

@<SCITEGIC>MOL_PROPERTY
VdW6
SciTegic.value.DoubleValue
-3.061

@<SCITEGIC>MOL_PROPERTY
VdW12
SciTegic.value.DoubleValue
3.372

@<SCITEGIC>MOL_PROPERTY
Bond
SciTegic.value.DoubleValue
0.059

@<SCITEGIC>MOL_PROPERTY
Angle
SciTegic.value.DoubleValue
2.241

@<SCITEGIC>MOL_PROPERTY
Pdih
SciTegic.value.DoubleValue
3.522

@<SCITEGIC>MOL_PROPERTY
Idih
SciTegic.value.DoubleValue
0.000

@<SCITEGIC>MOL_PROPERTY
Tether
SciTegic.value.DoubleValue
0.000

@<TRIPOS>MOLECULE
guest-6_confgen4.mol2 : confsearch ligand conformer 395
          13          12           1
SMALL
USER_CHARGES
 
@<TRIPOS>ATOM
       1    C1      21.340954   19.165824   23.298345 C.2        1 MOL1         0.6021
       2    O1      21.962212   18.167549   23.604259 O.co2      1 MOL1        -0.6904
       3    O2      21.842635   20.269660   23.222411 O.co2      1 MOL1        -0.6904
       4    C2      19.844149   19.028962   23.030814 C.3        1 MOL1        -0.2102
       5    H1      19.384500   20.023294   23.088390 H          1 MOL1         0.0687
       6    H2      19.418641   18.435629   23.848912 H          1 MOL1         0.0687
       7    C3      19.500322   18.359531   21.675460 C.3        1 MOL1        -0.1974
       8    H3      19.999135   17.382317   21.610971 H          1 MOL1         0.0689
       9    H4      18.419790   18.165680   21.633662 H          1 MOL1         0.0689
      10    C4      19.903032   19.230775   20.467698 C.3        1 MOL1        -0.2987
      11    H5      20.986599   19.408233   20.452884 H          1 MOL1         0.0700
      12    H6      19.628367   18.737569   19.526208 H          1 MOL1         0.0700
      13    H7      19.397846   20.204985   20.500762 H          1 MOL1         0.0700
@<TRIPOS>BOND
    1     1     2    1
    2     1     3    2
    3     1     4    1
    4     4     5    1
    5     4     6    1
    6     4     7    1
    7     7     8    1
    8     7     9    1
    9     7    10    1
   10    10    11    1
   11    10    12    1
   12    10    13    1
@<TRIPOS>SUBSTRUCTURE
       1 MOL1            1 RESIDUE      1      MOL     
@<SCITEGIC>MOL_PROPERTY
VConf Rank
SciTegic.value.IntegerValue
395

@<SCITEGIC>MOL_PROPERTY
Conf_Id
SciTegic.value.IntegerValue
4

@<SCITEGIC>MOL_PROPERTY
Delta U+W
SciTegic.value.DoubleValue
0.281

@<SCITEGIC>MOL_PROPERTY
U+W
SciTegic.value.DoubleValue
-58.051

@<SCITEGIC>MOL_PROPERTY
Grad RMS
SciTegic.value.DoubleValue
0.000000

@<SCITEGIC>MOL_PROPERTY
U
SciTegic.value.DoubleValue
9.781

@<SCITEGIC>MOL_PROPERTY
W
SciTegic.value.DoubleValue
-67.832

@<SCITEGIC>MOL_PROPERTY
W(PB)
SciTegic.value.DoubleValue
-69.535

@<SCITEGIC>MOL_PROPERTY
W(SA)
SciTegic.value.DoubleValue
1.703

@<SCITEGIC>MOL_PROPERTY
Valence
SciTegic.value.DoubleValue
6.123

@<SCITEGIC>MOL_PROPERTY
Coulomb
SciTegic.value.DoubleValue
3.449

@<SCITEGIC>MOL_PROPERTY
VdW
SciTegic.value.DoubleValue
0.209

@<SCITEGIC>MOL_PROPERTY
VdW6
SciTegic.value.DoubleValue
-3.762

@<SCITEGIC>MOL_PROPERTY
VdW12
SciTegic.value.DoubleValue
3.972

@<SCITEGIC>MOL_PROPERTY
Bond
SciTegic.value.DoubleValue
0.078

@<SCITEGIC>MOL_PROPERTY
Angle
SciTegic.value.DoubleValue
2.428

@<SCITEGIC>MOL_PROPERTY
Pdih
SciTegic.value.DoubleValue
3.616

@<SCITEGIC>MOL_PROPERTY
Idih
SciTegic.value.DoubleValue
0.002

@<SCITEGIC>MOL_PROPERTY
Tether
SciTegic.value.DoubleValue
0.000

@<TRIPOS>MOLECULE
guest-6_confgen4.mol2 : confsearch ligand conformer 396
          13          12           1
SMALL
USER_CHARGES
 
@<TRIPOS>ATOM
       1    C1      19.350937   19.554440   20.486744 C.2        1 MOL1         0.6021
       2    O1      18.155722   19.685366   20.660600 O.co2      1 MOL1        -0.6904
       3    O2      20.016516   20.313999   19.811339 O.co2      1 MOL1        -0.6904
       4    C2      20.049086   18.353303   21.119659 C.3        1 MOL1        -0.2102
       5    H1      20.663003   17.884427   20.341426 H          1 MOL1         0.0687
       6    H2      19.288901   17.617517   21.409530 H          1 MOL1         0.0687
       7    C3      20.941474   18.706857   22.337026 C.3        1 MOL1        -0.1974
       8    H3      21.516958   17.818601   22.631460 H          1 MOL1         0.0689
       9    H4      21.672338   19.474582   22.046582 H          1 MOL1         0.0689
      10    C4      20.121167   19.199676   23.547048 C.3        1 MOL1        -0.2987
      11    H5      19.398858   18.437688   23.868040 H          1 MOL1         0.0700
      12    H6      20.780139   19.422128   24.396381 H          1 MOL1         0.0700
      13    H7      19.565912   20.114590   23.301183 H          1 MOL1         0.0700
@<TRIPOS>BOND
    1     1     2    1
    2     1     3    2
    3     1     4    1
    4     4     5    1
    5     4     6    1
    6     4     7    1
    7     7     8    1
    8     7     9    1
    9     7    10    1
   10    10    11    1
   11    10    12    1
   12    10    13    1
@<TRIPOS>SUBSTRUCTURE
       1 MOL1            1 RESIDUE      1      MOL     
@<SCITEGIC>MOL_PROPERTY
VConf Rank
SciTegic.value.IntegerValue
396

@<SCITEGIC>MOL_PROPERTY
Conf_Id
SciTegic.value.IntegerValue
36

@<SCITEGIC>MOL_PROPERTY
Delta U+W
SciTegic.value.DoubleValue
0.272

@<SCITEGIC>MOL_PROPERTY
U+W
SciTegic.value.DoubleValue
-58.060

@<SCITEGIC>MOL_PROPERTY
Grad RMS
SciTegic.value.DoubleValue
0.000000

@<SCITEGIC>MOL_PROPERTY
U
SciTegic.value.DoubleValue
9.781

@<SCITEGIC>MOL_PROPERTY
W
SciTegic.value.DoubleValue
-67.841

@<SCITEGIC>MOL_PROPERTY
W(PB)
SciTegic.value.DoubleValue
-69.537

@<SCITEGIC>MOL_PROPERTY
W(SA)
SciTegic.value.DoubleValue
1.696

@<SCITEGIC>MOL_PROPERTY
Valence
SciTegic.value.DoubleValue
6.123

@<SCITEGIC>MOL_PROPERTY
Coulomb
SciTegic.value.DoubleValue
3.449

@<SCITEGIC>MOL_PROPERTY
VdW
SciTegic.value.DoubleValue
0.209

@<SCITEGIC>MOL_PROPERTY
VdW6
SciTegic.value.DoubleValue
-3.762

@<SCITEGIC>MOL_PROPERTY
VdW12
SciTegic.value.DoubleValue
3.972

@<SCITEGIC>MOL_PROPERTY
Bond
SciTegic.value.DoubleValue
0.078

@<SCITEGIC>MOL_PROPERTY
Angle
SciTegic.value.DoubleValue
2.428

@<SCITEGIC>MOL_PROPERTY
Pdih
SciTegic.value.DoubleValue
3.616

@<SCITEGIC>MOL_PROPERTY
Idih
SciTegic.value.DoubleValue
0.002

@<SCITEGIC>MOL_PROPERTY
Tether
SciTegic.value.DoubleValue
0.000

@<TRIPOS>MOLECULE
guest-6_confgen4.mol2 : confsearch ligand conformer 397
          13          12           1
SMALL
USER_CHARGES
 
@<TRIPOS>ATOM
       1    C1      19.910776   21.130292   21.809903 C.2        1 MOL1         0.6021
       2    O1      19.652158   21.337544   22.979301 O.co2      1 MOL1        -0.6904
       3    O2      20.035880   22.019708   20.992539 O.co2      1 MOL1        -0.6904
       4    C2      20.092650   19.694447   21.313966 C.3        1 MOL1        -0.2102
       5    H1      21.092468   19.625576   20.869040 H          1 MOL1         0.0687
       6    H2      19.370322   19.533207   20.504905 H          1 MOL1         0.0687
       7    C3      19.923716   18.592527   22.392480 C.3        1 MOL1        -0.1974
       8    H3      20.646497   18.757617   23.203706 H          1 MOL1         0.0689
       9    H4      18.922250   18.665180   22.839182 H          1 MOL1         0.0689
      10    C4      20.124152   17.182216   21.801986 C.3        1 MOL1        -0.2987
      11    H5      21.130370   17.073890   21.376175 H          1 MOL1         0.0700
      12    H6      20.000850   16.416696   22.579182 H          1 MOL1         0.0700
      13    H7      19.392303   16.980743   21.008685 H          1 MOL1         0.0700
@<TRIPOS>BOND
    1     1     2    1
    2     1     3    2
    3     1     4    1
    4     4     5    1
    5     4     6    1
    6     4     7    1
    7     7     8    1
    8     7     9    1
    9     7    10    1
   10    10    11    1
   11    10    12    1
   12    10    13    1
@<TRIPOS>SUBSTRUCTURE
       1 MOL1            1 RESIDUE      1      MOL     
@<SCITEGIC>MOL_PROPERTY
VConf Rank
SciTegic.value.IntegerValue
397

@<SCITEGIC>MOL_PROPERTY
Conf_Id
SciTegic.value.IntegerValue
0

@<SCITEGIC>MOL_PROPERTY
Delta U+W
SciTegic.value.DoubleValue
0.000

@<SCITEGIC>MOL_PROPERTY
U+W
SciTegic.value.DoubleValue
-58.332

@<SCITEGIC>MOL_PROPERTY
Grad RMS
SciTegic.value.DoubleValue
0.000000

@<SCITEGIC>MOL_PROPERTY
U
SciTegic.value.DoubleValue
8.390

@<SCITEGIC>MOL_PROPERTY
W
SciTegic.value.DoubleValue
-66.722

@<SCITEGIC>MOL_PROPERTY
W(PB)
SciTegic.value.DoubleValue
-68.455

@<SCITEGIC>MOL_PROPERTY
W(SA)
SciTegic.value.DoubleValue
1.733

@<SCITEGIC>MOL_PROPERTY
Valence
SciTegic.value.DoubleValue
6.333

@<SCITEGIC>MOL_PROPERTY
Coulomb
SciTegic.value.DoubleValue
1.215

@<SCITEGIC>MOL_PROPERTY
VdW
SciTegic.value.DoubleValue
0.842

@<SCITEGIC>MOL_PROPERTY
VdW6
SciTegic.value.DoubleValue
-3.344

@<SCITEGIC>MOL_PROPERTY
VdW12
SciTegic.value.DoubleValue
4.186

@<SCITEGIC>MOL_PROPERTY
Bond
SciTegic.value.DoubleValue
0.091

@<SCITEGIC>MOL_PROPERTY
Angle
SciTegic.value.DoubleValue
2.713

@<SCITEGIC>MOL_PROPERTY
Pdih
SciTegic.value.DoubleValue
3.529

@<SCITEGIC>MOL_PROPERTY
Idih
SciTegic.value.DoubleValue
0.000

@<SCITEGIC>MOL_PROPERTY
Tether
SciTegic.value.DoubleValue
0.000

@<TRIPOS>MOLECULE
guest-6_confgen4.mol2 : confsearch ligand conformer 398
          13          12           1
SMALL
USER_CHARGES
 
@<TRIPOS>ATOM
       1    C1      18.128794   18.064367   21.614604 C.2        1 MOL1         0.6021
       2    O1      17.860510   17.232261   22.457803 O.co2      1 MOL1        -0.6904
       3    O2      17.653457   18.064441   20.496832 O.co2      1 MOL1        -0.6904
       4    C2      19.130684   19.156912   21.972461 C.3        1 MOL1        -0.2102
       5    H1      19.025652   19.379659   23.041278 H          1 MOL1         0.0687
       6    H2      18.854887   20.065931   21.424156 H          1 MOL1         0.0687
       7    C3      20.593087   18.764291   21.651406 C.3        1 MOL1        -0.1974
       8    H3      20.854871   17.847534   22.198074 H          1 MOL1         0.0689
       9    H4      20.684097   18.534064   20.580642 H          1 MOL1         0.0689
      10    C4      21.580135   19.888529   22.024390 C.3        1 MOL1        -0.2987
      11    H5      22.610752   19.591903   21.789649 H          1 MOL1         0.0700
      12    H6      21.356822   20.808039   21.467445 H          1 MOL1         0.0700
      13    H7      21.528928   20.116205   23.097282 H          1 MOL1         0.0700
@<TRIPOS>BOND
    1     1     2    1
    2     1     3    2
    3     1     4    1
    4     4     5    1
    5     4     6    1
    6     4     7    1
    7     7     8    1
    8     7     9    1
    9     7    10    1
   10    10    11    1
   11    10    12    1
   12    10    13    1
@<TRIPOS>SUBSTRUCTURE
       1 MOL1            1 RESIDUE      1      MOL     
@<SCITEGIC>MOL_PROPERTY
VConf Rank
SciTegic.value.IntegerValue
398

@<SCITEGIC>MOL_PROPERTY
Conf_Id
SciTegic.value.IntegerValue
1

@<SCITEGIC>MOL_PROPERTY
Delta U+W
SciTegic.value.DoubleValue
-1.339

@<SCITEGIC>MOL_PROPERTY
U+W
SciTegic.value.DoubleValue
-59.672

@<SCITEGIC>MOL_PROPERTY
Grad RMS
SciTegic.value.DoubleValue
0.000000

@<SCITEGIC>MOL_PROPERTY
U
SciTegic.value.DoubleValue
7.389

@<SCITEGIC>MOL_PROPERTY
W
SciTegic.value.DoubleValue
-67.061

@<SCITEGIC>MOL_PROPERTY
W(PB)
SciTegic.value.DoubleValue
-68.767

@<SCITEGIC>MOL_PROPERTY
W(SA)
SciTegic.value.DoubleValue
1.707

@<SCITEGIC>MOL_PROPERTY
Valence
SciTegic.value.DoubleValue
5.822

@<SCITEGIC>MOL_PROPERTY
Coulomb
SciTegic.value.DoubleValue
1.255

@<SCITEGIC>MOL_PROPERTY
VdW
SciTegic.value.DoubleValue
0.312

@<SCITEGIC>MOL_PROPERTY
VdW6
SciTegic.value.DoubleValue
-3.061

@<SCITEGIC>MOL_PROPERTY
VdW12
SciTegic.value.DoubleValue
3.372

@<SCITEGIC>MOL_PROPERTY
Bond
SciTegic.value.DoubleValue
0.059

@<SCITEGIC>MOL_PROPERTY
Angle
SciTegic.value.DoubleValue
2.241

@<SCITEGIC>MOL_PROPERTY
Pdih
SciTegic.value.DoubleValue
3.522

@<SCITEGIC>MOL_PROPERTY
Idih
SciTegic.value.DoubleValue
0.000

@<SCITEGIC>MOL_PROPERTY
Tether
SciTegic.value.DoubleValue
0.000

@<TRIPOS>MOLECULE
guest-6_confgen4.mol2 : confsearch ligand conformer 399
          13          12           1
SMALL
USER_CHARGES
 
@<TRIPOS>ATOM
       1    C1      19.996079   20.618871   21.313115 C.2        1 MOL1         0.6021
       2    O1      18.916146   20.918948   20.844289 O.co2      1 MOL1        -0.6904
       3    O2      20.679326   21.383916   21.964102 O.co2      1 MOL1        -0.6904
       4    C2      20.536595   19.217856   21.037929 C.3        1 MOL1        -0.2102
       5    H1      21.615023   19.211568   21.238529 H          1 MOL1         0.0687
       6    H2      20.412885   19.024391   19.965710 H          1 MOL1         0.0687
       7    C3      19.836294   18.096980   21.848210 C.3        1 MOL1        -0.1974
       8    H3      18.752217   18.138454   21.672201 H          1 MOL1         0.0689
       9    H4      20.178509   17.119837   21.480849 H          1 MOL1         0.0689
      10    C4      20.122661   18.195061   23.360924 C.3        1 MOL1        -0.2987
      11    H5      19.752729   19.143767   23.771941 H          1 MOL1         0.0700
      12    H6      19.629328   17.377073   23.901863 H          1 MOL1         0.0700
      13    H7      21.200390   18.133286   23.561114 H          1 MOL1         0.0700
@<TRIPOS>BOND
    1     1     2    1
    2     1     3    2
    3     1     4    1
    4     4     5    1
    5     4     6    1
    6     4     7    1
    7     7     8    1
    8     7     9    1
    9     7    10    1
   10    10    11    1
   11    10    12    1
   12    10    13    1
@<TRIPOS>SUBSTRUCTURE
       1 MOL1            1 RESIDUE      1      MOL     
@<SCITEGIC>MOL_PROPERTY
VConf Rank
SciTegic.value.IntegerValue
399

@<SCITEGIC>MOL_PROPERTY
Conf_Id
SciTegic.value.IntegerValue
4

@<SCITEGIC>MOL_PROPERTY
Delta U+W
SciTegic.value.DoubleValue
0.281

@<SCITEGIC>MOL_PROPERTY
U+W
SciTegic.value.DoubleValue
-58.051

@<SCITEGIC>MOL_PROPERTY
Grad RMS
SciTegic.value.DoubleValue
0.000000

@<SCITEGIC>MOL_PROPERTY
U
SciTegic.value.DoubleValue
9.781

@<SCITEGIC>MOL_PROPERTY
W
SciTegic.value.DoubleValue
-67.832

@<SCITEGIC>MOL_PROPERTY
W(PB)
SciTegic.value.DoubleValue
-69.535

@<SCITEGIC>MOL_PROPERTY
W(SA)
SciTegic.value.DoubleValue
1.703

@<SCITEGIC>MOL_PROPERTY
Valence
SciTegic.value.DoubleValue
6.123

@<SCITEGIC>MOL_PROPERTY
Coulomb
SciTegic.value.DoubleValue
3.449

@<SCITEGIC>MOL_PROPERTY
VdW
SciTegic.value.DoubleValue
0.209

@<SCITEGIC>MOL_PROPERTY
VdW6
SciTegic.value.DoubleValue
-3.762

@<SCITEGIC>MOL_PROPERTY
VdW12
SciTegic.value.DoubleValue
3.972

@<SCITEGIC>MOL_PROPERTY
Bond
SciTegic.value.DoubleValue
0.078

@<SCITEGIC>MOL_PROPERTY
Angle
SciTegic.value.DoubleValue
2.428

@<SCITEGIC>MOL_PROPERTY
Pdih
SciTegic.value.DoubleValue
3.616

@<SCITEGIC>MOL_PROPERTY
Idih
SciTegic.value.DoubleValue
0.002

@<SCITEGIC>MOL_PROPERTY
Tether
SciTegic.value.DoubleValue
0.000

@<TRIPOS>MOLECULE
guest-6_confgen4.mol2 : confsearch ligand conformer 400
          13          12           1
SMALL
USER_CHARGES
 
@<TRIPOS>ATOM
       1    C1      18.424270   18.950743   22.584193 C.2        1 MOL1         0.6021
       2    O1      17.664051   18.977350   21.636953 O.co2      1 MOL1        -0.6904
       3    O2      18.216139   18.304725   23.591883 O.co2      1 MOL1        -0.6904
       4    C2      19.690864   19.800823   22.522320 C.3        1 MOL1        -0.2102
       5    H1      19.758744   20.355629   23.465701 H          1 MOL1         0.0687
       6    H2      19.575966   20.545107   21.724744 H          1 MOL1         0.0687
       7    C3      20.992265   18.985932   22.308675 C.3        1 MOL1        -0.1974
       8    H3      21.857665   19.652103   22.427720 H          1 MOL1         0.0689
       9    H4      21.076524   18.216394   23.088825 H          1 MOL1         0.0689
      10    C4      21.053024   18.324914   20.916091 C.3        1 MOL1        -0.2987
      11    H5      20.992749   19.079267   20.120660 H          1 MOL1         0.0700
      12    H6      21.993783   17.773302   20.790427 H          1 MOL1         0.0700
      13    H7      20.224967   17.616884   20.778825 H          1 MOL1         0.0700
@<TRIPOS>BOND
    1     1     2    1
    2     1     3    2
    3     1     4    1
    4     4     5    1
    5     4     6    1
    6     4     7    1
    7     7     8    1
    8     7     9    1
    9     7    10    1
   10    10    11    1
   11    10    12    1
   12    10    13    1
@<TRIPOS>SUBSTRUCTURE
       1 MOL1            1 RESIDUE      1      MOL     
@<SCITEGIC>MOL_PROPERTY
VConf Rank
SciTegic.value.IntegerValue
400

@<SCITEGIC>MOL_PROPERTY
Conf_Id
SciTegic.value.IntegerValue
36

@<SCITEGIC>MOL_PROPERTY
Delta U+W
SciTegic.value.DoubleValue
0.272

@<SCITEGIC>MOL_PROPERTY
U+W
SciTegic.value.DoubleValue
-58.060

@<SCITEGIC>MOL_PROPERTY
Grad RMS
SciTegic.value.DoubleValue
0.000000

@<SCITEGIC>MOL_PROPERTY
U
SciTegic.value.DoubleValue
9.781

@<SCITEGIC>MOL_PROPERTY
W
SciTegic.value.DoubleValue
-67.841

@<SCITEGIC>MOL_PROPERTY
W(PB)
SciTegic.value.DoubleValue
-69.537

@<SCITEGIC>MOL_PROPERTY
W(SA)
SciTegic.value.DoubleValue
1.696

@<SCITEGIC>MOL_PROPERTY
Valence
SciTegic.value.DoubleValue
6.123

@<SCITEGIC>MOL_PROPERTY
Coulomb
SciTegic.value.DoubleValue
3.449

@<SCITEGIC>MOL_PROPERTY
VdW
SciTegic.value.DoubleValue
0.209

@<SCITEGIC>MOL_PROPERTY
VdW6
SciTegic.value.DoubleValue
-3.762

@<SCITEGIC>MOL_PROPERTY
VdW12
SciTegic.value.DoubleValue
3.972

@<SCITEGIC>MOL_PROPERTY
Bond
SciTegic.value.DoubleValue
0.078

@<SCITEGIC>MOL_PROPERTY
Angle
SciTegic.value.DoubleValue
2.428

@<SCITEGIC>MOL_PROPERTY
Pdih
SciTegic.value.DoubleValue
3.616

@<SCITEGIC>MOL_PROPERTY
Idih
SciTegic.value.DoubleValue
0.002

@<SCITEGIC>MOL_PROPERTY
Tether
SciTegic.value.DoubleValue
0.000

@<TRIPOS>MOLECULE
guest-6_confgen4.mol2 : confsearch ligand conformer 401
          13          12           1
SMALL
USER_CHARGES
 
@<TRIPOS>ATOM
       1    C1      21.193387   20.612313   21.059391 C.2        1 MOL1         0.6021
       2    O1      21.662923   20.087101   20.068928 O.co2      1 MOL1        -0.6904
       3    O2      21.435593   21.758946   21.377771 O.co2      1 MOL1        -0.6904
       4    C2      20.251174   19.818977   21.966880 C.3        1 MOL1        -0.2102
       5    H1      19.307774   20.374737   22.025729 H          1 MOL1         0.0687
       6    H2      20.686959   19.820391   22.973074 H          1 MOL1         0.0687
       7    C3      19.971110   18.360006   21.520869 C.3        1 MOL1        -0.1974
       8    H3      19.537152   18.360664   20.511199 H          1 MOL1         0.0689
       9    H4      20.918049   17.805648   21.459635 H          1 MOL1         0.0689
      10    C4      19.014317   17.640985   22.493181 C.3        1 MOL1        -0.2987
      11    H5      18.047858   18.159084   22.548429 H          1 MOL1         0.0700
      12    H6      18.828263   16.611126   22.161471 H          1 MOL1         0.0700
      13    H7      19.439832   17.599666   23.504494 H          1 MOL1         0.0700
@<TRIPOS>BOND
    1     1     2    1
    2     1     3    2
    3     1     4    1
    4     4     5    1
    5     4     6    1
    6     4     7    1
    7     7     8    1
    8     7     9    1
    9     7    10    1
   10    10    11    1
   11    10    12    1
   12    10    13    1
@<TRIPOS>SUBSTRUCTURE
       1 MOL1            1 RESIDUE      1      MOL     
@<SCITEGIC>MOL_PROPERTY
VConf Rank
SciTegic.value.IntegerValue
401

@<SCITEGIC>MOL_PROPERTY
Conf_Id
SciTegic.value.IntegerValue
0

@<SCITEGIC>MOL_PROPERTY
Delta U+W
SciTegic.value.DoubleValue
0.000

@<SCITEGIC>MOL_PROPERTY
U+W
SciTegic.value.DoubleValue
-58.332

@<SCITEGIC>MOL_PROPERTY
Grad RMS
SciTegic.value.DoubleValue
0.000000

@<SCITEGIC>MOL_PROPERTY
U
SciTegic.value.DoubleValue
8.390

@<SCITEGIC>MOL_PROPERTY
W
SciTegic.value.DoubleValue
-66.722

@<SCITEGIC>MOL_PROPERTY
W(PB)
SciTegic.value.DoubleValue
-68.455

@<SCITEGIC>MOL_PROPERTY
W(SA)
SciTegic.value.DoubleValue
1.733

@<SCITEGIC>MOL_PROPERTY
Valence
SciTegic.value.DoubleValue
6.333

@<SCITEGIC>MOL_PROPERTY
Coulomb
SciTegic.value.DoubleValue
1.215

@<SCITEGIC>MOL_PROPERTY
VdW
SciTegic.value.DoubleValue
0.842

@<SCITEGIC>MOL_PROPERTY
VdW6
SciTegic.value.DoubleValue
-3.344

@<SCITEGIC>MOL_PROPERTY
VdW12
SciTegic.value.DoubleValue
4.186

@<SCITEGIC>MOL_PROPERTY
Bond
SciTegic.value.DoubleValue
0.091

@<SCITEGIC>MOL_PROPERTY
Angle
SciTegic.value.DoubleValue
2.713

@<SCITEGIC>MOL_PROPERTY
Pdih
SciTegic.value.DoubleValue
3.529

@<SCITEGIC>MOL_PROPERTY
Idih
SciTegic.value.DoubleValue
0.000

@<SCITEGIC>MOL_PROPERTY
Tether
SciTegic.value.DoubleValue
0.000

@<TRIPOS>MOLECULE
guest-6_confgen4.mol2 : confsearch ligand conformer 402
          13          12           1
SMALL
USER_CHARGES
 
@<TRIPOS>ATOM
       1    C1      18.195765   19.725326   22.711026 C.2        1 MOL1         0.6021
       2    O1      17.703210   20.718110   22.213903 O.co2      1 MOL1        -0.6904
       3    O2      17.998320   19.381270   23.859069 O.co2      1 MOL1        -0.6904
       4    C2      19.127138   18.875398   21.853317 C.3        1 MOL1        -0.2102
       5    H1      18.781478   18.932931   20.813977 H          1 MOL1         0.0687
       6    H2      19.024825   17.830487   22.170670 H          1 MOL1         0.0687
       7    C3      20.607299   19.318200   21.947653 C.3        1 MOL1        -0.1974
       8    H3      20.696088   20.368653   21.637030 H          1 MOL1         0.0689
       9    H4      20.939509   19.265879   22.993942 H          1 MOL1         0.0689
      10    C4      21.521941   18.440336   21.070113 C.3        1 MOL1        -0.2987
      11    H5      22.566289   18.769272   21.150117 H          1 MOL1         0.0700
      12    H6      21.473041   17.388503   21.381260 H          1 MOL1         0.0700
      13    H7      21.227772   18.499773   20.013946 H          1 MOL1         0.0700
@<TRIPOS>BOND
    1     1     2    1
    2     1     3    2
    3     1     4    1
    4     4     5    1
    5     4     6    1
    6     4     7    1
    7     7     8    1
    8     7     9    1
    9     7    10    1
   10    10    11    1
   11    10    12    1
   12    10    13    1
@<TRIPOS>SUBSTRUCTURE
       1 MOL1            1 RESIDUE      1      MOL     
@<SCITEGIC>MOL_PROPERTY
VConf Rank
SciTegic.value.IntegerValue
402

@<SCITEGIC>MOL_PROPERTY
Conf_Id
SciTegic.value.IntegerValue
1

@<SCITEGIC>MOL_PROPERTY
Delta U+W
SciTegic.value.DoubleValue
-1.339

@<SCITEGIC>MOL_PROPERTY
U+W
SciTegic.value.DoubleValue
-59.672

@<SCITEGIC>MOL_PROPERTY
Grad RMS
SciTegic.value.DoubleValue
0.000000

@<SCITEGIC>MOL_PROPERTY
U
SciTegic.value.DoubleValue
7.389

@<SCITEGIC>MOL_PROPERTY
W
SciTegic.value.DoubleValue
-67.061

@<SCITEGIC>MOL_PROPERTY
W(PB)
SciTegic.value.DoubleValue
-68.767

@<SCITEGIC>MOL_PROPERTY
W(SA)
SciTegic.value.DoubleValue
1.707

@<SCITEGIC>MOL_PROPERTY
Valence
SciTegic.value.DoubleValue
5.822

@<SCITEGIC>MOL_PROPERTY
Coulomb
SciTegic.value.DoubleValue
1.255

@<SCITEGIC>MOL_PROPERTY
VdW
SciTegic.value.DoubleValue
0.312

@<SCITEGIC>MOL_PROPERTY
VdW6
SciTegic.value.DoubleValue
-3.061

@<SCITEGIC>MOL_PROPERTY
VdW12
SciTegic.value.DoubleValue
3.372

@<SCITEGIC>MOL_PROPERTY
Bond
SciTegic.value.DoubleValue
0.059

@<SCITEGIC>MOL_PROPERTY
Angle
SciTegic.value.DoubleValue
2.241

@<SCITEGIC>MOL_PROPERTY
Pdih
SciTegic.value.DoubleValue
3.522

@<SCITEGIC>MOL_PROPERTY
Idih
SciTegic.value.DoubleValue
0.000

@<SCITEGIC>MOL_PROPERTY
Tether
SciTegic.value.DoubleValue
0.000

@<TRIPOS>MOLECULE
guest-6_confgen4.mol2 : confsearch ligand conformer 403
          13          12           1
SMALL
USER_CHARGES
 
@<TRIPOS>ATOM
       1    C1      19.042870   20.262666   22.598860 C.2        1 MOL1         0.6021
       2    O1      18.006565   20.419952   21.984506 O.co2      1 MOL1        -0.6904
       3    O2      19.120075   20.328064   23.809508 O.co2      1 MOL1        -0.6904
       4    C2      20.319998   20.005017   21.803065 C.3        1 MOL1        -0.2102
       5    H1      21.183298   20.204499   22.449754 H          1 MOL1         0.0687
       6    H2      20.354562   20.742583   20.992393 H          1 MOL1         0.0687
       7    C3      20.418663   18.577726   21.206035 C.3        1 MOL1        -0.1974
       8    H3      19.529341   18.373035   20.593556 H          1 MOL1         0.0689
       9    H4      21.284448   18.528793   20.531577 H          1 MOL1         0.0689
      10    C4      20.564238   17.492121   22.292404 C.3        1 MOL1        -0.2987
      11    H5      19.692617   17.482702   22.960248 H          1 MOL1         0.0700
      12    H6      20.651249   16.497467   21.836126 H          1 MOL1         0.0700
      13    H7      21.460260   17.665384   22.902745 H          1 MOL1         0.0700
@<TRIPOS>BOND
    1     1     2    1
    2     1     3    2
    3     1     4    1
    4     4     5    1
    5     4     6    1
    6     4     7    1
    7     7     8    1
    8     7     9    1
    9     7    10    1
   10    10    11    1
   11    10    12    1
   12    10    13    1
@<TRIPOS>SUBSTRUCTURE
       1 MOL1            1 RESIDUE      1      MOL     
@<SCITEGIC>MOL_PROPERTY
VConf Rank
SciTegic.value.IntegerValue
403

@<SCITEGIC>MOL_PROPERTY
Conf_Id
SciTegic.value.IntegerValue
4

@<SCITEGIC>MOL_PROPERTY
Delta U+W
SciTegic.value.DoubleValue
0.281

@<SCITEGIC>MOL_PROPERTY
U+W
SciTegic.value.DoubleValue
-58.051

@<SCITEGIC>MOL_PROPERTY
Grad RMS
SciTegic.value.DoubleValue
0.000000

@<SCITEGIC>MOL_PROPERTY
U
SciTegic.value.DoubleValue
9.781

@<SCITEGIC>MOL_PROPERTY
W
SciTegic.value.DoubleValue
-67.832

@<SCITEGIC>MOL_PROPERTY
W(PB)
SciTegic.value.DoubleValue
-69.535

@<SCITEGIC>MOL_PROPERTY
W(SA)
SciTegic.value.DoubleValue
1.703

@<SCITEGIC>MOL_PROPERTY
Valence
SciTegic.value.DoubleValue
6.123

@<SCITEGIC>MOL_PROPERTY
Coulomb
SciTegic.value.DoubleValue
3.449

@<SCITEGIC>MOL_PROPERTY
VdW
SciTegic.value.DoubleValue
0.209

@<SCITEGIC>MOL_PROPERTY
VdW6
SciTegic.value.DoubleValue
-3.762

@<SCITEGIC>MOL_PROPERTY
VdW12
SciTegic.value.DoubleValue
3.972

@<SCITEGIC>MOL_PROPERTY
Bond
SciTegic.value.DoubleValue
0.078

@<SCITEGIC>MOL_PROPERTY
Angle
SciTegic.value.DoubleValue
2.428

@<SCITEGIC>MOL_PROPERTY
Pdih
SciTegic.value.DoubleValue
3.616

@<SCITEGIC>MOL_PROPERTY
Idih
SciTegic.value.DoubleValue
0.002

@<SCITEGIC>MOL_PROPERTY
Tether
SciTegic.value.DoubleValue
0.000

@<TRIPOS>MOLECULE
guest-6_confgen4.mol2 : confsearch ligand conformer 404
          13          12           1
SMALL
USER_CHARGES
 
@<TRIPOS>ATOM
       1    C1      20.957889   17.801966   20.927016 C.2        1 MOL1         0.6021
       2    O1      22.145998   17.800200   21.180588 O.co2      1 MOL1        -0.6904
       3    O2      20.334182   16.801264   20.634299 O.co2      1 MOL1        -0.6904
       4    C2      20.214761   19.135489   20.941258 C.3        1 MOL1        -0.2102
       5    H1      19.629187   19.193423   20.015983 H          1 MOL1         0.0687
       6    H2      20.950437   19.948211   20.901893 H          1 MOL1         0.0687
       7    C3      19.274484   19.325026   22.159163 C.3        1 MOL1        -0.1974
       8    H3      18.673512   20.232802   22.012029 H          1 MOL1         0.0689
       9    H4      18.568590   18.484355   22.213086 H          1 MOL1         0.0689
      10    C4      20.047399   19.442486   23.489100 C.3        1 MOL1        -0.2987
      11    H5      20.743474   20.291180   23.464818 H          1 MOL1         0.0700
      12    H6      19.354700   19.595259   24.326910 H          1 MOL1         0.0700
      13    H7      20.626399   18.531514   23.690876 H          1 MOL1         0.0700
@<TRIPOS>BOND
    1     1     2    1
    2     1     3    2
    3     1     4    1
    4     4     5    1
    5     4     6    1
    6     4     7    1
    7     7     8    1
    8     7     9    1
    9     7    10    1
   10    10    11    1
   11    10    12    1
   12    10    13    1
@<TRIPOS>SUBSTRUCTURE
       1 MOL1            1 RESIDUE      1      MOL     
@<SCITEGIC>MOL_PROPERTY
VConf Rank
SciTegic.value.IntegerValue
404

@<SCITEGIC>MOL_PROPERTY
Conf_Id
SciTegic.value.IntegerValue
36

@<SCITEGIC>MOL_PROPERTY
Delta U+W
SciTegic.value.DoubleValue
0.272

@<SCITEGIC>MOL_PROPERTY
U+W
SciTegic.value.DoubleValue
-58.060

@<SCITEGIC>MOL_PROPERTY
Grad RMS
SciTegic.value.DoubleValue
0.000000

@<SCITEGIC>MOL_PROPERTY
U
SciTegic.value.DoubleValue
9.781

@<SCITEGIC>MOL_PROPERTY
W
SciTegic.value.DoubleValue
-67.841

@<SCITEGIC>MOL_PROPERTY
W(PB)
SciTegic.value.DoubleValue
-69.537

@<SCITEGIC>MOL_PROPERTY
W(SA)
SciTegic.value.DoubleValue
1.696

@<SCITEGIC>MOL_PROPERTY
Valence
SciTegic.value.DoubleValue
6.123

@<SCITEGIC>MOL_PROPERTY
Coulomb
SciTegic.value.DoubleValue
3.449

@<SCITEGIC>MOL_PROPERTY
VdW
SciTegic.value.DoubleValue
0.209

@<SCITEGIC>MOL_PROPERTY
VdW6
SciTegic.value.DoubleValue
-3.762

@<SCITEGIC>MOL_PROPERTY
VdW12
SciTegic.value.DoubleValue
3.972

@<SCITEGIC>MOL_PROPERTY
Bond
SciTegic.value.DoubleValue
0.078

@<SCITEGIC>MOL_PROPERTY
Angle
SciTegic.value.DoubleValue
2.428

@<SCITEGIC>MOL_PROPERTY
Pdih
SciTegic.value.DoubleValue
3.616

@<SCITEGIC>MOL_PROPERTY
Idih
SciTegic.value.DoubleValue
0.002

@<SCITEGIC>MOL_PROPERTY
Tether
SciTegic.value.DoubleValue
0.000

@<TRIPOS>MOLECULE
guest-6_confgen4.mol2 : confsearch ligand conformer 405
          13          12           1
SMALL
USER_CHARGES
 
@<TRIPOS>ATOM
       1    C1      17.953900   18.530010   22.036073 C.2        1 MOL1         0.6021
       2    O1      17.489173   19.182592   21.122019 O.co2      1 MOL1        -0.6904
       3    O2      17.272742   17.848606   22.775335 O.co2      1 MOL1        -0.6904
       4    C2      19.461993   18.547151   22.293061 C.3        1 MOL1        -0.2102
       5    H1      19.815105   17.510356   22.241036 H          1 MOL1         0.0687
       6    H2      19.614823   18.886099   23.324610 H          1 MOL1         0.0687
       7    C3      20.291076   19.430659   21.324561 C.3        1 MOL1        -0.1974
       8    H3      20.134245   19.091189   20.291159 H          1 MOL1         0.0689
       9    H4      19.933666   20.468621   21.376008 H          1 MOL1         0.0689
      10    C4      21.795597   19.385884   21.659594 C.3        1 MOL1        -0.2987
      11    H5      22.184499   18.361833   21.584774 H          1 MOL1         0.0700
      12    H6      22.365281   20.016364   20.964460 H          1 MOL1         0.0700
      13    H7      21.982291   19.750279   22.678360 H          1 MOL1         0.0700
@<TRIPOS>BOND
    1     1     2    1
    2     1     3    2
    3     1     4    1
    4     4     5    1
    5     4     6    1
    6     4     7    1
    7     7     8    1
    8     7     9    1
    9     7    10    1
   10    10    11    1
   11    10    12    1
   12    10    13    1
@<TRIPOS>SUBSTRUCTURE
       1 MOL1            1 RESIDUE      1      MOL     
@<SCITEGIC>MOL_PROPERTY
VConf Rank
SciTegic.value.IntegerValue
405

@<SCITEGIC>MOL_PROPERTY
Conf_Id
SciTegic.value.IntegerValue
0

@<SCITEGIC>MOL_PROPERTY
Delta U+W
SciTegic.value.DoubleValue
0.000

@<SCITEGIC>MOL_PROPERTY
U+W
SciTegic.value.DoubleValue
-58.332

@<SCITEGIC>MOL_PROPERTY
Grad RMS
SciTegic.value.DoubleValue
0.000000

@<SCITEGIC>MOL_PROPERTY
U
SciTegic.value.DoubleValue
8.390

@<SCITEGIC>MOL_PROPERTY
W
SciTegic.value.DoubleValue
-66.722

@<SCITEGIC>MOL_PROPERTY
W(PB)
SciTegic.value.DoubleValue
-68.455

@<SCITEGIC>MOL_PROPERTY
W(SA)
SciTegic.value.DoubleValue
1.733

@<SCITEGIC>MOL_PROPERTY
Valence
SciTegic.value.DoubleValue
6.333

@<SCITEGIC>MOL_PROPERTY
Coulomb
SciTegic.value.DoubleValue
1.215

@<SCITEGIC>MOL_PROPERTY
VdW
SciTegic.value.DoubleValue
0.842

@<SCITEGIC>MOL_PROPERTY
VdW6
SciTegic.value.DoubleValue
-3.344

@<SCITEGIC>MOL_PROPERTY
VdW12
SciTegic.value.DoubleValue
4.186

@<SCITEGIC>MOL_PROPERTY
Bond
SciTegic.value.DoubleValue
0.091

@<SCITEGIC>MOL_PROPERTY
Angle
SciTegic.value.DoubleValue
2.713

@<SCITEGIC>MOL_PROPERTY
Pdih
SciTegic.value.DoubleValue
3.529

@<SCITEGIC>MOL_PROPERTY
Idih
SciTegic.value.DoubleValue
0.000

@<SCITEGIC>MOL_PROPERTY
Tether
SciTegic.value.DoubleValue
0.000

@<TRIPOS>MOLECULE
guest-6_confgen4.mol2 : confsearch ligand conformer 406
          13          12           1
SMALL
USER_CHARGES
 
@<TRIPOS>ATOM
       1    C1      21.992465   19.053526   22.501266 C.2        1 MOL1         0.6021
       2    O1      22.172592   18.714592   23.653672 O.co2      1 MOL1        -0.6904
       3    O2      22.756127   19.769553   21.885241 O.co2      1 MOL1        -0.6904
       4    C2      20.730106   18.569375   21.795898 C.3        1 MOL1        -0.2102
       5    H1      20.478853   17.576664   22.188857 H          1 MOL1         0.0687
       6    H2      20.960081   18.446629   20.730504 H          1 MOL1         0.0687
       7    C3      19.531246   19.532012   21.974539 C.3        1 MOL1        -0.1974
       8    H3      19.316435   19.655060   23.045304 H          1 MOL1         0.0689
       9    H4      19.797709   20.525136   21.586565 H          1 MOL1         0.0689
      10    C4      18.272048   19.014728   21.250572 C.3        1 MOL1        -0.2987
      11    H5      17.433622   19.709898   21.388572 H          1 MOL1         0.0700
      12    H6      18.453185   18.911842   20.172537 H          1 MOL1         0.0700
      13    H7      17.968208   18.035119   21.642496 H          1 MOL1         0.0700
@<TRIPOS>BOND
    1     1     2    1
    2     1     3    2
    3     1     4    1
    4     4     5    1
    5     4     6    1
    6     4     7    1
    7     7     8    1
    8     7     9    1
    9     7    10    1
   10    10    11    1
   11    10    12    1
   12    10    13    1
@<TRIPOS>SUBSTRUCTURE
       1 MOL1            1 RESIDUE      1      MOL     
@<SCITEGIC>MOL_PROPERTY
VConf Rank
SciTegic.value.IntegerValue
406

@<SCITEGIC>MOL_PROPERTY
Conf_Id
SciTegic.value.IntegerValue
1

@<SCITEGIC>MOL_PROPERTY
Delta U+W
SciTegic.value.DoubleValue
-1.339

@<SCITEGIC>MOL_PROPERTY
U+W
SciTegic.value.DoubleValue
-59.672

@<SCITEGIC>MOL_PROPERTY
Grad RMS
SciTegic.value.DoubleValue
0.000000

@<SCITEGIC>MOL_PROPERTY
U
SciTegic.value.DoubleValue
7.389

@<SCITEGIC>MOL_PROPERTY
W
SciTegic.value.DoubleValue
-67.061

@<SCITEGIC>MOL_PROPERTY
W(PB)
SciTegic.value.DoubleValue
-68.767

@<SCITEGIC>MOL_PROPERTY
W(SA)
SciTegic.value.DoubleValue
1.707

@<SCITEGIC>MOL_PROPERTY
Valence
SciTegic.value.DoubleValue
5.822

@<SCITEGIC>MOL_PROPERTY
Coulomb
SciTegic.value.DoubleValue
1.255

@<SCITEGIC>MOL_PROPERTY
VdW
SciTegic.value.DoubleValue
0.312

@<SCITEGIC>MOL_PROPERTY
VdW6
SciTegic.value.DoubleValue
-3.061

@<SCITEGIC>MOL_PROPERTY
VdW12
SciTegic.value.DoubleValue
3.372

@<SCITEGIC>MOL_PROPERTY
Bond
SciTegic.value.DoubleValue
0.059

@<SCITEGIC>MOL_PROPERTY
Angle
SciTegic.value.DoubleValue
2.241

@<SCITEGIC>MOL_PROPERTY
Pdih
SciTegic.value.DoubleValue
3.522

@<SCITEGIC>MOL_PROPERTY
Idih
SciTegic.value.DoubleValue
0.000

@<SCITEGIC>MOL_PROPERTY
Tether
SciTegic.value.DoubleValue
0.000

@<TRIPOS>MOLECULE
guest-6_confgen4.mol2 : confsearch ligand conformer 407
          13          12           1
SMALL
USER_CHARGES
 
@<TRIPOS>ATOM
       1    C1      19.828122   17.442144   22.888703 C.2        1 MOL1         0.6021
       2    O1      20.809532   16.771457   23.139925 O.co2      1 MOL1        -0.6904
       3    O2      18.906345   17.596926   23.664766 O.co2      1 MOL1        -0.6904
       4    C2      19.734532   18.094110   21.511420 C.3        1 MOL1        -0.2102
       5    H1      18.691022   18.377570   21.326965 H          1 MOL1         0.0687
       6    H2      19.990606   17.328659   20.769195 H          1 MOL1         0.0687
       7    C3      20.662110   19.322399   21.326367 C.3        1 MOL1        -0.1974
       8    H3      21.699042   19.037687   21.553598 H          1 MOL1         0.0689
       9    H4      20.643539   19.631880   20.272445 H          1 MOL1         0.0689
      10    C4      20.244137   20.516238   22.209529 C.3        1 MOL1        -0.2987
      11    H5      20.293967   20.255451   23.275050 H          1 MOL1         0.0700
      12    H6      20.908007   21.373935   22.040036 H          1 MOL1         0.0700
      13    H7      19.217224   20.831553   21.982776 H          1 MOL1         0.0700
@<TRIPOS>BOND
    1     1     2    1
    2     1     3    2
    3     1     4    1
    4     4     5    1
    5     4     6    1
    6     4     7    1
    7     7     8    1
    8     7     9    1
    9     7    10    1
   10    10    11    1
   11    10    12    1
   12    10    13    1
@<TRIPOS>SUBSTRUCTURE
       1 MOL1            1 RESIDUE      1      MOL     
@<SCITEGIC>MOL_PROPERTY
VConf Rank
SciTegic.value.IntegerValue
407

@<SCITEGIC>MOL_PROPERTY
Conf_Id
SciTegic.value.IntegerValue
4

@<SCITEGIC>MOL_PROPERTY
Delta U+W
SciTegic.value.DoubleValue
0.281

@<SCITEGIC>MOL_PROPERTY
U+W
SciTegic.value.DoubleValue
-58.051

@<SCITEGIC>MOL_PROPERTY
Grad RMS
SciTegic.value.DoubleValue
0.000000

@<SCITEGIC>MOL_PROPERTY
U
SciTegic.value.DoubleValue
9.781

@<SCITEGIC>MOL_PROPERTY
W
SciTegic.value.DoubleValue
-67.832

@<SCITEGIC>MOL_PROPERTY
W(PB)
SciTegic.value.DoubleValue
-69.535

@<SCITEGIC>MOL_PROPERTY
W(SA)
SciTegic.value.DoubleValue
1.703

@<SCITEGIC>MOL_PROPERTY
Valence
SciTegic.value.DoubleValue
6.123

@<SCITEGIC>MOL_PROPERTY
Coulomb
SciTegic.value.DoubleValue
3.449

@<SCITEGIC>MOL_PROPERTY
VdW
SciTegic.value.DoubleValue
0.209

@<SCITEGIC>MOL_PROPERTY
VdW6
SciTegic.value.DoubleValue
-3.762

@<SCITEGIC>MOL_PROPERTY
VdW12
SciTegic.value.DoubleValue
3.972

@<SCITEGIC>MOL_PROPERTY
Bond
SciTegic.value.DoubleValue
0.078

@<SCITEGIC>MOL_PROPERTY
Angle
SciTegic.value.DoubleValue
2.428

@<SCITEGIC>MOL_PROPERTY
Pdih
SciTegic.value.DoubleValue
3.616

@<SCITEGIC>MOL_PROPERTY
Idih
SciTegic.value.DoubleValue
0.002

@<SCITEGIC>MOL_PROPERTY
Tether
SciTegic.value.DoubleValue
0.000

@<TRIPOS>MOLECULE
guest-6_confgen4.mol2 : confsearch ligand conformer 408
          13          12           1
SMALL
USER_CHARGES
 
@<TRIPOS>ATOM
       1    C1      21.172933   19.438188   23.365877 C.2        1 MOL1         0.6021
       2    O1      21.577614   18.440894   23.929387 O.co2      1 MOL1        -0.6904
       3    O2      21.848240   20.434564   23.200675 O.co2      1 MOL1        -0.6904
       4    C2      19.729138   19.456210   22.870036 C.3        1 MOL1        -0.2102
       5    H1      19.279130   20.397398   23.207740 H          1 MOL1         0.0687
       6    H2      19.177869   18.646499   23.363753 H          1 MOL1         0.0687
       7    C3      19.585212   19.339000   21.330918 C.3        1 MOL1        -0.1974
       8    H3      18.536376   19.511542   21.053349 H          1 MOL1         0.0689
       9    H4      20.174483   20.129437   20.845232 H          1 MOL1         0.0689
      10    C4      20.026519   17.959376   20.800059 C.3        1 MOL1        -0.2987
      11    H5      19.434333   17.155463   21.256602 H          1 MOL1         0.0700
      12    H6      19.893645   17.903043   19.711818 H          1 MOL1         0.0700
      13    H7      21.085520   17.771561   21.021572 H          1 MOL1         0.0700
@<TRIPOS>BOND
    1     1     2    1
    2     1     3    2
    3     1     4    1
    4     4     5    1
    5     4     6    1
    6     4     7    1
    7     7     8    1
    8     7     9    1
    9     7    10    1
   10    10    11    1
   11    10    12    1
   12    10    13    1
@<TRIPOS>SUBSTRUCTURE
       1 MOL1            1 RESIDUE      1      MOL     
@<SCITEGIC>MOL_PROPERTY
VConf Rank
SciTegic.value.IntegerValue
408

@<SCITEGIC>MOL_PROPERTY
Conf_Id
SciTegic.value.IntegerValue
36

@<SCITEGIC>MOL_PROPERTY
Delta U+W
SciTegic.value.DoubleValue
0.272

@<SCITEGIC>MOL_PROPERTY
U+W
SciTegic.value.DoubleValue
-58.060

@<SCITEGIC>MOL_PROPERTY
Grad RMS
SciTegic.value.DoubleValue
0.000000

@<SCITEGIC>MOL_PROPERTY
U
SciTegic.value.DoubleValue
9.781

@<SCITEGIC>MOL_PROPERTY
W
SciTegic.value.DoubleValue
-67.841

@<SCITEGIC>MOL_PROPERTY
W(PB)
SciTegic.value.DoubleValue
-69.537

@<SCITEGIC>MOL_PROPERTY
W(SA)
SciTegic.value.DoubleValue
1.696

@<SCITEGIC>MOL_PROPERTY
Valence
SciTegic.value.DoubleValue
6.123

@<SCITEGIC>MOL_PROPERTY
Coulomb
SciTegic.value.DoubleValue
3.449

@<SCITEGIC>MOL_PROPERTY
VdW
SciTegic.value.DoubleValue
0.209

@<SCITEGIC>MOL_PROPERTY
VdW6
SciTegic.value.DoubleValue
-3.762

@<SCITEGIC>MOL_PROPERTY
VdW12
SciTegic.value.DoubleValue
3.972

@<SCITEGIC>MOL_PROPERTY
Bond
SciTegic.value.DoubleValue
0.078

@<SCITEGIC>MOL_PROPERTY
Angle
SciTegic.value.DoubleValue
2.428

@<SCITEGIC>MOL_PROPERTY
Pdih
SciTegic.value.DoubleValue
3.616

@<SCITEGIC>MOL_PROPERTY
Idih
SciTegic.value.DoubleValue
0.002

@<SCITEGIC>MOL_PROPERTY
Tether
SciTegic.value.DoubleValue
0.000

@<TRIPOS>MOLECULE
guest-6_confgen4.mol2 : confsearch ligand conformer 409
          13          12           1
SMALL
USER_CHARGES
 
@<TRIPOS>ATOM
       1    C1      21.519538   17.862047   20.815711 C.2        1 MOL1         0.6021
       2    O1      21.397031   18.295681   19.686870 O.co2      1 MOL1        -0.6904
       3    O2      22.330821   17.008259   21.111789 O.co2      1 MOL1        -0.6904
       4    C2      20.625532   18.395634   21.936746 C.3        1 MOL1        -0.2102
       5    H1      21.283020   18.791308   22.720002 H          1 MOL1         0.0687
       6    H2      20.093719   17.538985   22.367633 H          1 MOL1         0.0687
       7    C3      19.605322   19.484048   21.511913 C.3        1 MOL1        -0.1974
       8    H3      20.140088   20.340357   21.077729 H          1 MOL1         0.0689
       9    H4      18.949365   19.086517   20.724866 H          1 MOL1         0.0689
      10    C4      18.750844   19.960009   22.704039 C.3        1 MOL1        -0.2987
      11    H5      19.381842   20.390803   23.492570 H          1 MOL1         0.0700
      12    H6      18.035669   20.729123   22.384283 H          1 MOL1         0.0700
      13    H7      18.181601   19.126872   23.136900 H          1 MOL1         0.0700
@<TRIPOS>BOND
    1     1     2    1
    2     1     3    2
    3     1     4    1
    4     4     5    1
    5     4     6    1
    6     4     7    1
    7     7     8    1
    8     7     9    1
    9     7    10    1
   10    10    11    1
   11    10    12    1
   12    10    13    1
@<TRIPOS>SUBSTRUCTURE
       1 MOL1            1 RESIDUE      1      MOL     
@<SCITEGIC>MOL_PROPERTY
VConf Rank
SciTegic.value.IntegerValue
409

@<SCITEGIC>MOL_PROPERTY
Conf_Id
SciTegic.value.IntegerValue
0

@<SCITEGIC>MOL_PROPERTY
Delta U+W
SciTegic.value.DoubleValue
0.000

@<SCITEGIC>MOL_PROPERTY
U+W
SciTegic.value.DoubleValue
-58.332

@<SCITEGIC>MOL_PROPERTY
Grad RMS
SciTegic.value.DoubleValue
0.000000

@<SCITEGIC>MOL_PROPERTY
U
SciTegic.value.DoubleValue
8.390

@<SCITEGIC>MOL_PROPERTY
W
SciTegic.value.DoubleValue
-66.722

@<SCITEGIC>MOL_PROPERTY
W(PB)
SciTegic.value.DoubleValue
-68.455

@<SCITEGIC>MOL_PROPERTY
W(SA)
SciTegic.value.DoubleValue
1.733

@<SCITEGIC>MOL_PROPERTY
Valence
SciTegic.value.DoubleValue
6.333

@<SCITEGIC>MOL_PROPERTY
Coulomb
SciTegic.value.DoubleValue
1.215

@<SCITEGIC>MOL_PROPERTY
VdW
SciTegic.value.DoubleValue
0.842

@<SCITEGIC>MOL_PROPERTY
VdW6
SciTegic.value.DoubleValue
-3.344

@<SCITEGIC>MOL_PROPERTY
VdW12
SciTegic.value.DoubleValue
4.186

@<SCITEGIC>MOL_PROPERTY
Bond
SciTegic.value.DoubleValue
0.091

@<SCITEGIC>MOL_PROPERTY
Angle
SciTegic.value.DoubleValue
2.713

@<SCITEGIC>MOL_PROPERTY
Pdih
SciTegic.value.DoubleValue
3.529

@<SCITEGIC>MOL_PROPERTY
Idih
SciTegic.value.DoubleValue
0.000

@<SCITEGIC>MOL_PROPERTY
Tether
SciTegic.value.DoubleValue
0.000

@<TRIPOS>MOLECULE
guest-6_confgen4.mol2 : confsearch ligand conformer 410
          13          12           1
SMALL
USER_CHARGES
 
@<TRIPOS>ATOM
       1    C1      18.829118   18.588699   23.538058 C.2        1 MOL1         0.6021
       2    O1      19.257249   18.998493   24.598310 O.co2      1 MOL1        -0.6904
       3    O2      18.082346   17.635855   23.439162 O.co2      1 MOL1        -0.6904
       4    C2      19.267765   19.297003   22.260798 C.3        1 MOL1        -0.2102
       5    H1      19.415112   20.358865   22.492655 H          1 MOL1         0.0687
       6    H2      18.446204   19.235167   21.536760 H          1 MOL1         0.0687
       7    C3      20.559940   18.700376   21.652382 C.3        1 MOL1        -0.1974
       8    H3      21.372944   18.758643   22.389572 H          1 MOL1         0.0689
       9    H4      20.403811   17.634784   21.433383 H          1 MOL1         0.0689
      10    C4      20.976417   19.437567   20.363822 C.3        1 MOL1        -0.2987
      11    H5      21.893597   19.000727   19.947632 H          1 MOL1         0.0700
      12    H6      20.190785   19.367750   19.599975 H          1 MOL1         0.0700
      13    H7      21.167386   20.500210   20.563514 H          1 MOL1         0.0700
@<TRIPOS>BOND
    1     1     2    1
    2     1     3    2
    3     1     4    1
    4     4     5    1
    5     4     6    1
    6     4     7    1
    7     7     8    1
    8     7     9    1
    9     7    10    1
   10    10    11    1
   11    10    12    1
   12    10    13    1
@<TRIPOS>SUBSTRUCTURE
       1 MOL1            1 RESIDUE      1      MOL     
@<SCITEGIC>MOL_PROPERTY
VConf Rank
SciTegic.value.IntegerValue
410

@<SCITEGIC>MOL_PROPERTY
Conf_Id
SciTegic.value.IntegerValue
1

@<SCITEGIC>MOL_PROPERTY
Delta U+W
SciTegic.value.DoubleValue
-1.339

@<SCITEGIC>MOL_PROPERTY
U+W
SciTegic.value.DoubleValue
-59.672

@<SCITEGIC>MOL_PROPERTY
Grad RMS
SciTegic.value.DoubleValue
0.000000

@<SCITEGIC>MOL_PROPERTY
U
SciTegic.value.DoubleValue
7.389

@<SCITEGIC>MOL_PROPERTY
W
SciTegic.value.DoubleValue
-67.061

@<SCITEGIC>MOL_PROPERTY
W(PB)
SciTegic.value.DoubleValue
-68.767

@<SCITEGIC>MOL_PROPERTY
W(SA)
SciTegic.value.DoubleValue
1.707

@<SCITEGIC>MOL_PROPERTY
Valence
SciTegic.value.DoubleValue
5.822

@<SCITEGIC>MOL_PROPERTY
Coulomb
SciTegic.value.DoubleValue
1.255

@<SCITEGIC>MOL_PROPERTY
VdW
SciTegic.value.DoubleValue
0.312

@<SCITEGIC>MOL_PROPERTY
VdW6
SciTegic.value.DoubleValue
-3.061

@<SCITEGIC>MOL_PROPERTY
VdW12
SciTegic.value.DoubleValue
3.372

@<SCITEGIC>MOL_PROPERTY
Bond
SciTegic.value.DoubleValue
0.059

@<SCITEGIC>MOL_PROPERTY
Angle
SciTegic.value.DoubleValue
2.241

@<SCITEGIC>MOL_PROPERTY
Pdih
SciTegic.value.DoubleValue
3.522

@<SCITEGIC>MOL_PROPERTY
Idih
SciTegic.value.DoubleValue
0.000

@<SCITEGIC>MOL_PROPERTY
Tether
SciTegic.value.DoubleValue
0.000

@<TRIPOS>MOLECULE
guest-6_confgen4.mol2 : confsearch ligand conformer 411
          13          12           1
SMALL
USER_CHARGES
 
@<TRIPOS>ATOM
       1    C1      18.427729   18.993282   22.570160 C.2        1 MOL1         0.6021
       2    O1      17.643484   19.620927   21.886699 O.co2      1 MOL1        -0.6904
       3    O2      18.158447   17.930418   23.093335 O.co2      1 MOL1        -0.6904
       4    C2      19.811436   19.591279   22.811991 C.3        1 MOL1        -0.2102
       5    H1      20.264673   19.090241   23.676181 H          1 MOL1         0.0687
       6    H2      19.669168   20.641441   23.093607 H          1 MOL1         0.0687
       7    C3      20.760698   19.509511   21.589063 C.3        1 MOL1        -0.1974
       8    H3      20.280080   19.977614   20.718541 H          1 MOL1         0.0689
       9    H4      21.668812   20.091056   21.798846 H          1 MOL1         0.0689
      10    C4      21.159102   18.058951   21.246896 C.3        1 MOL1        -0.2987
      11    H5      20.277221   17.458086   20.987906 H          1 MOL1         0.0700
      12    H6      21.845697   18.038101   20.390597 H          1 MOL1         0.0700
      13    H7      21.661638   17.579104   22.096953 H          1 MOL1         0.0700
@<TRIPOS>BOND
    1     1     2    1
    2     1     3    2
    3     1     4    1
    4     4     5    1
    5     4     6    1
    6     4     7    1
    7     7     8    1
    8     7     9    1
    9     7    10    1
   10    10    11    1
   11    10    12    1
   12    10    13    1
@<TRIPOS>SUBSTRUCTURE
       1 MOL1            1 RESIDUE      1      MOL     
@<SCITEGIC>MOL_PROPERTY
VConf Rank
SciTegic.value.IntegerValue
411

@<SCITEGIC>MOL_PROPERTY
Conf_Id
SciTegic.value.IntegerValue
4

@<SCITEGIC>MOL_PROPERTY
Delta U+W
SciTegic.value.DoubleValue
0.281

@<SCITEGIC>MOL_PROPERTY
U+W
SciTegic.value.DoubleValue
-58.051

@<SCITEGIC>MOL_PROPERTY
Grad RMS
SciTegic.value.DoubleValue
0.000000

@<SCITEGIC>MOL_PROPERTY
U
SciTegic.value.DoubleValue
9.781

@<SCITEGIC>MOL_PROPERTY
W
SciTegic.value.DoubleValue
-67.832

@<SCITEGIC>MOL_PROPERTY
W(PB)
SciTegic.value.DoubleValue
-69.535

@<SCITEGIC>MOL_PROPERTY
W(SA)
SciTegic.value.DoubleValue
1.703

@<SCITEGIC>MOL_PROPERTY
Valence
SciTegic.value.DoubleValue
6.123

@<SCITEGIC>MOL_PROPERTY
Coulomb
SciTegic.value.DoubleValue
3.449

@<SCITEGIC>MOL_PROPERTY
VdW
SciTegic.value.DoubleValue
0.209

@<SCITEGIC>MOL_PROPERTY
VdW6
SciTegic.value.DoubleValue
-3.762

@<SCITEGIC>MOL_PROPERTY
VdW12
SciTegic.value.DoubleValue
3.972

@<SCITEGIC>MOL_PROPERTY
Bond
SciTegic.value.DoubleValue
0.078

@<SCITEGIC>MOL_PROPERTY
Angle
SciTegic.value.DoubleValue
2.428

@<SCITEGIC>MOL_PROPERTY
Pdih
SciTegic.value.DoubleValue
3.616

@<SCITEGIC>MOL_PROPERTY
Idih
SciTegic.value.DoubleValue
0.002

@<SCITEGIC>MOL_PROPERTY
Tether
SciTegic.value.DoubleValue
0.000

@<TRIPOS>MOLECULE
guest-6_confgen4.mol2 : confsearch ligand conformer 412
          13          12           1
SMALL
USER_CHARGES
 
@<TRIPOS>ATOM
       1    C1      20.782228   19.876270   20.602709 C.2        1 MOL1         0.6021
       2    O1      20.224865   19.522745   19.582772 O.co2      1 MOL1        -0.6904
       3    O2      21.110610   21.025138   20.822632 O.co2      1 MOL1        -0.6904
       4    C2      21.121012   18.817408   21.649018 C.3        1 MOL1        -0.2102
       5    H1      22.168464   18.966001   21.937378 H          1 MOL1         0.0687
       6    H2      21.058926   17.827623   21.180236 H          1 MOL1         0.0687
       7    C3      20.226152   18.866101   22.914005 C.3        1 MOL1        -0.1974
       8    H3      20.632065   18.178660   23.668678 H          1 MOL1         0.0689
       9    H4      20.263155   19.873404   23.352060 H          1 MOL1         0.0689
      10    C4      18.762246   18.480657   22.616787 C.3        1 MOL1        -0.2987
      11    H5      18.700404   17.467474   22.198425 H          1 MOL1         0.0700
      12    H6      18.161416   18.506113   23.535183 H          1 MOL1         0.0700
      13    H7      18.309468   19.175581   21.897134 H          1 MOL1         0.0700
@<TRIPOS>BOND
    1     1     2    1
    2     1     3    2
    3     1     4    1
    4     4     5    1
    5     4     6    1
    6     4     7    1
    7     7     8    1
    8     7     9    1
    9     7    10    1
   10    10    11    1
   11    10    12    1
   12    10    13    1
@<TRIPOS>SUBSTRUCTURE
       1 MOL1            1 RESIDUE      1      MOL     
@<SCITEGIC>MOL_PROPERTY
VConf Rank
SciTegic.value.IntegerValue
412

@<SCITEGIC>MOL_PROPERTY
Conf_Id
SciTegic.value.IntegerValue
36

@<SCITEGIC>MOL_PROPERTY
Delta U+W
SciTegic.value.DoubleValue
0.272

@<SCITEGIC>MOL_PROPERTY
U+W
SciTegic.value.DoubleValue
-58.060

@<SCITEGIC>MOL_PROPERTY
Grad RMS
SciTegic.value.DoubleValue
0.000000

@<SCITEGIC>MOL_PROPERTY
U
SciTegic.value.DoubleValue
9.781

@<SCITEGIC>MOL_PROPERTY
W
SciTegic.value.DoubleValue
-67.841

@<SCITEGIC>MOL_PROPERTY
W(PB)
SciTegic.value.DoubleValue
-69.537

@<SCITEGIC>MOL_PROPERTY
W(SA)
SciTegic.value.DoubleValue
1.696

@<SCITEGIC>MOL_PROPERTY
Valence
SciTegic.value.DoubleValue
6.123

@<SCITEGIC>MOL_PROPERTY
Coulomb
SciTegic.value.DoubleValue
3.449

@<SCITEGIC>MOL_PROPERTY
VdW
SciTegic.value.DoubleValue
0.209

@<SCITEGIC>MOL_PROPERTY
VdW6
SciTegic.value.DoubleValue
-3.762

@<SCITEGIC>MOL_PROPERTY
VdW12
SciTegic.value.DoubleValue
3.972

@<SCITEGIC>MOL_PROPERTY
Bond
SciTegic.value.DoubleValue
0.078

@<SCITEGIC>MOL_PROPERTY
Angle
SciTegic.value.DoubleValue
2.428

@<SCITEGIC>MOL_PROPERTY
Pdih
SciTegic.value.DoubleValue
3.616

@<SCITEGIC>MOL_PROPERTY
Idih
SciTegic.value.DoubleValue
0.002

@<SCITEGIC>MOL_PROPERTY
Tether
SciTegic.value.DoubleValue
0.000

@<TRIPOS>MOLECULE
guest-6_confgen4.mol2 : confsearch ligand conformer 413
          13          12           1
SMALL
USER_CHARGES
 
@<TRIPOS>ATOM
       1    C1      20.907960   17.484648   20.610357 C.2        1 MOL1         0.6021
       2    O1      21.807952   17.123425   21.343065 O.co2      1 MOL1        -0.6904
       3    O2      20.712729   16.999944   19.514116 O.co2      1 MOL1        -0.6904
       4    C2      19.961140   18.598803   21.060771 C.3        1 MOL1        -0.2102
       5    H1      18.942144   18.194961   21.030842 H          1 MOL1         0.0687
       6    H2      20.011940   19.395758   20.309359 H          1 MOL1         0.0687
       7    C3      20.248811   19.187292   22.466787 C.3        1 MOL1        -0.1974
       8    H3      20.200287   18.386536   23.217913 H          1 MOL1         0.0689
       9    H4      21.271435   19.588747   22.495570 H          1 MOL1         0.0689
      10    C4      19.247013   20.300555   22.834051 C.3        1 MOL1        -0.2987
      11    H5      18.218476   19.916417   22.842642 H          1 MOL1         0.0700
      12    H6      19.466307   20.704304   23.831123 H          1 MOL1         0.0700
      13    H7      19.298197   21.128255   22.114456 H          1 MOL1         0.0700
@<TRIPOS>BOND
    1     1     2    1
    2     1     3    2
    3     1     4    1
    4     4     5    1
    5     4     6    1
    6     4     7    1
    7     7     8    1
    8     7     9    1
    9     7    10    1
   10    10    11    1
   11    10    12    1
   12    10    13    1
@<TRIPOS>SUBSTRUCTURE
       1 MOL1            1 RESIDUE      1      MOL     
@<SCITEGIC>MOL_PROPERTY
VConf Rank
SciTegic.value.IntegerValue
413

@<SCITEGIC>MOL_PROPERTY
Conf_Id
SciTegic.value.IntegerValue
0

@<SCITEGIC>MOL_PROPERTY
Delta U+W
SciTegic.value.DoubleValue
0.000

@<SCITEGIC>MOL_PROPERTY
U+W
SciTegic.value.DoubleValue
-58.332

@<SCITEGIC>MOL_PROPERTY
Grad RMS
SciTegic.value.DoubleValue
0.000000

@<SCITEGIC>MOL_PROPERTY
U
SciTegic.value.DoubleValue
8.390

@<SCITEGIC>MOL_PROPERTY
W
SciTegic.value.DoubleValue
-66.722

@<SCITEGIC>MOL_PROPERTY
W(PB)
SciTegic.value.DoubleValue
-68.455

@<SCITEGIC>MOL_PROPERTY
W(SA)
SciTegic.value.DoubleValue
1.733

@<SCITEGIC>MOL_PROPERTY
Valence
SciTegic.value.DoubleValue
6.333

@<SCITEGIC>MOL_PROPERTY
Coulomb
SciTegic.value.DoubleValue
1.215

@<SCITEGIC>MOL_PROPERTY
VdW
SciTegic.value.DoubleValue
0.842

@<SCITEGIC>MOL_PROPERTY
VdW6
SciTegic.value.DoubleValue
-3.344

@<SCITEGIC>MOL_PROPERTY
VdW12
SciTegic.value.DoubleValue
4.186

@<SCITEGIC>MOL_PROPERTY
Bond
SciTegic.value.DoubleValue
0.091

@<SCITEGIC>MOL_PROPERTY
Angle
SciTegic.value.DoubleValue
2.713

@<SCITEGIC>MOL_PROPERTY
Pdih
SciTegic.value.DoubleValue
3.529

@<SCITEGIC>MOL_PROPERTY
Idih
SciTegic.value.DoubleValue
0.000

@<SCITEGIC>MOL_PROPERTY
Tether
SciTegic.value.DoubleValue
0.000

@<TRIPOS>MOLECULE
guest-6_confgen4.mol2 : confsearch ligand conformer 414
          13          12           1
SMALL
USER_CHARGES
 
@<TRIPOS>ATOM
       1    C1      20.642852   18.581229   23.787309 C.2        1 MOL1         0.6021
       2    O1      20.134178   17.607596   24.305623 O.co2      1 MOL1        -0.6904
       3    O2      21.129005   19.499368   24.416623 O.co2      1 MOL1        -0.6904
       4    C2      20.654938   18.664216   22.264657 C.3        1 MOL1        -0.2102
       5    H1      20.738532   17.645105   21.867866 H          1 MOL1         0.0687
       6    H2      21.558941   19.205157   21.959404 H          1 MOL1         0.0687
       7    C3      19.398013   19.359089   21.687475 C.3        1 MOL1        -0.1974
       8    H3      18.498656   18.814650   22.007732 H          1 MOL1         0.0689
       9    H4      19.319294   20.375023   22.099184 H          1 MOL1         0.0689
      10    C4      19.440612   19.426920   20.147711 C.3        1 MOL1        -0.2987
      11    H5      18.542025   19.922402   19.757452 H          1 MOL1         0.0700
      12    H6      20.316300   19.992861   19.803564 H          1 MOL1         0.0700
      13    H7      19.489327   18.420522   19.711423 H          1 MOL1         0.0700
@<TRIPOS>BOND
    1     1     2    1
    2     1     3    2
    3     1     4    1
    4     4     5    1
    5     4     6    1
    6     4     7    1
    7     7     8    1
    8     7     9    1
    9     7    10    1
   10    10    11    1
   11    10    12    1
   12    10    13    1
@<TRIPOS>SUBSTRUCTURE
       1 MOL1            1 RESIDUE      1      MOL     
@<SCITEGIC>MOL_PROPERTY
VConf Rank
SciTegic.value.IntegerValue
414

@<SCITEGIC>MOL_PROPERTY
Conf_Id
SciTegic.value.IntegerValue
1

@<SCITEGIC>MOL_PROPERTY
Delta U+W
SciTegic.value.DoubleValue
-1.339

@<SCITEGIC>MOL_PROPERTY
U+W
SciTegic.value.DoubleValue
-59.672

@<SCITEGIC>MOL_PROPERTY
Grad RMS
SciTegic.value.DoubleValue
0.000000

@<SCITEGIC>MOL_PROPERTY
U
SciTegic.value.DoubleValue
7.389

@<SCITEGIC>MOL_PROPERTY
W
SciTegic.value.DoubleValue
-67.061

@<SCITEGIC>MOL_PROPERTY
W(PB)
SciTegic.value.DoubleValue
-68.767

@<SCITEGIC>MOL_PROPERTY
W(SA)
SciTegic.value.DoubleValue
1.707

@<SCITEGIC>MOL_PROPERTY
Valence
SciTegic.value.DoubleValue
5.822

@<SCITEGIC>MOL_PROPERTY
Coulomb
SciTegic.value.DoubleValue
1.255

@<SCITEGIC>MOL_PROPERTY
VdW
SciTegic.value.DoubleValue
0.312

@<SCITEGIC>MOL_PROPERTY
VdW6
SciTegic.value.DoubleValue
-3.061

@<SCITEGIC>MOL_PROPERTY
VdW12
SciTegic.value.DoubleValue
3.372

@<SCITEGIC>MOL_PROPERTY
Bond
SciTegic.value.DoubleValue
0.059

@<SCITEGIC>MOL_PROPERTY
Angle
SciTegic.value.DoubleValue
2.241

@<SCITEGIC>MOL_PROPERTY
Pdih
SciTegic.value.DoubleValue
3.522

@<SCITEGIC>MOL_PROPERTY
Idih
SciTegic.value.DoubleValue
0.000

@<SCITEGIC>MOL_PROPERTY
Tether
SciTegic.value.DoubleValue
0.000

@<TRIPOS>MOLECULE
guest-6_confgen4.mol2 : confsearch ligand conformer 415
          13          12           1
SMALL
USER_CHARGES
 
@<TRIPOS>ATOM
       1    C1      18.808123   17.770323   21.791452 C.2        1 MOL1         0.6021
       2    O1      17.676010   18.203151   21.875579 O.co2      1 MOL1        -0.6904
       3    O2      19.144970   16.929217   20.982144 O.co2      1 MOL1        -0.6904
       4    C2      19.851672   18.285985   22.779291 C.3        1 MOL1        -0.2102
       5    H1      20.700031   17.590661   22.789175 H          1 MOL1         0.0687
       6    H2      19.401633   18.250556   23.778589 H          1 MOL1         0.0687
       7    C3      20.345198   19.726221   22.486903 C.3        1 MOL1        -0.1974
       8    H3      19.483970   20.407277   22.438219 H          1 MOL1         0.0689
       9    H4      20.971454   20.068562   23.322056 H          1 MOL1         0.0689
      10    C4      21.156612   19.817938   21.178039 C.3        1 MOL1        -0.2987
      11    H5      20.546058   19.524478   20.313786 H          1 MOL1         0.0700
      12    H6      21.507047   20.844819   21.011290 H          1 MOL1         0.0700
      13    H7      22.035405   19.160821   21.214253 H          1 MOL1         0.0700
@<TRIPOS>BOND
    1     1     2    1
    2     1     3    2
    3     1     4    1
    4     4     5    1
    5     4     6    1
    6     4     7    1
    7     7     8    1
    8     7     9    1
    9     7    10    1
   10    10    11    1
   11    10    12    1
   12    10    13    1
@<TRIPOS>SUBSTRUCTURE
       1 MOL1            1 RESIDUE      1      MOL     
@<SCITEGIC>MOL_PROPERTY
VConf Rank
SciTegic.value.IntegerValue
415

@<SCITEGIC>MOL_PROPERTY
Conf_Id
SciTegic.value.IntegerValue
4

@<SCITEGIC>MOL_PROPERTY
Delta U+W
SciTegic.value.DoubleValue
0.281

@<SCITEGIC>MOL_PROPERTY
U+W
SciTegic.value.DoubleValue
-58.051

@<SCITEGIC>MOL_PROPERTY
Grad RMS
SciTegic.value.DoubleValue
0.000000

@<SCITEGIC>MOL_PROPERTY
U
SciTegic.value.DoubleValue
9.781

@<SCITEGIC>MOL_PROPERTY
W
SciTegic.value.DoubleValue
-67.832

@<SCITEGIC>MOL_PROPERTY
W(PB)
SciTegic.value.DoubleValue
-69.535

@<SCITEGIC>MOL_PROPERTY
W(SA)
SciTegic.value.DoubleValue
1.703

@<SCITEGIC>MOL_PROPERTY
Valence
SciTegic.value.DoubleValue
6.123

@<SCITEGIC>MOL_PROPERTY
Coulomb
SciTegic.value.DoubleValue
3.449

@<SCITEGIC>MOL_PROPERTY
VdW
SciTegic.value.DoubleValue
0.209

@<SCITEGIC>MOL_PROPERTY
VdW6
SciTegic.value.DoubleValue
-3.762

@<SCITEGIC>MOL_PROPERTY
VdW12
SciTegic.value.DoubleValue
3.972

@<SCITEGIC>MOL_PROPERTY
Bond
SciTegic.value.DoubleValue
0.078

@<SCITEGIC>MOL_PROPERTY
Angle
SciTegic.value.DoubleValue
2.428

@<SCITEGIC>MOL_PROPERTY
Pdih
SciTegic.value.DoubleValue
3.616

@<SCITEGIC>MOL_PROPERTY
Idih
SciTegic.value.DoubleValue
0.002

@<SCITEGIC>MOL_PROPERTY
Tether
SciTegic.value.DoubleValue
0.000

@<TRIPOS>MOLECULE
guest-6_confgen4.mol2 : confsearch ligand conformer 416
          13          12           1
SMALL
USER_CHARGES
 
@<TRIPOS>ATOM
       1    C1      19.524186   17.685980   23.099394 C.2        1 MOL1         0.6021
       2    O1      20.423044   16.903258   23.334568 O.co2      1 MOL1        -0.6904
       3    O2      18.703546   18.031270   23.926087 O.co2      1 MOL1        -0.6904
       4    C2      19.395384   18.238636   21.682106 C.3        1 MOL1        -0.2102
       5    H1      18.345602   18.132190   21.383755 H          1 MOL1         0.0687
       6    H2      19.982903   17.607490   21.004048 H          1 MOL1         0.0687
       7    C3      19.824607   19.721282   21.537650 C.3        1 MOL1        -0.1974
       8    H3      19.559244   20.076489   20.532522 H          1 MOL1         0.0689
       9    H4      19.259696   20.338730   22.250079 H          1 MOL1         0.0689
      10    C4      21.337958   19.922121   21.759814 C.3        1 MOL1        -0.2987
      11    H5      21.921813   19.330330   21.042675 H          1 MOL1         0.0700
      12    H6      21.611120   20.977551   21.631178 H          1 MOL1         0.0700
      13    H7      21.631908   19.617848   22.773144 H          1 MOL1         0.0700
@<TRIPOS>BOND
    1     1     2    1
    2     1     3    2
    3     1     4    1
    4     4     5    1
    5     4     6    1
    6     4     7    1
    7     7     8    1
    8     7     9    1
    9     7    10    1
   10    10    11    1
   11    10    12    1
   12    10    13    1
@<TRIPOS>SUBSTRUCTURE
       1 MOL1            1 RESIDUE      1      MOL     
@<SCITEGIC>MOL_PROPERTY
VConf Rank
SciTegic.value.IntegerValue
416

@<SCITEGIC>MOL_PROPERTY
Conf_Id
SciTegic.value.IntegerValue
36

@<SCITEGIC>MOL_PROPERTY
Delta U+W
SciTegic.value.DoubleValue
0.272

@<SCITEGIC>MOL_PROPERTY
U+W
SciTegic.value.DoubleValue
-58.060

@<SCITEGIC>MOL_PROPERTY
Grad RMS
SciTegic.value.DoubleValue
0.000000

@<SCITEGIC>MOL_PROPERTY
U
SciTegic.value.DoubleValue
9.781

@<SCITEGIC>MOL_PROPERTY
W
SciTegic.value.DoubleValue
-67.841

@<SCITEGIC>MOL_PROPERTY
W(PB)
SciTegic.value.DoubleValue
-69.537

@<SCITEGIC>MOL_PROPERTY
W(SA)
SciTegic.value.DoubleValue
1.696

@<SCITEGIC>MOL_PROPERTY
Valence
SciTegic.value.DoubleValue
6.123

@<SCITEGIC>MOL_PROPERTY
Coulomb
SciTegic.value.DoubleValue
3.449

@<SCITEGIC>MOL_PROPERTY
VdW
SciTegic.value.DoubleValue
0.209

@<SCITEGIC>MOL_PROPERTY
VdW6
SciTegic.value.DoubleValue
-3.762

@<SCITEGIC>MOL_PROPERTY
VdW12
SciTegic.value.DoubleValue
3.972

@<SCITEGIC>MOL_PROPERTY
Bond
SciTegic.value.DoubleValue
0.078

@<SCITEGIC>MOL_PROPERTY
Angle
SciTegic.value.DoubleValue
2.428

@<SCITEGIC>MOL_PROPERTY
Pdih
SciTegic.value.DoubleValue
3.616

@<SCITEGIC>MOL_PROPERTY
Idih
SciTegic.value.DoubleValue
0.002

@<SCITEGIC>MOL_PROPERTY
Tether
SciTegic.value.DoubleValue
0.000

@<TRIPOS>MOLECULE
guest-6_confgen4.mol2 : confsearch ligand conformer 417
          13          12           1
SMALL
USER_CHARGES
 
@<TRIPOS>ATOM
       1    C1      21.304058   17.604324   22.798406 C.2        1 MOL1         0.6021
       2    O1      22.275689   18.307134   22.996699 O.co2      1 MOL1        -0.6904
       3    O2      21.251239   16.438654   23.134887 O.co2      1 MOL1        -0.6904
       4    C2      20.075923   18.185183   22.094865 C.3        1 MOL1        -0.2102
       5    H1      19.219555   18.051104   22.766426 H          1 MOL1         0.0687
       6    H2      19.885756   17.570703   21.206841 H          1 MOL1         0.0687
       7    C3      20.189019   19.676554   21.683794 C.3        1 MOL1        -0.1974
       8    H3      20.382474   20.290248   22.574698 H          1 MOL1         0.0689
       9    H4      21.049546   19.809274   21.013248 H          1 MOL1         0.0689
      10    C4      18.907969   20.172996   20.983586 C.3        1 MOL1        -0.2987
      11    H5      18.036993   20.079632   21.645558 H          1 MOL1         0.0700
      12    H6      19.006767   21.229087   20.700447 H          1 MOL1         0.0700
      13    H7      18.709403   19.594750   20.071596 H          1 MOL1         0.0700
@<TRIPOS>BOND
    1     1     2    1
    2     1     3    2
    3     1     4    1
    4     4     5    1
    5     4     6    1
    6     4     7    1
    7     7     8    1
    8     7     9    1
    9     7    10    1
   10    10    11    1
   11    10    12    1
   12    10    13    1
@<TRIPOS>SUBSTRUCTURE
       1 MOL1            1 RESIDUE      1      MOL     
@<SCITEGIC>MOL_PROPERTY
VConf Rank
SciTegic.value.IntegerValue
417

@<SCITEGIC>MOL_PROPERTY
Conf_Id
SciTegic.value.IntegerValue
0

@<SCITEGIC>MOL_PROPERTY
Delta U+W
SciTegic.value.DoubleValue
0.000

@<SCITEGIC>MOL_PROPERTY
U+W
SciTegic.value.DoubleValue
-58.332

@<SCITEGIC>MOL_PROPERTY
Grad RMS
SciTegic.value.DoubleValue
0.000000

@<SCITEGIC>MOL_PROPERTY
U
SciTegic.value.DoubleValue
8.390

@<SCITEGIC>MOL_PROPERTY
W
SciTegic.value.DoubleValue
-66.722

@<SCITEGIC>MOL_PROPERTY
W(PB)
SciTegic.value.DoubleValue
-68.455

@<SCITEGIC>MOL_PROPERTY
W(SA)
SciTegic.value.DoubleValue
1.733

@<SCITEGIC>MOL_PROPERTY
Valence
SciTegic.value.DoubleValue
6.333

@<SCITEGIC>MOL_PROPERTY
Coulomb
SciTegic.value.DoubleValue
1.215

@<SCITEGIC>MOL_PROPERTY
VdW
SciTegic.value.DoubleValue
0.842

@<SCITEGIC>MOL_PROPERTY
VdW6
SciTegic.value.DoubleValue
-3.344

@<SCITEGIC>MOL_PROPERTY
VdW12
SciTegic.value.DoubleValue
4.186

@<SCITEGIC>MOL_PROPERTY
Bond
SciTegic.value.DoubleValue
0.091

@<SCITEGIC>MOL_PROPERTY
Angle
SciTegic.value.DoubleValue
2.713

@<SCITEGIC>MOL_PROPERTY
Pdih
SciTegic.value.DoubleValue
3.529

@<SCITEGIC>MOL_PROPERTY
Idih
SciTegic.value.DoubleValue
0.000

@<SCITEGIC>MOL_PROPERTY
Tether
SciTegic.value.DoubleValue
0.000

@<TRIPOS>MOLECULE
guest-6_confgen4.mol2 : confsearch ligand conformer 418
          13          12           1
SMALL
USER_CHARGES
 
@<TRIPOS>ATOM
       1    C1      21.311912   20.683939   21.746710 C.2        1 MOL1         0.6021
       2    O1      22.493029   20.425653   21.863377 O.co2      1 MOL1        -0.6904
       3    O2      20.832919   21.768443   22.010863 O.co2      1 MOL1        -0.6904
       4    C2      20.377100   19.581642   21.260328 C.3        1 MOL1        -0.2102
       5    H1      20.935700   18.941844   20.566322 H          1 MOL1         0.0687
       6    H2      19.566684   20.049192   20.687929 H          1 MOL1         0.0687
       7    C3      19.792546   18.732196   22.414706 C.3        1 MOL1        -0.1974
       8    H3      20.613180   18.277071   22.986757 H          1 MOL1         0.0689
       9    H4      19.243808   19.384601   23.108303 H          1 MOL1         0.0689
      10    C4      18.852861   17.627860   21.890566 C.3        1 MOL1        -0.2987
      11    H5      18.448708   17.036851   22.722810 H          1 MOL1         0.0700
      12    H6      18.007170   18.060441   21.339896 H          1 MOL1         0.0700
      13    H7      19.387059   16.944404   21.217456 H          1 MOL1         0.0700
@<TRIPOS>BOND
    1     1     2    1
    2     1     3    2
    3     1     4    1
    4     4     5    1
    5     4     6    1
    6     4     7    1
    7     7     8    1
    8     7     9    1
    9     7    10    1
   10    10    11    1
   11    10    12    1
   12    10    13    1
@<TRIPOS>SUBSTRUCTURE
       1 MOL1            1 RESIDUE      1      MOL     
@<SCITEGIC>MOL_PROPERTY
VConf Rank
SciTegic.value.IntegerValue
418

@<SCITEGIC>MOL_PROPERTY
Conf_Id
SciTegic.value.IntegerValue
1

@<SCITEGIC>MOL_PROPERTY
Delta U+W
SciTegic.value.DoubleValue
-1.339

@<SCITEGIC>MOL_PROPERTY
U+W
SciTegic.value.DoubleValue
-59.672

@<SCITEGIC>MOL_PROPERTY
Grad RMS
SciTegic.value.DoubleValue
0.000000

@<SCITEGIC>MOL_PROPERTY
U
SciTegic.value.DoubleValue
7.389

@<SCITEGIC>MOL_PROPERTY
W
SciTegic.value.DoubleValue
-67.061

@<SCITEGIC>MOL_PROPERTY
W(PB)
SciTegic.value.DoubleValue
-68.767

@<SCITEGIC>MOL_PROPERTY
W(SA)
SciTegic.value.DoubleValue
1.707

@<SCITEGIC>MOL_PROPERTY
Valence
SciTegic.value.DoubleValue
5.822

@<SCITEGIC>MOL_PROPERTY
Coulomb
SciTegic.value.DoubleValue
1.255

@<SCITEGIC>MOL_PROPERTY
VdW
SciTegic.value.DoubleValue
0.312

@<SCITEGIC>MOL_PROPERTY
VdW6
SciTegic.value.DoubleValue
-3.061

@<SCITEGIC>MOL_PROPERTY
VdW12
SciTegic.value.DoubleValue
3.372

@<SCITEGIC>MOL_PROPERTY
Bond
SciTegic.value.DoubleValue
0.059

@<SCITEGIC>MOL_PROPERTY
Angle
SciTegic.value.DoubleValue
2.241

@<SCITEGIC>MOL_PROPERTY
Pdih
SciTegic.value.DoubleValue
3.522

@<SCITEGIC>MOL_PROPERTY
Idih
SciTegic.value.DoubleValue
0.000

@<SCITEGIC>MOL_PROPERTY
Tether
SciTegic.value.DoubleValue
0.000

@<TRIPOS>MOLECULE
guest-6_confgen4.mol2 : confsearch ligand conformer 419
          13          12           1
SMALL
USER_CHARGES
 
@<TRIPOS>ATOM
       1    C1      21.825745   18.677046   21.512659 C.2        1 MOL1         0.6021
       2    O1      22.048736   17.619879   20.956985 O.co2      1 MOL1        -0.6904
       3    O2      22.341188   19.727321   21.185329 O.co2      1 MOL1        -0.6904
       4    C2      20.875101   18.676422   22.707231 C.3        1 MOL1        -0.2102
       5    H1      21.026898   19.601017   23.277642 H          1 MOL1         0.0687
       6    H2      21.172654   17.848317   23.361516 H          1 MOL1         0.0687
       7    C3      19.379789   18.522342   22.328230 C.3        1 MOL1        -0.1974
       8    H3      19.245583   17.615253   21.722341 H          1 MOL1         0.0689
       9    H4      18.789239   18.380626   23.243675 H          1 MOL1         0.0689
      10    C4      18.835833   19.745868   21.562055 C.3        1 MOL1        -0.2987
      11    H5      19.375544   19.891591   20.616907 H          1 MOL1         0.0700
      12    H6      17.771814   19.613233   21.326751 H          1 MOL1         0.0700
      13    H7      18.940057   20.661095   22.159456 H          1 MOL1         0.0700
@<TRIPOS>BOND
    1     1     2    1
    2     1     3    2
    3     1     4    1
    4     4     5    1
    5     4     6    1
    6     4     7    1
    7     7     8    1
    8     7     9    1
    9     7    10    1
   10    10    11    1
   11    10    12    1
   12    10    13    1
@<TRIPOS>SUBSTRUCTURE
       1 MOL1            1 RESIDUE      1      MOL     
@<SCITEGIC>MOL_PROPERTY
VConf Rank
SciTegic.value.IntegerValue
419

@<SCITEGIC>MOL_PROPERTY
Conf_Id
SciTegic.value.IntegerValue
4

@<SCITEGIC>MOL_PROPERTY
Delta U+W
SciTegic.value.DoubleValue
0.281

@<SCITEGIC>MOL_PROPERTY
U+W
SciTegic.value.DoubleValue
-58.051

@<SCITEGIC>MOL_PROPERTY
Grad RMS
SciTegic.value.DoubleValue
0.000000

@<SCITEGIC>MOL_PROPERTY
U
SciTegic.value.DoubleValue
9.781

@<SCITEGIC>MOL_PROPERTY
W
SciTegic.value.DoubleValue
-67.832

@<SCITEGIC>MOL_PROPERTY
W(PB)
SciTegic.value.DoubleValue
-69.535

@<SCITEGIC>MOL_PROPERTY
W(SA)
SciTegic.value.DoubleValue
1.703

@<SCITEGIC>MOL_PROPERTY
Valence
SciTegic.value.DoubleValue
6.123

@<SCITEGIC>MOL_PROPERTY
Coulomb
SciTegic.value.DoubleValue
3.449

@<SCITEGIC>MOL_PROPERTY
VdW
SciTegic.value.DoubleValue
0.209

@<SCITEGIC>MOL_PROPERTY
VdW6
SciTegic.value.DoubleValue
-3.762

@<SCITEGIC>MOL_PROPERTY
VdW12
SciTegic.value.DoubleValue
3.972

@<SCITEGIC>MOL_PROPERTY
Bond
SciTegic.value.DoubleValue
0.078

@<SCITEGIC>MOL_PROPERTY
Angle
SciTegic.value.DoubleValue
2.428

@<SCITEGIC>MOL_PROPERTY
Pdih
SciTegic.value.DoubleValue
3.616

@<SCITEGIC>MOL_PROPERTY
Idih
SciTegic.value.DoubleValue
0.002

@<SCITEGIC>MOL_PROPERTY
Tether
SciTegic.value.DoubleValue
0.000

@<TRIPOS>MOLECULE
guest-6_confgen4.mol2 : confsearch ligand conformer 420
          13          12           1
SMALL
USER_CHARGES
 
@<TRIPOS>ATOM
       1    C1      18.678676   18.309577   22.838463 C.2        1 MOL1         0.6021
       2    O1      18.458937   17.180649   22.447130 O.co2      1 MOL1        -0.6904
       3    O2      18.529798   18.659109   23.992482 O.co2      1 MOL1        -0.6904
       4    C2      19.131411   19.354790   21.821956 C.3        1 MOL1        -0.2102
       5    H1      18.512350   20.247211   21.972733 H          1 MOL1         0.0687
       6    H2      18.910963   18.983060   20.813737 H          1 MOL1         0.0687
       7    C3      20.628646   19.741180   21.932990 C.3        1 MOL1        -0.1974
       8    H3      20.829176   20.597356   21.274490 H          1 MOL1         0.0689
       9    H4      20.847826   20.072803   22.957640 H          1 MOL1         0.0689
      10    C4      21.568227   18.579374   21.549169 C.3        1 MOL1        -0.2987
      11    H5      21.380916   18.246899   20.519719 H          1 MOL1         0.0700
      12    H6      22.618281   18.891698   21.619430 H          1 MOL1         0.0700
      13    H7      21.425803   17.719469   22.217081 H          1 MOL1         0.0700
@<TRIPOS>BOND
    1     1     2    1
    2     1     3    2
    3     1     4    1
    4     4     5    1
    5     4     6    1
    6     4     7    1
    7     7     8    1
    8     7     9    1
    9     7    10    1
   10    10    11    1
   11    10    12    1
   12    10    13    1
@<TRIPOS>SUBSTRUCTURE
       1 MOL1            1 RESIDUE      1      MOL     
@<SCITEGIC>MOL_PROPERTY
VConf Rank
SciTegic.value.IntegerValue
420

@<SCITEGIC>MOL_PROPERTY
Conf_Id
SciTegic.value.IntegerValue
36

@<SCITEGIC>MOL_PROPERTY
Delta U+W
SciTegic.value.DoubleValue
0.272

@<SCITEGIC>MOL_PROPERTY
U+W
SciTegic.value.DoubleValue
-58.060

@<SCITEGIC>MOL_PROPERTY
Grad RMS
SciTegic.value.DoubleValue
0.000000

@<SCITEGIC>MOL_PROPERTY
U
SciTegic.value.DoubleValue
9.781

@<SCITEGIC>MOL_PROPERTY
W
SciTegic.value.DoubleValue
-67.841

@<SCITEGIC>MOL_PROPERTY
W(PB)
SciTegic.value.DoubleValue
-69.537

@<SCITEGIC>MOL_PROPERTY
W(SA)
SciTegic.value.DoubleValue
1.696

@<SCITEGIC>MOL_PROPERTY
Valence
SciTegic.value.DoubleValue
6.123

@<SCITEGIC>MOL_PROPERTY
Coulomb
SciTegic.value.DoubleValue
3.449

@<SCITEGIC>MOL_PROPERTY
VdW
SciTegic.value.DoubleValue
0.209

@<SCITEGIC>MOL_PROPERTY
VdW6
SciTegic.value.DoubleValue
-3.762

@<SCITEGIC>MOL_PROPERTY
VdW12
SciTegic.value.DoubleValue
3.972

@<SCITEGIC>MOL_PROPERTY
Bond
SciTegic.value.DoubleValue
0.078

@<SCITEGIC>MOL_PROPERTY
Angle
SciTegic.value.DoubleValue
2.428

@<SCITEGIC>MOL_PROPERTY
Pdih
SciTegic.value.DoubleValue
3.616

@<SCITEGIC>MOL_PROPERTY
Idih
SciTegic.value.DoubleValue
0.002

@<SCITEGIC>MOL_PROPERTY
Tether
SciTegic.value.DoubleValue
0.000

@<TRIPOS>MOLECULE
guest-6_confgen4.mol2 : confsearch ligand conformer 421
          13          12           1
SMALL
USER_CHARGES
 
@<TRIPOS>ATOM
       1    C1      20.889766   17.190098   22.540076 C.2        1 MOL1         0.6021
       2    O1      20.502982   16.413917   21.688448 O.co2      1 MOL1        -0.6904
       3    O2      21.578940   16.850435   23.480537 O.co2      1 MOL1        -0.6904
       4    C2      20.507653   18.668889   22.451484 C.3        1 MOL1        -0.2102
       5    H1      21.438920   19.247440   22.432557 H          1 MOL1         0.0687
       6    H2      19.987738   18.929289   23.381117 H          1 MOL1         0.0687
       7    C3      19.627306   19.055945   21.234467 C.3        1 MOL1        -0.1974
       8    H3      20.148875   18.791512   20.303985 H          1 MOL1         0.0689
       9    H4      18.695931   18.472912   21.253667 H          1 MOL1         0.0689
      10    C4      19.293531   20.561401   21.228880 C.3        1 MOL1        -0.2987
      11    H5      20.208323   21.166499   21.178538 H          1 MOL1         0.0700
      12    H6      18.670670   20.815967   20.361413 H          1 MOL1         0.0700
      13    H7      18.743757   20.845339   22.135881 H          1 MOL1         0.0700
@<TRIPOS>BOND
    1     1     2    1
    2     1     3    2
    3     1     4    1
    4     4     5    1
    5     4     6    1
    6     4     7    1
    7     7     8    1
    8     7     9    1
    9     7    10    1
   10    10    11    1
   11    10    12    1
   12    10    13    1
@<TRIPOS>SUBSTRUCTURE
       1 MOL1            1 RESIDUE      1      MOL     
@<SCITEGIC>MOL_PROPERTY
VConf Rank
SciTegic.value.IntegerValue
421

@<SCITEGIC>MOL_PROPERTY
Conf_Id
SciTegic.value.IntegerValue
0

@<SCITEGIC>MOL_PROPERTY
Delta U+W
SciTegic.value.DoubleValue
0.000

@<SCITEGIC>MOL_PROPERTY
U+W
SciTegic.value.DoubleValue
-58.332

@<SCITEGIC>MOL_PROPERTY
Grad RMS
SciTegic.value.DoubleValue
0.000000

@<SCITEGIC>MOL_PROPERTY
U
SciTegic.value.DoubleValue
8.390

@<SCITEGIC>MOL_PROPERTY
W
SciTegic.value.DoubleValue
-66.722

@<SCITEGIC>MOL_PROPERTY
W(PB)
SciTegic.value.DoubleValue
-68.455

@<SCITEGIC>MOL_PROPERTY
W(SA)
SciTegic.value.DoubleValue
1.733

@<SCITEGIC>MOL_PROPERTY
Valence
SciTegic.value.DoubleValue
6.333

@<SCITEGIC>MOL_PROPERTY
Coulomb
SciTegic.value.DoubleValue
1.215

@<SCITEGIC>MOL_PROPERTY
VdW
SciTegic.value.DoubleValue
0.842

@<SCITEGIC>MOL_PROPERTY
VdW6
SciTegic.value.DoubleValue
-3.344

@<SCITEGIC>MOL_PROPERTY
VdW12
SciTegic.value.DoubleValue
4.186

@<SCITEGIC>MOL_PROPERTY
Bond
SciTegic.value.DoubleValue
0.091

@<SCITEGIC>MOL_PROPERTY
Angle
SciTegic.value.DoubleValue
2.713

@<SCITEGIC>MOL_PROPERTY
Pdih
SciTegic.value.DoubleValue
3.529

@<SCITEGIC>MOL_PROPERTY
Idih
SciTegic.value.DoubleValue
0.000

@<SCITEGIC>MOL_PROPERTY
Tether
SciTegic.value.DoubleValue
0.000

@<TRIPOS>MOLECULE
guest-6_confgen4.mol2 : confsearch ligand conformer 422
          13          12           1
SMALL
USER_CHARGES
 
@<TRIPOS>ATOM
       1    C1      19.981863   18.171197   23.757136 C.2        1 MOL1         0.6021
       2    O1      19.328332   17.154965   23.881765 O.co2      1 MOL1        -0.6904
       3    O2      20.247483   18.915521   24.679518 O.co2      1 MOL1        -0.6904
       4    C2      20.479728   18.542379   22.364350 C.3        1 MOL1        -0.2102
       5    H1      20.679226   17.614490   21.814584 H          1 MOL1         0.0687
       6    H2      21.437226   19.066333   22.472462 H          1 MOL1         0.0687
       7    C3      19.477056   19.421829   21.578815 C.3        1 MOL1        -0.1974
       8    H3      18.519151   18.891258   21.485365 H          1 MOL1         0.0689
       9    H4      19.277398   20.343414   22.143298 H          1 MOL1         0.0689
      10    C4      20.009205   19.779283   20.176555 C.3        1 MOL1        -0.2987
      11    H5      19.285238   20.402474   19.635477 H          1 MOL1         0.0700
      12    H6      20.952436   20.337142   20.244839 H          1 MOL1         0.0700
      13    H7      20.188331   18.873851   19.581859 H          1 MOL1         0.0700
@<TRIPOS>BOND
    1     1     2    1
    2     1     3    2
    3     1     4    1
    4     4     5    1
    5     4     6    1
    6     4     7    1
    7     7     8    1
    8     7     9    1
    9     7    10    1
   10    10    11    1
   11    10    12    1
   12    10    13    1
@<TRIPOS>SUBSTRUCTURE
       1 MOL1            1 RESIDUE      1      MOL     
@<SCITEGIC>MOL_PROPERTY
VConf Rank
SciTegic.value.IntegerValue
422

@<SCITEGIC>MOL_PROPERTY
Conf_Id
SciTegic.value.IntegerValue
1

@<SCITEGIC>MOL_PROPERTY
Delta U+W
SciTegic.value.DoubleValue
-1.339

@<SCITEGIC>MOL_PROPERTY
U+W
SciTegic.value.DoubleValue
-59.672

@<SCITEGIC>MOL_PROPERTY
Grad RMS
SciTegic.value.DoubleValue
0.000000

@<SCITEGIC>MOL_PROPERTY
U
SciTegic.value.DoubleValue
7.389

@<SCITEGIC>MOL_PROPERTY
W
SciTegic.value.DoubleValue
-67.061

@<SCITEGIC>MOL_PROPERTY
W(PB)
SciTegic.value.DoubleValue
-68.767

@<SCITEGIC>MOL_PROPERTY
W(SA)
SciTegic.value.DoubleValue
1.707

@<SCITEGIC>MOL_PROPERTY
Valence
SciTegic.value.DoubleValue
5.822

@<SCITEGIC>MOL_PROPERTY
Coulomb
SciTegic.value.DoubleValue
1.255

@<SCITEGIC>MOL_PROPERTY
VdW
SciTegic.value.DoubleValue
0.312

@<SCITEGIC>MOL_PROPERTY
VdW6
SciTegic.value.DoubleValue
-3.061

@<SCITEGIC>MOL_PROPERTY
VdW12
SciTegic.value.DoubleValue
3.372

@<SCITEGIC>MOL_PROPERTY
Bond
SciTegic.value.DoubleValue
0.059

@<SCITEGIC>MOL_PROPERTY
Angle
SciTegic.value.DoubleValue
2.241

@<SCITEGIC>MOL_PROPERTY
Pdih
SciTegic.value.DoubleValue
3.522

@<SCITEGIC>MOL_PROPERTY
Idih
SciTegic.value.DoubleValue
0.000

@<SCITEGIC>MOL_PROPERTY
Tether
SciTegic.value.DoubleValue
0.000

@<TRIPOS>MOLECULE
guest-6_confgen4.mol2 : confsearch ligand conformer 423
          13          12           1
SMALL
USER_CHARGES
 
@<TRIPOS>ATOM
       1    C1      18.517538   19.187006   22.757197 C.2        1 MOL1         0.6021
       2    O1      18.515212   19.683660   23.865993 O.co2      1 MOL1        -0.6904
       3    O2      17.695837   19.452790   21.902756 O.co2      1 MOL1        -0.6904
       4    C2      19.588985   18.148133   22.435528 C.3        1 MOL1        -0.2102
       5    H1      19.272469   17.578465   21.553154 H          1 MOL1         0.0687
       6    H2      19.621536   17.441673   23.273526 H          1 MOL1         0.0687
       7    C3      21.002170   18.743490   22.207938 C.3        1 MOL1        -0.1974
       8    H3      21.292248   19.345923   23.080206 H          1 MOL1         0.0689
       9    H4      21.730252   17.924156   22.134038 H          1 MOL1         0.0689
      10    C4      21.081284   19.604632   20.930399 C.3        1 MOL1        -0.2987
      11    H5      20.396399   20.461001   20.988642 H          1 MOL1         0.0700
      12    H6      22.097889   19.993859   20.788583 H          1 MOL1         0.0700
      13    H7      20.816366   19.015220   20.042815 H          1 MOL1         0.0700
@<TRIPOS>BOND
    1     1     2    1
    2     1     3    2
    3     1     4    1
    4     4     5    1
    5     4     6    1
    6     4     7    1
    7     7     8    1
    8     7     9    1
    9     7    10    1
   10    10    11    1
   11    10    12    1
   12    10    13    1
@<TRIPOS>SUBSTRUCTURE
       1 MOL1            1 RESIDUE      1      MOL     
@<SCITEGIC>MOL_PROPERTY
VConf Rank
SciTegic.value.IntegerValue
423

@<SCITEGIC>MOL_PROPERTY
Conf_Id
SciTegic.value.IntegerValue
4

@<SCITEGIC>MOL_PROPERTY
Delta U+W
SciTegic.value.DoubleValue
0.281

@<SCITEGIC>MOL_PROPERTY
U+W
SciTegic.value.DoubleValue
-58.051

@<SCITEGIC>MOL_PROPERTY
Grad RMS
SciTegic.value.DoubleValue
0.000000

@<SCITEGIC>MOL_PROPERTY
U
SciTegic.value.DoubleValue
9.781

@<SCITEGIC>MOL_PROPERTY
W
SciTegic.value.DoubleValue
-67.832

@<SCITEGIC>MOL_PROPERTY
W(PB)
SciTegic.value.DoubleValue
-69.535

@<SCITEGIC>MOL_PROPERTY
W(SA)
SciTegic.value.DoubleValue
1.703

@<SCITEGIC>MOL_PROPERTY
Valence
SciTegic.value.DoubleValue
6.123

@<SCITEGIC>MOL_PROPERTY
Coulomb
SciTegic.value.DoubleValue
3.449

@<SCITEGIC>MOL_PROPERTY
VdW
SciTegic.value.DoubleValue
0.209

@<SCITEGIC>MOL_PROPERTY
VdW6
SciTegic.value.DoubleValue
-3.762

@<SCITEGIC>MOL_PROPERTY
VdW12
SciTegic.value.DoubleValue
3.972

@<SCITEGIC>MOL_PROPERTY
Bond
SciTegic.value.DoubleValue
0.078

@<SCITEGIC>MOL_PROPERTY
Angle
SciTegic.value.DoubleValue
2.428

@<SCITEGIC>MOL_PROPERTY
Pdih
SciTegic.value.DoubleValue
3.616

@<SCITEGIC>MOL_PROPERTY
Idih
SciTegic.value.DoubleValue
0.002

@<SCITEGIC>MOL_PROPERTY
Tether
SciTegic.value.DoubleValue
0.000

@<TRIPOS>MOLECULE
guest-6_confgen4.mol2 : confsearch ligand conformer 424
          13          12           1
SMALL
USER_CHARGES
 
@<TRIPOS>ATOM
       1    C1      21.237822   20.312339   22.380269 C.2        1 MOL1         0.6021
       2    O1      21.037094   20.699032   23.514324 O.co2      1 MOL1        -0.6904
       3    O2      22.343891   20.242946   21.882379 O.co2      1 MOL1        -0.6904
       4    C2      20.035881   19.926715   21.521574 C.3        1 MOL1        -0.2102
       5    H1      20.153338   20.425131   20.551949 H          1 MOL1         0.0687
       6    H2      19.128962   20.338224   21.981405 H          1 MOL1         0.0687
       7    C3      19.877186   18.400469   21.300839 C.3        1 MOL1        -0.1974
       8    H3      19.087930   18.224516   20.557208 H          1 MOL1         0.0689
       9    H4      20.805772   17.991489   20.878482 H          1 MOL1         0.0689
      10    C4      19.521149   17.649821   22.600721 C.3        1 MOL1        -0.2987
      11    H5      18.583378   18.028320   23.028175 H          1 MOL1         0.0700
      12    H6      19.396850   16.576627   22.406040 H          1 MOL1         0.0700
      13    H7      20.311758   17.767545   23.353651 H          1 MOL1         0.0700
@<TRIPOS>BOND
    1     1     2    1
    2     1     3    2
    3     1     4    1
    4     4     5    1
    5     4     6    1
    6     4     7    1
    7     7     8    1
    8     7     9    1
    9     7    10    1
   10    10    11    1
   11    10    12    1
   12    10    13    1
@<TRIPOS>SUBSTRUCTURE
       1 MOL1            1 RESIDUE      1      MOL     
@<SCITEGIC>MOL_PROPERTY
VConf Rank
SciTegic.value.IntegerValue
424

@<SCITEGIC>MOL_PROPERTY
Conf_Id
SciTegic.value.IntegerValue
36

@<SCITEGIC>MOL_PROPERTY
Delta U+W
SciTegic.value.DoubleValue
0.272

@<SCITEGIC>MOL_PROPERTY
U+W
SciTegic.value.DoubleValue
-58.060

@<SCITEGIC>MOL_PROPERTY
Grad RMS
SciTegic.value.DoubleValue
0.000000

@<SCITEGIC>MOL_PROPERTY
U
SciTegic.value.DoubleValue
9.781

@<SCITEGIC>MOL_PROPERTY
W
SciTegic.value.DoubleValue
-67.841

@<SCITEGIC>MOL_PROPERTY
W(PB)
SciTegic.value.DoubleValue
-69.537

@<SCITEGIC>MOL_PROPERTY
W(SA)
SciTegic.value.DoubleValue
1.696

@<SCITEGIC>MOL_PROPERTY
Valence
SciTegic.value.DoubleValue
6.123

@<SCITEGIC>MOL_PROPERTY
Coulomb
SciTegic.value.DoubleValue
3.449

@<SCITEGIC>MOL_PROPERTY
VdW
SciTegic.value.DoubleValue
0.209

@<SCITEGIC>MOL_PROPERTY
VdW6
SciTegic.value.DoubleValue
-3.762

@<SCITEGIC>MOL_PROPERTY
VdW12
SciTegic.value.DoubleValue
3.972

@<SCITEGIC>MOL_PROPERTY
Bond
SciTegic.value.DoubleValue
0.078

@<SCITEGIC>MOL_PROPERTY
Angle
SciTegic.value.DoubleValue
2.428

@<SCITEGIC>MOL_PROPERTY
Pdih
SciTegic.value.DoubleValue
3.616

@<SCITEGIC>MOL_PROPERTY
Idih
SciTegic.value.DoubleValue
0.002

@<SCITEGIC>MOL_PROPERTY
Tether
SciTegic.value.DoubleValue
0.000

@<TRIPOS>MOLECULE
guest-6_confgen4.mol2 : confsearch ligand conformer 425
          13          12           1
SMALL
USER_CHARGES
 
@<TRIPOS>ATOM
       1    C1      20.184471   19.186493   23.939087 C.2        1 MOL1         0.6021
       2    O1      19.009612   19.147932   24.248197 O.co2      1 MOL1        -0.6904
       3    O2      21.078787   19.303600   24.752278 O.co2      1 MOL1        -0.6904
       4    C2      20.587320   19.085685   22.466595 C.3        1 MOL1        -0.2102
       5    H1      21.265158   18.229194   22.370175 H          1 MOL1         0.0687
       6    H2      21.168702   19.983093   22.223712 H          1 MOL1         0.0687
       7    C3      19.412335   18.937413   21.464905 C.3        1 MOL1        -0.1974
       8    H3      18.829308   18.039156   21.711823 H          1 MOL1         0.0689
       9    H4      18.732685   19.795180   21.565231 H          1 MOL1         0.0689
      10    C4      19.913154   18.843480   20.009504 C.3        1 MOL1        -0.2987
      11    H5      20.570881   17.974579   19.875606 H          1 MOL1         0.0700
      12    H6      19.068450   18.739148   19.316071 H          1 MOL1         0.0700
      13    H7      20.473530   19.744691   19.727866 H          1 MOL1         0.0700
@<TRIPOS>BOND
    1     1     2    1
    2     1     3    2
    3     1     4    1
    4     4     5    1
    5     4     6    1
    6     4     7    1
    7     7     8    1
    8     7     9    1
    9     7    10    1
   10    10    11    1
   11    10    12    1
   12    10    13    1
@<TRIPOS>SUBSTRUCTURE
       1 MOL1            1 RESIDUE      1      MOL     
@<SCITEGIC>MOL_PROPERTY
VConf Rank
SciTegic.value.IntegerValue
425

@<SCITEGIC>MOL_PROPERTY
Conf_Id
SciTegic.value.IntegerValue
0

@<SCITEGIC>MOL_PROPERTY
Delta U+W
SciTegic.value.DoubleValue
0.000

@<SCITEGIC>MOL_PROPERTY
U+W
SciTegic.value.DoubleValue
-58.332

@<SCITEGIC>MOL_PROPERTY
Grad RMS
SciTegic.value.DoubleValue
0.000000

@<SCITEGIC>MOL_PROPERTY
U
SciTegic.value.DoubleValue
8.390

@<SCITEGIC>MOL_PROPERTY
W
SciTegic.value.DoubleValue
-66.722

@<SCITEGIC>MOL_PROPERTY
W(PB)
SciTegic.value.DoubleValue
-68.455

@<SCITEGIC>MOL_PROPERTY
W(SA)
SciTegic.value.DoubleValue
1.733

@<SCITEGIC>MOL_PROPERTY
Valence
SciTegic.value.DoubleValue
6.333

@<SCITEGIC>MOL_PROPERTY
Coulomb
SciTegic.value.DoubleValue
1.215

@<SCITEGIC>MOL_PROPERTY
VdW
SciTegic.value.DoubleValue
0.842

@<SCITEGIC>MOL_PROPERTY
VdW6
SciTegic.value.DoubleValue
-3.344

@<SCITEGIC>MOL_PROPERTY
VdW12
SciTegic.value.DoubleValue
4.186

@<SCITEGIC>MOL_PROPERTY
Bond
SciTegic.value.DoubleValue
0.091

@<SCITEGIC>MOL_PROPERTY
Angle
SciTegic.value.DoubleValue
2.713

@<SCITEGIC>MOL_PROPERTY
Pdih
SciTegic.value.DoubleValue
3.529

@<SCITEGIC>MOL_PROPERTY
Idih
SciTegic.value.DoubleValue
0.000

@<SCITEGIC>MOL_PROPERTY
Tether
SciTegic.value.DoubleValue
0.000

@<TRIPOS>MOLECULE
guest-6_confgen4.mol2 : confsearch ligand conformer 426
          13          12           1
SMALL
USER_CHARGES
 
@<TRIPOS>ATOM
       1    C1      22.025920   18.995881   21.274272 C.2        1 MOL1         0.6021
       2    O1      22.825375   19.252342   22.152032 O.co2      1 MOL1        -0.6904
       3    O2      22.258604   19.141986   20.091111 O.co2      1 MOL1        -0.6904
       4    C2      20.649350   18.480532   21.680435 C.3        1 MOL1        -0.2102
       5    H1      20.762984   17.889414   22.597324 H          1 MOL1         0.0687
       6    H2      20.295602   17.798390   20.897771 H          1 MOL1         0.0687
       7    C3      19.620663   19.615576   21.902529 C.3        1 MOL1        -0.1974
       8    H3      19.989965   20.297706   22.681076 H          1 MOL1         0.0689
       9    H4      19.522405   20.206574   20.981177 H          1 MOL1         0.0689
      10    C4      18.240877   19.062356   22.311709 C.3        1 MOL1        -0.2987
      11    H5      17.525748   19.881204   22.464489 H          1 MOL1         0.0700
      12    H6      17.837017   18.400153   21.534574 H          1 MOL1         0.0700
      13    H7      18.308166   18.492025   23.247525 H          1 MOL1         0.0700
@<TRIPOS>BOND
    1     1     2    1
    2     1     3    2
    3     1     4    1
    4     4     5    1
    5     4     6    1
    6     4     7    1
    7     7     8    1
    8     7     9    1
    9     7    10    1
   10    10    11    1
   11    10    12    1
   12    10    13    1
@<TRIPOS>SUBSTRUCTURE
       1 MOL1            1 RESIDUE      1      MOL     
@<SCITEGIC>MOL_PROPERTY
VConf Rank
SciTegic.value.IntegerValue
426

@<SCITEGIC>MOL_PROPERTY
Conf_Id
SciTegic.value.IntegerValue
1

@<SCITEGIC>MOL_PROPERTY
Delta U+W
SciTegic.value.DoubleValue
-1.339

@<SCITEGIC>MOL_PROPERTY
U+W
SciTegic.value.DoubleValue
-59.672

@<SCITEGIC>MOL_PROPERTY
Grad RMS
SciTegic.value.DoubleValue
0.000000

@<SCITEGIC>MOL_PROPERTY
U
SciTegic.value.DoubleValue
7.389

@<SCITEGIC>MOL_PROPERTY
W
SciTegic.value.DoubleValue
-67.061

@<SCITEGIC>MOL_PROPERTY
W(PB)
SciTegic.value.DoubleValue
-68.767

@<SCITEGIC>MOL_PROPERTY
W(SA)
SciTegic.value.DoubleValue
1.707

@<SCITEGIC>MOL_PROPERTY
Valence
SciTegic.value.DoubleValue
5.822

@<SCITEGIC>MOL_PROPERTY
Coulomb
SciTegic.value.DoubleValue
1.255

@<SCITEGIC>MOL_PROPERTY
VdW
SciTegic.value.DoubleValue
0.312

@<SCITEGIC>MOL_PROPERTY
VdW6
SciTegic.value.DoubleValue
-3.061

@<SCITEGIC>MOL_PROPERTY
VdW12
SciTegic.value.DoubleValue
3.372

@<SCITEGIC>MOL_PROPERTY
Bond
SciTegic.value.DoubleValue
0.059

@<SCITEGIC>MOL_PROPERTY
Angle
SciTegic.value.DoubleValue
2.241

@<SCITEGIC>MOL_PROPERTY
Pdih
SciTegic.value.DoubleValue
3.522

@<SCITEGIC>MOL_PROPERTY
Idih
SciTegic.value.DoubleValue
0.000

@<SCITEGIC>MOL_PROPERTY
Tether
SciTegic.value.DoubleValue
0.000

@<TRIPOS>MOLECULE
guest-6_confgen4.mol2 : confsearch ligand conformer 427
          13          12           1
SMALL
USER_CHARGES
 
@<TRIPOS>ATOM
       1    C1      20.773798   17.849283   23.237663 C.2        1 MOL1         0.6021
       2    O1      21.179586   16.778823   22.830786 O.co2      1 MOL1        -0.6904
       3    O2      21.326987   18.486820   24.111410 O.co2      1 MOL1        -0.6904
       4    C2      19.481139   18.402749   22.643157 C.3        1 MOL1        -0.2102
       5    H1      19.088547   19.176335   23.314515 H          1 MOL1         0.0687
       6    H2      18.748366   17.587031   22.637294 H          1 MOL1         0.0687
       7    C3      19.634005   18.968769   21.208029 C.3        1 MOL1        -0.1974
       8    H3      20.066373   18.199144   20.553309 H          1 MOL1         0.0689
       9    H4      18.638953   19.202807   20.805573 H          1 MOL1         0.0689
      10    C4      20.506858   20.240058   21.164660 C.3        1 MOL1        -0.2987
      11    H5      21.525030   20.032030   21.519453 H          1 MOL1         0.0700
      12    H6      20.578343   20.625428   20.139245 H          1 MOL1         0.0700
      13    H7      20.080200   21.030731   21.795683 H          1 MOL1         0.0700
@<TRIPOS>BOND
    1     1     2    1
    2     1     3    2
    3     1     4    1
    4     4     5    1
    5     4     6    1
    6     4     7    1
    7     7     8    1
    8     7     9    1
    9     7    10    1
   10    10    11    1
   11    10    12    1
   12    10    13    1
@<TRIPOS>SUBSTRUCTURE
       1 MOL1            1 RESIDUE      1      MOL     
@<SCITEGIC>MOL_PROPERTY
VConf Rank
SciTegic.value.IntegerValue
427

@<SCITEGIC>MOL_PROPERTY
Conf_Id
SciTegic.value.IntegerValue
4

@<SCITEGIC>MOL_PROPERTY
Delta U+W
SciTegic.value.DoubleValue
0.281

@<SCITEGIC>MOL_PROPERTY
U+W
SciTegic.value.DoubleValue
-58.051

@<SCITEGIC>MOL_PROPERTY
Grad RMS
SciTegic.value.DoubleValue
0.000000

@<SCITEGIC>MOL_PROPERTY
U
SciTegic.value.DoubleValue
9.781

@<SCITEGIC>MOL_PROPERTY
W
SciTegic.value.DoubleValue
-67.832

@<SCITEGIC>MOL_PROPERTY
W(PB)
SciTegic.value.DoubleValue
-69.535

@<SCITEGIC>MOL_PROPERTY
W(SA)
SciTegic.value.DoubleValue
1.703

@<SCITEGIC>MOL_PROPERTY
Valence
SciTegic.value.DoubleValue
6.123

@<SCITEGIC>MOL_PROPERTY
Coulomb
SciTegic.value.DoubleValue
3.449

@<SCITEGIC>MOL_PROPERTY
VdW
SciTegic.value.DoubleValue
0.209

@<SCITEGIC>MOL_PROPERTY
VdW6
SciTegic.value.DoubleValue
-3.762

@<SCITEGIC>MOL_PROPERTY
VdW12
SciTegic.value.DoubleValue
3.972

@<SCITEGIC>MOL_PROPERTY
Bond
SciTegic.value.DoubleValue
0.078

@<SCITEGIC>MOL_PROPERTY
Angle
SciTegic.value.DoubleValue
2.428

@<SCITEGIC>MOL_PROPERTY
Pdih
SciTegic.value.DoubleValue
3.616

@<SCITEGIC>MOL_PROPERTY
Idih
SciTegic.value.DoubleValue
0.002

@<SCITEGIC>MOL_PROPERTY
Tether
SciTegic.value.DoubleValue
0.000

@<TRIPOS>MOLECULE
guest-6_confgen4.mol2 : confsearch ligand conformer 428
          13          12           1
SMALL
USER_CHARGES
 
@<TRIPOS>ATOM
       1    C1      20.123983   17.826789   23.378187 C.2        1 MOL1         0.6021
       2    O1      19.466153   18.286997   24.289985 O.co2      1 MOL1        -0.6904
       3    O2      20.140466   16.645650   23.094049 O.co2      1 MOL1        -0.6904
       4    C2      21.004614   18.774890   22.568053 C.3        1 MOL1        -0.2102
       5    H1      21.998212   18.316727   22.495686 H          1 MOL1         0.0687
       6    H2      21.126577   19.708471   23.130937 H          1 MOL1         0.0687
       7    C3      20.470739   19.075889   21.144074 C.3        1 MOL1        -0.1974
       8    H3      21.232559   19.636280   20.585089 H          1 MOL1         0.0689
       9    H4      20.312957   18.132121   20.603401 H          1 MOL1         0.0689
      10    C4      19.160440   19.889902   21.164655 C.3        1 MOL1        -0.2987
      11    H5      19.301800   20.848100   21.681633 H          1 MOL1         0.0700
      12    H6      18.820896   20.102324   20.142558 H          1 MOL1         0.0700
      13    H7      18.361616   19.339034   21.678709 H          1 MOL1         0.0700
@<TRIPOS>BOND
    1     1     2    1
    2     1     3    2
    3     1     4    1
    4     4     5    1
    5     4     6    1
    6     4     7    1
    7     7     8    1
    8     7     9    1
    9     7    10    1
   10    10    11    1
   11    10    12    1
   12    10    13    1
@<TRIPOS>SUBSTRUCTURE
       1 MOL1            1 RESIDUE      1      MOL     
@<SCITEGIC>MOL_PROPERTY
VConf Rank
SciTegic.value.IntegerValue
428

@<SCITEGIC>MOL_PROPERTY
Conf_Id
SciTegic.value.IntegerValue
36

@<SCITEGIC>MOL_PROPERTY
Delta U+W
SciTegic.value.DoubleValue
0.272

@<SCITEGIC>MOL_PROPERTY
U+W
SciTegic.value.DoubleValue
-58.060

@<SCITEGIC>MOL_PROPERTY
Grad RMS
SciTegic.value.DoubleValue
0.000000

@<SCITEGIC>MOL_PROPERTY
U
SciTegic.value.DoubleValue
9.781

@<SCITEGIC>MOL_PROPERTY
W
SciTegic.value.DoubleValue
-67.841

@<SCITEGIC>MOL_PROPERTY
W(PB)
SciTegic.value.DoubleValue
-69.537

@<SCITEGIC>MOL_PROPERTY
W(SA)
SciTegic.value.DoubleValue
1.696

@<SCITEGIC>MOL_PROPERTY
Valence
SciTegic.value.DoubleValue
6.123

@<SCITEGIC>MOL_PROPERTY
Coulomb
SciTegic.value.DoubleValue
3.449

@<SCITEGIC>MOL_PROPERTY
VdW
SciTegic.value.DoubleValue
0.209

@<SCITEGIC>MOL_PROPERTY
VdW6
SciTegic.value.DoubleValue
-3.762

@<SCITEGIC>MOL_PROPERTY
VdW12
SciTegic.value.DoubleValue
3.972

@<SCITEGIC>MOL_PROPERTY
Bond
SciTegic.value.DoubleValue
0.078

@<SCITEGIC>MOL_PROPERTY
Angle
SciTegic.value.DoubleValue
2.428

@<SCITEGIC>MOL_PROPERTY
Pdih
SciTegic.value.DoubleValue
3.616

@<SCITEGIC>MOL_PROPERTY
Idih
SciTegic.value.DoubleValue
0.002

@<SCITEGIC>MOL_PROPERTY
Tether
SciTegic.value.DoubleValue
0.000

@<TRIPOS>MOLECULE
guest-6_confgen4.mol2 : confsearch ligand conformer 429
          13          12           1
SMALL
USER_CHARGES
 
@<TRIPOS>ATOM
       1    C1      18.544329   17.824872   22.810561 C.2        1 MOL1         0.6021
       2    O1      19.255327   17.132943   23.512733 O.co2      1 MOL1        -0.6904
       3    O2      17.333298   17.734625   22.803086 O.co2      1 MOL1        -0.6904
       4    C2      19.173486   18.865965   21.882677 C.3        1 MOL1        -0.2102
       5    H1      18.746215   19.840774   22.146354 H          1 MOL1         0.0687
       6    H2      18.843803   18.637295   20.862209 H          1 MOL1         0.0687
       7    C3      20.721965   18.945280   21.926029 C.3        1 MOL1        -0.1974
       8    H3      21.050386   19.171634   22.950069 H          1 MOL1         0.0689
       9    H4      21.148100   17.966647   21.664415 H          1 MOL1         0.0689
      10    C4      21.264446   20.018797   20.961088 C.3        1 MOL1        -0.2987
      11    H5      20.876993   21.012683   21.221077 H          1 MOL1         0.0700
      12    H6      22.360606   20.060093   21.005648 H          1 MOL1         0.0700
      13    H7      20.975438   19.798036   19.925105 H          1 MOL1         0.0700
@<TRIPOS>BOND
    1     1     2    1
    2     1     3    2
    3     1     4    1
    4     4     5    1
    5     4     6    1
    6     4     7    1
    7     7     8    1
    8     7     9    1
    9     7    10    1
   10    10    11    1
   11    10    12    1
   12    10    13    1
@<TRIPOS>SUBSTRUCTURE
       1 MOL1            1 RESIDUE      1      MOL     
@<SCITEGIC>MOL_PROPERTY
VConf Rank
SciTegic.value.IntegerValue
429

@<SCITEGIC>MOL_PROPERTY
Conf_Id
SciTegic.value.IntegerValue
0

@<SCITEGIC>MOL_PROPERTY
Delta U+W
SciTegic.value.DoubleValue
0.000

@<SCITEGIC>MOL_PROPERTY
U+W
SciTegic.value.DoubleValue
-58.332

@<SCITEGIC>MOL_PROPERTY
Grad RMS
SciTegic.value.DoubleValue
0.000000

@<SCITEGIC>MOL_PROPERTY
U
SciTegic.value.DoubleValue
8.390

@<SCITEGIC>MOL_PROPERTY
W
SciTegic.value.DoubleValue
-66.722

@<SCITEGIC>MOL_PROPERTY
W(PB)
SciTegic.value.DoubleValue
-68.455

@<SCITEGIC>MOL_PROPERTY
W(SA)
SciTegic.value.DoubleValue
1.733

@<SCITEGIC>MOL_PROPERTY
Valence
SciTegic.value.DoubleValue
6.333

@<SCITEGIC>MOL_PROPERTY
Coulomb
SciTegic.value.DoubleValue
1.215

@<SCITEGIC>MOL_PROPERTY
VdW
SciTegic.value.DoubleValue
0.842

@<SCITEGIC>MOL_PROPERTY
VdW6
SciTegic.value.DoubleValue
-3.344

@<SCITEGIC>MOL_PROPERTY
VdW12
SciTegic.value.DoubleValue
4.186

@<SCITEGIC>MOL_PROPERTY
Bond
SciTegic.value.DoubleValue
0.091

@<SCITEGIC>MOL_PROPERTY
Angle
SciTegic.value.DoubleValue
2.713

@<SCITEGIC>MOL_PROPERTY
Pdih
SciTegic.value.DoubleValue
3.529

@<SCITEGIC>MOL_PROPERTY
Idih
SciTegic.value.DoubleValue
0.000

@<SCITEGIC>MOL_PROPERTY
Tether
SciTegic.value.DoubleValue
0.000

@<TRIPOS>MOLECULE
guest-6_confgen4.mol2 : confsearch ligand conformer 430
          13          12           1
SMALL
USER_CHARGES
 
@<TRIPOS>ATOM
       1    C1      20.677661   17.046439   21.713284 C.2        1 MOL1         0.6021
       2    O1      19.935342   16.257207   21.164253 O.co2      1 MOL1        -0.6904
       3    O2      21.517130   16.722091   22.529035 O.co2      1 MOL1        -0.6904
       4    C2      20.535319   18.526380   21.374150 C.3        1 MOL1        -0.2102
       5    H1      20.221275   18.607862   20.326411 H          1 MOL1         0.0687
       6    H2      21.525721   18.991226   21.451874 H          1 MOL1         0.0687
       7    C3      19.528212   19.262113   22.290818 C.3        1 MOL1        -0.1974
       8    H3      18.542754   18.781973   22.212333 H          1 MOL1         0.0689
       9    H4      19.847513   19.165519   23.337976 H          1 MOL1         0.0689
      10    C4      19.407184   20.754447   21.922601 C.3        1 MOL1        -0.2987
      11    H5      18.689428   21.258664   22.582793 H          1 MOL1         0.0700
      12    H6      20.374970   21.263357   22.022376 H          1 MOL1         0.0700
      13    H7      19.060168   20.876858   20.888120 H          1 MOL1         0.0700
@<TRIPOS>BOND
    1     1     2    1
    2     1     3    2
    3     1     4    1
    4     4     5    1
    5     4     6    1
    6     4     7    1
    7     7     8    1
    8     7     9    1
    9     7    10    1
   10    10    11    1
   11    10    12    1
   12    10    13    1
@<TRIPOS>SUBSTRUCTURE
       1 MOL1            1 RESIDUE      1      MOL     
@<SCITEGIC>MOL_PROPERTY
VConf Rank
SciTegic.value.IntegerValue
430

@<SCITEGIC>MOL_PROPERTY
Conf_Id
SciTegic.value.IntegerValue
1

@<SCITEGIC>MOL_PROPERTY
Delta U+W
SciTegic.value.DoubleValue
-1.339

@<SCITEGIC>MOL_PROPERTY
U+W
SciTegic.value.DoubleValue
-59.672

@<SCITEGIC>MOL_PROPERTY
Grad RMS
SciTegic.value.DoubleValue
0.000000

@<SCITEGIC>MOL_PROPERTY
U
SciTegic.value.DoubleValue
7.389

@<SCITEGIC>MOL_PROPERTY
W
SciTegic.value.DoubleValue
-67.061

@<SCITEGIC>MOL_PROPERTY
W(PB)
SciTegic.value.DoubleValue
-68.767

@<SCITEGIC>MOL_PROPERTY
W(SA)
SciTegic.value.DoubleValue
1.707

@<SCITEGIC>MOL_PROPERTY
Valence
SciTegic.value.DoubleValue
5.822

@<SCITEGIC>MOL_PROPERTY
Coulomb
SciTegic.value.DoubleValue
1.255

@<SCITEGIC>MOL_PROPERTY
VdW
SciTegic.value.DoubleValue
0.312

@<SCITEGIC>MOL_PROPERTY
VdW6
SciTegic.value.DoubleValue
-3.061

@<SCITEGIC>MOL_PROPERTY
VdW12
SciTegic.value.DoubleValue
3.372

@<SCITEGIC>MOL_PROPERTY
Bond
SciTegic.value.DoubleValue
0.059

@<SCITEGIC>MOL_PROPERTY
Angle
SciTegic.value.DoubleValue
2.241

@<SCITEGIC>MOL_PROPERTY
Pdih
SciTegic.value.DoubleValue
3.522

@<SCITEGIC>MOL_PROPERTY
Idih
SciTegic.value.DoubleValue
0.000

@<SCITEGIC>MOL_PROPERTY
Tether
SciTegic.value.DoubleValue
0.000

@<TRIPOS>MOLECULE
guest-6_confgen4.mol2 : confsearch ligand conformer 431
          13          12           1
SMALL
USER_CHARGES
 
@<TRIPOS>ATOM
       1    C1      21.688685   19.829130   21.841001 C.2        1 MOL1         0.6021
       2    O1      22.296980   20.021630   22.874935 O.co2      1 MOL1        -0.6904
       3    O2      22.224910   19.514125   20.797382 O.co2      1 MOL1        -0.6904
       4    C2      20.175196   20.029211   21.847785 C.3        1 MOL1        -0.2102
       5    H1      19.830055   20.135047   20.811945 H          1 MOL1         0.0687
       6    H2      19.973817   20.984144   22.347720 H          1 MOL1         0.0687
       7    C3      19.388781   18.898679   22.559677 C.3        1 MOL1        -0.1974
       8    H3      19.770328   18.773216   23.582713 H          1 MOL1         0.0689
       9    H4      18.334850   19.195212   22.650069 H          1 MOL1         0.0689
      10    C4      19.471465   17.556026   21.804445 C.3        1 MOL1        -0.2987
      11    H5      20.509944   17.206137   21.733979 H          1 MOL1         0.0700
      12    H6      18.889035   16.783718   22.323493 H          1 MOL1         0.0700
      13    H7      19.074139   17.653735   20.785633 H          1 MOL1         0.0700
@<TRIPOS>BOND
    1     1     2    1
    2     1     3    2
    3     1     4    1
    4     4     5    1
    5     4     6    1
    6     4     7    1
    7     7     8    1
    8     7     9    1
    9     7    10    1
   10    10    11    1
   11    10    12    1
   12    10    13    1
@<TRIPOS>SUBSTRUCTURE
       1 MOL1            1 RESIDUE      1      MOL     
@<SCITEGIC>MOL_PROPERTY
VConf Rank
SciTegic.value.IntegerValue
431

@<SCITEGIC>MOL_PROPERTY
Conf_Id
SciTegic.value.IntegerValue
4

@<SCITEGIC>MOL_PROPERTY
Delta U+W
SciTegic.value.DoubleValue
0.281

@<SCITEGIC>MOL_PROPERTY
U+W
SciTegic.value.DoubleValue
-58.051

@<SCITEGIC>MOL_PROPERTY
Grad RMS
SciTegic.value.DoubleValue
0.000000

@<SCITEGIC>MOL_PROPERTY
U
SciTegic.value.DoubleValue
9.781

@<SCITEGIC>MOL_PROPERTY
W
SciTegic.value.DoubleValue
-67.832

@<SCITEGIC>MOL_PROPERTY
W(PB)
SciTegic.value.DoubleValue
-69.535

@<SCITEGIC>MOL_PROPERTY
W(SA)
SciTegic.value.DoubleValue
1.703

@<SCITEGIC>MOL_PROPERTY
Valence
SciTegic.value.DoubleValue
6.123

@<SCITEGIC>MOL_PROPERTY
Coulomb
SciTegic.value.DoubleValue
3.449

@<SCITEGIC>MOL_PROPERTY
VdW
SciTegic.value.DoubleValue
0.209

@<SCITEGIC>MOL_PROPERTY
VdW6
SciTegic.value.DoubleValue
-3.762

@<SCITEGIC>MOL_PROPERTY
VdW12
SciTegic.value.DoubleValue
3.972

@<SCITEGIC>MOL_PROPERTY
Bond
SciTegic.value.DoubleValue
0.078

@<SCITEGIC>MOL_PROPERTY
Angle
SciTegic.value.DoubleValue
2.428

@<SCITEGIC>MOL_PROPERTY
Pdih
SciTegic.value.DoubleValue
3.616

@<SCITEGIC>MOL_PROPERTY
Idih
SciTegic.value.DoubleValue
0.002

@<SCITEGIC>MOL_PROPERTY
Tether
SciTegic.value.DoubleValue
0.000

@<TRIPOS>MOLECULE
guest-6_confgen4.mol2 : confsearch ligand conformer 432
          13          12           1
SMALL
USER_CHARGES
 
@<TRIPOS>ATOM
       1    C1      21.116202   20.366973   21.491635 C.2        1 MOL1         0.6021
       2    O1      21.746759   20.078242   20.494169 O.co2      1 MOL1        -0.6904
       3    O2      20.632326   21.464760   21.683534 O.co2      1 MOL1        -0.6904
       4    C2      20.952265   19.307532   22.578573 C.3        1 MOL1        -0.2102
       5    H1      21.206258   19.778803   23.535536 H          1 MOL1         0.0687
       6    H2      21.690905   18.514192   22.410316 H          1 MOL1         0.0687
       7    C3      19.527964   18.701440   22.664346 C.3        1 MOL1        -0.1974
       8    H3      19.459658   18.068060   23.559352 H          1 MOL1         0.0689
       9    H4      18.792183   19.507919   22.791381 H          1 MOL1         0.0689
      10    C4      19.168900   17.859421   21.422572 C.3        1 MOL1        -0.2987
      11    H5      19.879766   17.033353   21.289630 H          1 MOL1         0.0700
      12    H6      18.163886   17.429598   21.524041 H          1 MOL1         0.0700
      13    H7      19.183938   18.472882   20.511932 H          1 MOL1         0.0700
@<TRIPOS>BOND
    1     1     2    1
    2     1     3    2
    3     1     4    1
    4     4     5    1
    5     4     6    1
    6     4     7    1
    7     7     8    1
    8     7     9    1
    9     7    10    1
   10    10    11    1
   11    10    12    1
   12    10    13    1
@<TRIPOS>SUBSTRUCTURE
       1 MOL1            1 RESIDUE      1      MOL     
@<SCITEGIC>MOL_PROPERTY
VConf Rank
SciTegic.value.IntegerValue
432

@<SCITEGIC>MOL_PROPERTY
Conf_Id
SciTegic.value.IntegerValue
36

@<SCITEGIC>MOL_PROPERTY
Delta U+W
SciTegic.value.DoubleValue
0.272

@<SCITEGIC>MOL_PROPERTY
U+W
SciTegic.value.DoubleValue
-58.060

@<SCITEGIC>MOL_PROPERTY
Grad RMS
SciTegic.value.DoubleValue
0.000000

@<SCITEGIC>MOL_PROPERTY
U
SciTegic.value.DoubleValue
9.781

@<SCITEGIC>MOL_PROPERTY
W
SciTegic.value.DoubleValue
-67.841

@<SCITEGIC>MOL_PROPERTY
W(PB)
SciTegic.value.DoubleValue
-69.537

@<SCITEGIC>MOL_PROPERTY
W(SA)
SciTegic.value.DoubleValue
1.696

@<SCITEGIC>MOL_PROPERTY
Valence
SciTegic.value.DoubleValue
6.123

@<SCITEGIC>MOL_PROPERTY
Coulomb
SciTegic.value.DoubleValue
3.449

@<SCITEGIC>MOL_PROPERTY
VdW
SciTegic.value.DoubleValue
0.209

@<SCITEGIC>MOL_PROPERTY
VdW6
SciTegic.value.DoubleValue
-3.762

@<SCITEGIC>MOL_PROPERTY
VdW12
SciTegic.value.DoubleValue
3.972

@<SCITEGIC>MOL_PROPERTY
Bond
SciTegic.value.DoubleValue
0.078

@<SCITEGIC>MOL_PROPERTY
Angle
SciTegic.value.DoubleValue
2.428

@<SCITEGIC>MOL_PROPERTY
Pdih
SciTegic.value.DoubleValue
3.616

@<SCITEGIC>MOL_PROPERTY
Idih
SciTegic.value.DoubleValue
0.002

@<SCITEGIC>MOL_PROPERTY
Tether
SciTegic.value.DoubleValue
0.000

@<TRIPOS>MOLECULE
guest-6_confgen4.mol2 : confsearch ligand conformer 433
          13          12           1
SMALL
USER_CHARGES
 
@<TRIPOS>ATOM
       1    C1      19.182102   17.281218   20.880456 C.2        1 MOL1         0.6021
       2    O1      18.482592   16.863762   21.782534 O.co2      1 MOL1        -0.6904
       3    O2      19.260119   16.736603   19.797818 O.co2      1 MOL1        -0.6904
       4    C2      20.014511   18.548103   21.087290 C.3        1 MOL1        -0.2102
       5    H1      19.719850   19.264217   20.310957 H          1 MOL1         0.0687
       6    H2      21.062568   18.285839   20.899855 H          1 MOL1         0.0687
       7    C3      19.883098   19.208765   22.484506 C.3        1 MOL1        -0.1974
       8    H3      18.831679   19.468153   22.671565 H          1 MOL1         0.0689
       9    H4      20.175978   18.488543   23.261201 H          1 MOL1         0.0689
      10    C4      20.755311   20.475158   22.599947 C.3        1 MOL1        -0.2987
      11    H5      20.461100   21.224311   21.853132 H          1 MOL1         0.0700
      12    H6      20.649291   20.928143   23.594342 H          1 MOL1         0.0700
      13    H7      21.816191   20.236829   22.447447 H          1 MOL1         0.0700
@<TRIPOS>BOND
    1     1     2    1
    2     1     3    2
    3     1     4    1
    4     4     5    1
    5     4     6    1
    6     4     7    1
    7     7     8    1
    8     7     9    1
    9     7    10    1
   10    10    11    1
   11    10    12    1
   12    10    13    1
@<TRIPOS>SUBSTRUCTURE
       1 MOL1            1 RESIDUE      1      MOL     
@<SCITEGIC>MOL_PROPERTY
VConf Rank
SciTegic.value.IntegerValue
433

@<SCITEGIC>MOL_PROPERTY
Conf_Id
SciTegic.value.IntegerValue
0

@<SCITEGIC>MOL_PROPERTY
Delta U+W
SciTegic.value.DoubleValue
0.000

@<SCITEGIC>MOL_PROPERTY
U+W
SciTegic.value.DoubleValue
-58.332

@<SCITEGIC>MOL_PROPERTY
Grad RMS
SciTegic.value.DoubleValue
0.000000

@<SCITEGIC>MOL_PROPERTY
U
SciTegic.value.DoubleValue
8.390

@<SCITEGIC>MOL_PROPERTY
W
SciTegic.value.DoubleValue
-66.722

@<SCITEGIC>MOL_PROPERTY
W(PB)
SciTegic.value.DoubleValue
-68.455

@<SCITEGIC>MOL_PROPERTY
W(SA)
SciTegic.value.DoubleValue
1.733

@<SCITEGIC>MOL_PROPERTY
Valence
SciTegic.value.DoubleValue
6.333

@<SCITEGIC>MOL_PROPERTY
Coulomb
SciTegic.value.DoubleValue
1.215

@<SCITEGIC>MOL_PROPERTY
VdW
SciTegic.value.DoubleValue
0.842

@<SCITEGIC>MOL_PROPERTY
VdW6
SciTegic.value.DoubleValue
-3.344

@<SCITEGIC>MOL_PROPERTY
VdW12
SciTegic.value.DoubleValue
4.186

@<SCITEGIC>MOL_PROPERTY
Bond
SciTegic.value.DoubleValue
0.091

@<SCITEGIC>MOL_PROPERTY
Angle
SciTegic.value.DoubleValue
2.713

@<SCITEGIC>MOL_PROPERTY
Pdih
SciTegic.value.DoubleValue
3.529

@<SCITEGIC>MOL_PROPERTY
Idih
SciTegic.value.DoubleValue
0.000

@<SCITEGIC>MOL_PROPERTY
Tether
SciTegic.value.DoubleValue
0.000

@<TRIPOS>MOLECULE
guest-6_confgen4.mol2 : confsearch ligand conformer 434
          13          12           1
SMALL
USER_CHARGES
 
@<TRIPOS>ATOM
       1    C1      21.385874   20.568352   22.247883 C.2        1 MOL1         0.6021
       2    O1      22.055221   20.949801   21.308823 O.co2      1 MOL1        -0.6904
       3    O2      21.735089   20.671566   23.406656 O.co2      1 MOL1        -0.6904
       4    C2      20.043186   19.907228   21.955303 C.3        1 MOL1        -0.2102
       5    H1      19.625064   20.368546   21.052320 H          1 MOL1         0.0687
       6    H2      19.361058   20.139117   22.782313 H          1 MOL1         0.0687
       7    C3      20.152346   18.374545   21.768706 C.3        1 MOL1        -0.1974
       8    H3      20.845364   18.154109   20.944719 H          1 MOL1         0.0689
       9    H4      20.581182   17.924633   22.675073 H          1 MOL1         0.0689
      10    C4      18.779679   17.736925   21.474565 C.3        1 MOL1        -0.2987
      11    H5      18.877362   16.651080   21.345495 H          1 MOL1         0.0700
      12    H6      18.077506   17.918512   22.298904 H          1 MOL1         0.0700
      13    H7      18.343744   18.149721   20.555263 H          1 MOL1         0.0700
@<TRIPOS>BOND
    1     1     2    1
    2     1     3    2
    3     1     4    1
    4     4     5    1
    5     4     6    1
    6     4     7    1
    7     7     8    1
    8     7     9    1
    9     7    10    1
   10    10    11    1
   11    10    12    1
   12    10    13    1
@<TRIPOS>SUBSTRUCTURE
       1 MOL1            1 RESIDUE      1      MOL     
@<SCITEGIC>MOL_PROPERTY
VConf Rank
SciTegic.value.IntegerValue
434

@<SCITEGIC>MOL_PROPERTY
Conf_Id
SciTegic.value.IntegerValue
1

@<SCITEGIC>MOL_PROPERTY
Delta U+W
SciTegic.value.DoubleValue
-1.339

@<SCITEGIC>MOL_PROPERTY
U+W
SciTegic.value.DoubleValue
-59.672

@<SCITEGIC>MOL_PROPERTY
Grad RMS
SciTegic.value.DoubleValue
0.000000

@<SCITEGIC>MOL_PROPERTY
U
SciTegic.value.DoubleValue
7.389

@<SCITEGIC>MOL_PROPERTY
W
SciTegic.value.DoubleValue
-67.061

@<SCITEGIC>MOL_PROPERTY
W(PB)
SciTegic.value.DoubleValue
-68.767

@<SCITEGIC>MOL_PROPERTY
W(SA)
SciTegic.value.DoubleValue
1.707

@<SCITEGIC>MOL_PROPERTY
Valence
SciTegic.value.DoubleValue
5.822

@<SCITEGIC>MOL_PROPERTY
Coulomb
SciTegic.value.DoubleValue
1.255

@<SCITEGIC>MOL_PROPERTY
VdW
SciTegic.value.DoubleValue
0.312

@<SCITEGIC>MOL_PROPERTY
VdW6
SciTegic.value.DoubleValue
-3.061

@<SCITEGIC>MOL_PROPERTY
VdW12
SciTegic.value.DoubleValue
3.372

@<SCITEGIC>MOL_PROPERTY
Bond
SciTegic.value.DoubleValue
0.059

@<SCITEGIC>MOL_PROPERTY
Angle
SciTegic.value.DoubleValue
2.241

@<SCITEGIC>MOL_PROPERTY
Pdih
SciTegic.value.DoubleValue
3.522

@<SCITEGIC>MOL_PROPERTY
Idih
SciTegic.value.DoubleValue
0.000

@<SCITEGIC>MOL_PROPERTY
Tether
SciTegic.value.DoubleValue
0.000

@<TRIPOS>MOLECULE
guest-6_confgen4.mol2 : confsearch ligand conformer 435
          13          12           1
SMALL
USER_CHARGES
 
@<TRIPOS>ATOM
       1    C1      21.653074   18.185547   21.482461 C.2        1 MOL1         0.6021
       2    O1      22.485629   18.917329   20.985021 O.co2      1 MOL1        -0.6904
       3    O2      21.926776   17.283219   22.248487 O.co2      1 MOL1        -0.6904
       4    C2      20.190636   18.390085   21.094948 C.3        1 MOL1        -0.2102
       5    H1      19.627931   17.485547   21.356601 H          1 MOL1         0.0687
       6    H2      20.151523   18.482490   20.003015 H          1 MOL1         0.0687
       7    C3      19.530893   19.635015   21.741652 C.3        1 MOL1        -0.1974
       8    H3      20.125250   20.529415   21.507748 H          1 MOL1         0.0689
       9    H4      18.539100   19.789522   21.295170 H          1 MOL1         0.0689
      10    C4      19.379037   19.495520   23.270511 C.3        1 MOL1        -0.2987
      11    H5      20.357725   19.383543   23.755752 H          1 MOL1         0.0700
      12    H6      18.891659   20.383585   23.693475 H          1 MOL1         0.0700
      13    H7      18.768953   18.619193   23.525936 H          1 MOL1         0.0700
@<TRIPOS>BOND
    1     1     2    1
    2     1     3    2
    3     1     4    1
    4     4     5    1
    5     4     6    1
    6     4     7    1
    7     7     8    1
    8     7     9    1
    9     7    10    1
   10    10    11    1
   11    10    12    1
   12    10    13    1
@<TRIPOS>SUBSTRUCTURE
       1 MOL1            1 RESIDUE      1      MOL     
@<SCITEGIC>MOL_PROPERTY
VConf Rank
SciTegic.value.IntegerValue
435

@<SCITEGIC>MOL_PROPERTY
Conf_Id
SciTegic.value.IntegerValue
4

@<SCITEGIC>MOL_PROPERTY
Delta U+W
SciTegic.value.DoubleValue
0.281

@<SCITEGIC>MOL_PROPERTY
U+W
SciTegic.value.DoubleValue
-58.051

@<SCITEGIC>MOL_PROPERTY
Grad RMS
SciTegic.value.DoubleValue
0.000000

@<SCITEGIC>MOL_PROPERTY
U
SciTegic.value.DoubleValue
9.781

@<SCITEGIC>MOL_PROPERTY
W
SciTegic.value.DoubleValue
-67.832

@<SCITEGIC>MOL_PROPERTY
W(PB)
SciTegic.value.DoubleValue
-69.535

@<SCITEGIC>MOL_PROPERTY
W(SA)
SciTegic.value.DoubleValue
1.703

@<SCITEGIC>MOL_PROPERTY
Valence
SciTegic.value.DoubleValue
6.123

@<SCITEGIC>MOL_PROPERTY
Coulomb
SciTegic.value.DoubleValue
3.449

@<SCITEGIC>MOL_PROPERTY
VdW
SciTegic.value.DoubleValue
0.209

@<SCITEGIC>MOL_PROPERTY
VdW6
SciTegic.value.DoubleValue
-3.762

@<SCITEGIC>MOL_PROPERTY
VdW12
SciTegic.value.DoubleValue
3.972

@<SCITEGIC>MOL_PROPERTY
Bond
SciTegic.value.DoubleValue
0.078

@<SCITEGIC>MOL_PROPERTY
Angle
SciTegic.value.DoubleValue
2.428

@<SCITEGIC>MOL_PROPERTY
Pdih
SciTegic.value.DoubleValue
3.616

@<SCITEGIC>MOL_PROPERTY
Idih
SciTegic.value.DoubleValue
0.002

@<SCITEGIC>MOL_PROPERTY
Tether
SciTegic.value.DoubleValue
0.000

@<TRIPOS>MOLECULE
guest-6_confgen4.mol2 : confsearch ligand conformer 436
          13          12           1
SMALL
USER_CHARGES
 
@<TRIPOS>ATOM
       1    C1      19.466306   20.101246   23.222661 C.2        1 MOL1         0.6021
       2    O1      18.546918   20.735022   22.744166 O.co2      1 MOL1        -0.6904
       3    O2      19.482673   19.709670   24.372660 O.co2      1 MOL1        -0.6904
       4    C2      20.681737   19.811101   22.345581 C.3        1 MOL1        -0.2102
       5    H1      21.574059   20.075302   22.925533 H          1 MOL1         0.0687
       6    H2      20.657516   20.482276   21.478273 H          1 MOL1         0.0687
       7    C3      20.789019   18.337175   21.877211 C.3        1 MOL1        -0.1974
       8    H3      21.759521   18.185602   21.385253 H          1 MOL1         0.0689
       9    H4      20.770755   17.671289   22.751387 H          1 MOL1         0.0689
      10    C4      19.661863   17.944792   20.899724 C.3        1 MOL1        -0.2987
      11    H5      19.675923   18.584339   20.007439 H          1 MOL1         0.0700
      12    H6      19.778371   16.903290   20.572929 H          1 MOL1         0.0700
      13    H7      18.676349   18.042071   21.374199 H          1 MOL1         0.0700
@<TRIPOS>BOND
    1     1     2    1
    2     1     3    2
    3     1     4    1
    4     4     5    1
    5     4     6    1
    6     4     7    1
    7     7     8    1
    8     7     9    1
    9     7    10    1
   10    10    11    1
   11    10    12    1
   12    10    13    1
@<TRIPOS>SUBSTRUCTURE
       1 MOL1            1 RESIDUE      1      MOL     
@<SCITEGIC>MOL_PROPERTY
VConf Rank
SciTegic.value.IntegerValue
436

@<SCITEGIC>MOL_PROPERTY
Conf_Id
SciTegic.value.IntegerValue
36

@<SCITEGIC>MOL_PROPERTY
Delta U+W
SciTegic.value.DoubleValue
0.272

@<SCITEGIC>MOL_PROPERTY
U+W
SciTegic.value.DoubleValue
-58.060

@<SCITEGIC>MOL_PROPERTY
Grad RMS
SciTegic.value.DoubleValue
0.000000

@<SCITEGIC>MOL_PROPERTY
U
SciTegic.value.DoubleValue
9.781

@<SCITEGIC>MOL_PROPERTY
W
SciTegic.value.DoubleValue
-67.841

@<SCITEGIC>MOL_PROPERTY
W(PB)
SciTegic.value.DoubleValue
-69.537

@<SCITEGIC>MOL_PROPERTY
W(SA)
SciTegic.value.DoubleValue
1.696

@<SCITEGIC>MOL_PROPERTY
Valence
SciTegic.value.DoubleValue
6.123

@<SCITEGIC>MOL_PROPERTY
Coulomb
SciTegic.value.DoubleValue
3.449

@<SCITEGIC>MOL_PROPERTY
VdW
SciTegic.value.DoubleValue
0.209

@<SCITEGIC>MOL_PROPERTY
VdW6
SciTegic.value.DoubleValue
-3.762

@<SCITEGIC>MOL_PROPERTY
VdW12
SciTegic.value.DoubleValue
3.972

@<SCITEGIC>MOL_PROPERTY
Bond
SciTegic.value.DoubleValue
0.078

@<SCITEGIC>MOL_PROPERTY
Angle
SciTegic.value.DoubleValue
2.428

@<SCITEGIC>MOL_PROPERTY
Pdih
SciTegic.value.DoubleValue
3.616

@<SCITEGIC>MOL_PROPERTY
Idih
SciTegic.value.DoubleValue
0.002

@<SCITEGIC>MOL_PROPERTY
Tether
SciTegic.value.DoubleValue
0.000

@<TRIPOS>MOLECULE
guest-6_confgen4.mol2 : confsearch ligand conformer 437
          13          12           1
SMALL
USER_CHARGES
 
@<TRIPOS>ATOM
       1    C1      19.770049   19.382907   19.738121 C.2        1 MOL1         0.6021
       2    O1      20.121213   20.545499   19.689201 O.co2      1 MOL1        -0.6904
       3    O2      19.403451   18.761120   18.761502 O.co2      1 MOL1        -0.6904
       4    C2      19.778714   18.641333   21.076282 C.3        1 MOL1        -0.2102
       5    H1      20.420708   17.760245   20.958530 H          1 MOL1         0.0687
       6    H2      18.760852   18.274408   21.254216 H          1 MOL1         0.0687
       7    C3      20.254044   19.475006   22.294891 C.3        1 MOL1        -0.1974
       8    H3      21.273112   19.844177   22.113323 H          1 MOL1         0.0689
       9    H4      19.611257   20.359021   22.409330 H          1 MOL1         0.0689
      10    C4      20.229298   18.647265   23.595686 C.3        1 MOL1        -0.2987
      11    H5      20.889216   17.773211   23.517838 H          1 MOL1         0.0700
      12    H6      20.568460   19.253303   24.445947 H          1 MOL1         0.0700
      13    H7      19.214016   18.292148   23.816183 H          1 MOL1         0.0700
@<TRIPOS>BOND
    1     1     2    1
    2     1     3    2
    3     1     4    1
    4     4     5    1
    5     4     6    1
    6     4     7    1
    7     7     8    1
    8     7     9    1
    9     7    10    1
   10    10    11    1
   11    10    12    1
   12    10    13    1
@<TRIPOS>SUBSTRUCTURE
       1 MOL1            1 RESIDUE      1      MOL     
@<SCITEGIC>MOL_PROPERTY
VConf Rank
SciTegic.value.IntegerValue
437

@<SCITEGIC>MOL_PROPERTY
Conf_Id
SciTegic.value.IntegerValue
0

@<SCITEGIC>MOL_PROPERTY
Delta U+W
SciTegic.value.DoubleValue
0.000

@<SCITEGIC>MOL_PROPERTY
U+W
SciTegic.value.DoubleValue
-58.332

@<SCITEGIC>MOL_PROPERTY
Grad RMS
SciTegic.value.DoubleValue
0.000000

@<SCITEGIC>MOL_PROPERTY
U
SciTegic.value.DoubleValue
8.390

@<SCITEGIC>MOL_PROPERTY
W
SciTegic.value.DoubleValue
-66.722

@<SCITEGIC>MOL_PROPERTY
W(PB)
SciTegic.value.DoubleValue
-68.455

@<SCITEGIC>MOL_PROPERTY
W(SA)
SciTegic.value.DoubleValue
1.733

@<SCITEGIC>MOL_PROPERTY
Valence
SciTegic.value.DoubleValue
6.333

@<SCITEGIC>MOL_PROPERTY
Coulomb
SciTegic.value.DoubleValue
1.215

@<SCITEGIC>MOL_PROPERTY
VdW
SciTegic.value.DoubleValue
0.842

@<SCITEGIC>MOL_PROPERTY
VdW6
SciTegic.value.DoubleValue
-3.344

@<SCITEGIC>MOL_PROPERTY
VdW12
SciTegic.value.DoubleValue
4.186

@<SCITEGIC>MOL_PROPERTY
Bond
SciTegic.value.DoubleValue
0.091

@<SCITEGIC>MOL_PROPERTY
Angle
SciTegic.value.DoubleValue
2.713

@<SCITEGIC>MOL_PROPERTY
Pdih
SciTegic.value.DoubleValue
3.529

@<SCITEGIC>MOL_PROPERTY
Idih
SciTegic.value.DoubleValue
0.000

@<SCITEGIC>MOL_PROPERTY
Tether
SciTegic.value.DoubleValue
0.000

@<TRIPOS>MOLECULE
guest-6_confgen4.mol2 : confsearch ligand conformer 438
          13          12           1
SMALL
USER_CHARGES
 
@<TRIPOS>ATOM
       1    C1      21.690149   19.596974   20.710802 C.2        1 MOL1         0.6021
       2    O1      21.480998   19.972333   19.574702 O.co2      1 MOL1        -0.6904
       3    O2      22.748930   19.128980   21.078666 O.co2      1 MOL1        -0.6904
       4    C2      20.556365   19.701482   21.725254 C.3        1 MOL1        -0.2102
       5    H1      19.951839   20.580990   21.472207 H          1 MOL1         0.0687
       6    H2      20.997456   19.885532   22.712464 H          1 MOL1         0.0687
       7    C3      19.665017   18.436745   21.767543 C.3        1 MOL1        -0.1974
       8    H3      19.236783   18.256726   20.771536 H          1 MOL1         0.0689
       9    H4      20.282567   17.561175   22.012148 H          1 MOL1         0.0689
      10    C4      18.529567   18.573924   22.801576 C.3        1 MOL1        -0.2987
      11    H5      17.909068   17.668382   22.816964 H          1 MOL1         0.0700
      12    H6      18.933877   18.725019   23.811160 H          1 MOL1         0.0700
      13    H7      17.880061   19.425876   22.561003 H          1 MOL1         0.0700
@<TRIPOS>BOND
    1     1     2    1
    2     1     3    2
    3     1     4    1
    4     4     5    1
    5     4     6    1
    6     4     7    1
    7     7     8    1
    8     7     9    1
    9     7    10    1
   10    10    11    1
   11    10    12    1
   12    10    13    1
@<TRIPOS>SUBSTRUCTURE
       1 MOL1            1 RESIDUE      1      MOL     
@<SCITEGIC>MOL_PROPERTY
VConf Rank
SciTegic.value.IntegerValue
438

@<SCITEGIC>MOL_PROPERTY
Conf_Id
SciTegic.value.IntegerValue
1

@<SCITEGIC>MOL_PROPERTY
Delta U+W
SciTegic.value.DoubleValue
-1.339

@<SCITEGIC>MOL_PROPERTY
U+W
SciTegic.value.DoubleValue
-59.672

@<SCITEGIC>MOL_PROPERTY
Grad RMS
SciTegic.value.DoubleValue
0.000000

@<SCITEGIC>MOL_PROPERTY
U
SciTegic.value.DoubleValue
7.389

@<SCITEGIC>MOL_PROPERTY
W
SciTegic.value.DoubleValue
-67.061

@<SCITEGIC>MOL_PROPERTY
W(PB)
SciTegic.value.DoubleValue
-68.767

@<SCITEGIC>MOL_PROPERTY
W(SA)
SciTegic.value.DoubleValue
1.707

@<SCITEGIC>MOL_PROPERTY
Valence
SciTegic.value.DoubleValue
5.822

@<SCITEGIC>MOL_PROPERTY
Coulomb
SciTegic.value.DoubleValue
1.255

@<SCITEGIC>MOL_PROPERTY
VdW
SciTegic.value.DoubleValue
0.312

@<SCITEGIC>MOL_PROPERTY
VdW6
SciTegic.value.DoubleValue
-3.061

@<SCITEGIC>MOL_PROPERTY
VdW12
SciTegic.value.DoubleValue
3.372

@<SCITEGIC>MOL_PROPERTY
Bond
SciTegic.value.DoubleValue
0.059

@<SCITEGIC>MOL_PROPERTY
Angle
SciTegic.value.DoubleValue
2.241

@<SCITEGIC>MOL_PROPERTY
Pdih
SciTegic.value.DoubleValue
3.522

@<SCITEGIC>MOL_PROPERTY
Idih
SciTegic.value.DoubleValue
0.000

@<SCITEGIC>MOL_PROPERTY
Tether
SciTegic.value.DoubleValue
0.000

@<TRIPOS>MOLECULE
guest-6_confgen4.mol2 : confsearch ligand conformer 439
          13          12           1
SMALL
USER_CHARGES
 
@<TRIPOS>ATOM
       1    C1      18.502759   19.728068   22.007831 C.2        1 MOL1         0.6021
       2    O1      18.482050   20.941439   21.949516 O.co2      1 MOL1        -0.6904
       3    O2      17.715226   19.015822   21.417576 O.co2      1 MOL1        -0.6904
       4    C2      19.552002   19.067560   22.898644 C.3        1 MOL1        -0.2102
       5    H1      19.245215   18.032871   23.095082 H          1 MOL1         0.0687
       6    H2      19.538485   19.590201   23.862517 H          1 MOL1         0.0687
       7    C3      20.988423   19.097094   22.316270 C.3        1 MOL1        -0.1974
       8    H3      21.270071   20.133890   22.084645 H          1 MOL1         0.0689
       9    H4      21.693723   18.741534   23.079817 H          1 MOL1         0.0689
      10    C4      21.131241   18.223696   21.052661 C.3        1 MOL1        -0.2987
      11    H5      20.470669   18.578937   20.250616 H          1 MOL1         0.0700
      12    H6      22.162747   18.251072   20.678039 H          1 MOL1         0.0700
      13    H7      20.875576   17.177825   21.267561 H          1 MOL1         0.0700
@<TRIPOS>BOND
    1     1     2    1
    2     1     3    2
    3     1     4    1
    4     4     5    1
    5     4     6    1
    6     4     7    1
    7     7     8    1
    8     7     9    1
    9     7    10    1
   10    10    11    1
   11    10    12    1
   12    10    13    1
@<TRIPOS>SUBSTRUCTURE
       1 MOL1            1 RESIDUE      1      MOL     
@<SCITEGIC>MOL_PROPERTY
VConf Rank
SciTegic.value.IntegerValue
439

@<SCITEGIC>MOL_PROPERTY
Conf_Id
SciTegic.value.IntegerValue
4

@<SCITEGIC>MOL_PROPERTY
Delta U+W
SciTegic.value.DoubleValue
0.281

@<SCITEGIC>MOL_PROPERTY
U+W
SciTegic.value.DoubleValue
-58.051

@<SCITEGIC>MOL_PROPERTY
Grad RMS
SciTegic.value.DoubleValue
0.000000

@<SCITEGIC>MOL_PROPERTY
U
SciTegic.value.DoubleValue
9.781

@<SCITEGIC>MOL_PROPERTY
W
SciTegic.value.DoubleValue
-67.832

@<SCITEGIC>MOL_PROPERTY
W(PB)
SciTegic.value.DoubleValue
-69.535

@<SCITEGIC>MOL_PROPERTY
W(SA)
SciTegic.value.DoubleValue
1.703

@<SCITEGIC>MOL_PROPERTY
Valence
SciTegic.value.DoubleValue
6.123

@<SCITEGIC>MOL_PROPERTY
Coulomb
SciTegic.value.DoubleValue
3.449

@<SCITEGIC>MOL_PROPERTY
VdW
SciTegic.value.DoubleValue
0.209

@<SCITEGIC>MOL_PROPERTY
VdW6
SciTegic.value.DoubleValue
-3.762

@<SCITEGIC>MOL_PROPERTY
VdW12
SciTegic.value.DoubleValue
3.972

@<SCITEGIC>MOL_PROPERTY
Bond
SciTegic.value.DoubleValue
0.078

@<SCITEGIC>MOL_PROPERTY
Angle
SciTegic.value.DoubleValue
2.428

@<SCITEGIC>MOL_PROPERTY
Pdih
SciTegic.value.DoubleValue
3.616

@<SCITEGIC>MOL_PROPERTY
Idih
SciTegic.value.DoubleValue
0.002

@<SCITEGIC>MOL_PROPERTY
Tether
SciTegic.value.DoubleValue
0.000

@<TRIPOS>MOLECULE
guest-6_confgen4.mol2 : confsearch ligand conformer 440
          13          12           1
SMALL
USER_CHARGES
 
@<TRIPOS>ATOM
       1    C1      20.809537   17.496910   22.749864 C.2        1 MOL1         0.6021
       2    O1      21.880229   17.241567   22.235739 O.co2      1 MOL1        -0.6904
       3    O2      20.582522   17.346781   23.933934 O.co2      1 MOL1        -0.6904
       4    C2      19.677267   17.999022   21.857354 C.3        1 MOL1        -0.2102
       5    H1      18.784318   17.410582   22.099772 H          1 MOL1         0.0687
       6    H2      19.928566   17.777540   20.812806 H          1 MOL1         0.0687
       7    C3      19.360854   19.507701   22.021999 C.3        1 MOL1        -0.1974
       8    H3      18.446044   19.746705   21.462650 H          1 MOL1         0.0689
       9    H4      19.151139   19.726282   23.078486 H          1 MOL1         0.0689
      10    C4      20.507859   20.409581   21.521080 C.3        1 MOL1        -0.2987
      11    H5      20.719075   20.222874   20.459986 H          1 MOL1         0.0700
      12    H6      20.244056   21.469234   21.633503 H          1 MOL1         0.0700
      13    H7      21.429544   20.228395   22.089844 H          1 MOL1         0.0700
@<TRIPOS>BOND
    1     1     2    1
    2     1     3    2
    3     1     4    1
    4     4     5    1
    5     4     6    1
    6     4     7    1
    7     7     8    1
    8     7     9    1
    9     7    10    1
   10    10    11    1
   11    10    12    1
   12    10    13    1
@<TRIPOS>SUBSTRUCTURE
       1 MOL1            1 RESIDUE      1      MOL     
@<SCITEGIC>MOL_PROPERTY
VConf Rank
SciTegic.value.IntegerValue
440

@<SCITEGIC>MOL_PROPERTY
Conf_Id
SciTegic.value.IntegerValue
36

@<SCITEGIC>MOL_PROPERTY
Delta U+W
SciTegic.value.DoubleValue
0.272

@<SCITEGIC>MOL_PROPERTY
U+W
SciTegic.value.DoubleValue
-58.060

@<SCITEGIC>MOL_PROPERTY
Grad RMS
SciTegic.value.DoubleValue
0.000000

@<SCITEGIC>MOL_PROPERTY
U
SciTegic.value.DoubleValue
9.781

@<SCITEGIC>MOL_PROPERTY
W
SciTegic.value.DoubleValue
-67.841

@<SCITEGIC>MOL_PROPERTY
W(PB)
SciTegic.value.DoubleValue
-69.537

@<SCITEGIC>MOL_PROPERTY
W(SA)
SciTegic.value.DoubleValue
1.696

@<SCITEGIC>MOL_PROPERTY
Valence
SciTegic.value.DoubleValue
6.123

@<SCITEGIC>MOL_PROPERTY
Coulomb
SciTegic.value.DoubleValue
3.449

@<SCITEGIC>MOL_PROPERTY
VdW
SciTegic.value.DoubleValue
0.209

@<SCITEGIC>MOL_PROPERTY
VdW6
SciTegic.value.DoubleValue
-3.762

@<SCITEGIC>MOL_PROPERTY
VdW12
SciTegic.value.DoubleValue
3.972

@<SCITEGIC>MOL_PROPERTY
Bond
SciTegic.value.DoubleValue
0.078

@<SCITEGIC>MOL_PROPERTY
Angle
SciTegic.value.DoubleValue
2.428

@<SCITEGIC>MOL_PROPERTY
Pdih
SciTegic.value.DoubleValue
3.616

@<SCITEGIC>MOL_PROPERTY
Idih
SciTegic.value.DoubleValue
0.002

@<SCITEGIC>MOL_PROPERTY
Tether
SciTegic.value.DoubleValue
0.000

@<TRIPOS>MOLECULE
guest-6_confgen4.mol2 : confsearch ligand conformer 441
          13          12           1
SMALL
USER_CHARGES
 
@<TRIPOS>ATOM
       1    C1      19.427783   20.678968   20.647260 C.2        1 MOL1         0.6021
       2    O1      19.616007   21.576291   21.445203 O.co2      1 MOL1        -0.6904
       3    O2      19.008248   20.870201   19.523777 O.co2      1 MOL1        -0.6904
       4    C2      19.722961   19.231804   21.046345 C.3        1 MOL1        -0.2102
       5    H1      20.449355   18.835152   20.327070 H          1 MOL1         0.0687
       6    H2      18.796687   18.660018   20.914379 H          1 MOL1         0.0687
       7    C3      20.256582   19.036181   22.489584 C.3        1 MOL1        -0.1974
       8    H3      21.183231   19.612293   22.620623 H          1 MOL1         0.0689
       9    H4      19.528560   19.437015   23.208660 H          1 MOL1         0.0689
      10    C4      20.524700   17.549932   22.801047 C.3        1 MOL1        -0.2987
      11    H5      21.273487   17.133463   22.114465 H          1 MOL1         0.0700
      12    H6      20.901263   17.431550   23.825470 H          1 MOL1         0.0700
      13    H7      19.605528   16.956777   22.707168 H          1 MOL1         0.0700
@<TRIPOS>BOND
    1     1     2    1
    2     1     3    2
    3     1     4    1
    4     4     5    1
    5     4     6    1
    6     4     7    1
    7     7     8    1
    8     7     9    1
    9     7    10    1
   10    10    11    1
   11    10    12    1
   12    10    13    1
@<TRIPOS>SUBSTRUCTURE
       1 MOL1            1 RESIDUE      1      MOL     
@<SCITEGIC>MOL_PROPERTY
VConf Rank
SciTegic.value.IntegerValue
441

@<SCITEGIC>MOL_PROPERTY
Conf_Id
SciTegic.value.IntegerValue
0

@<SCITEGIC>MOL_PROPERTY
Delta U+W
SciTegic.value.DoubleValue
0.000

@<SCITEGIC>MOL_PROPERTY
U+W
SciTegic.value.DoubleValue
-58.332

@<SCITEGIC>MOL_PROPERTY
Grad RMS
SciTegic.value.DoubleValue
0.000000

@<SCITEGIC>MOL_PROPERTY
U
SciTegic.value.DoubleValue
8.390

@<SCITEGIC>MOL_PROPERTY
W
SciTegic.value.DoubleValue
-66.722

@<SCITEGIC>MOL_PROPERTY
W(PB)
SciTegic.value.DoubleValue
-68.455

@<SCITEGIC>MOL_PROPERTY
W(SA)
SciTegic.value.DoubleValue
1.733

@<SCITEGIC>MOL_PROPERTY
Valence
SciTegic.value.DoubleValue
6.333

@<SCITEGIC>MOL_PROPERTY
Coulomb
SciTegic.value.DoubleValue
1.215

@<SCITEGIC>MOL_PROPERTY
VdW
SciTegic.value.DoubleValue
0.842

@<SCITEGIC>MOL_PROPERTY
VdW6
SciTegic.value.DoubleValue
-3.344

@<SCITEGIC>MOL_PROPERTY
VdW12
SciTegic.value.DoubleValue
4.186

@<SCITEGIC>MOL_PROPERTY
Bond
SciTegic.value.DoubleValue
0.091

@<SCITEGIC>MOL_PROPERTY
Angle
SciTegic.value.DoubleValue
2.713

@<SCITEGIC>MOL_PROPERTY
Pdih
SciTegic.value.DoubleValue
3.529

@<SCITEGIC>MOL_PROPERTY
Idih
SciTegic.value.DoubleValue
0.000

@<SCITEGIC>MOL_PROPERTY
Tether
SciTegic.value.DoubleValue
0.000

@<TRIPOS>MOLECULE
guest-6_confgen4.mol2 : confsearch ligand conformer 442
          13          12           1
SMALL
USER_CHARGES
 
@<TRIPOS>ATOM
       1    C1      18.687448   18.789958   23.476010 C.2        1 MOL1         0.6021
       2    O1      17.500295   18.879442   23.235135 O.co2      1 MOL1        -0.6904
       3    O2      19.166987   18.995983   24.572804 O.co2      1 MOL1        -0.6904
       4    C2      19.628776   18.417253   22.335619 C.3        1 MOL1        -0.2102
       5    H1      19.090143   17.748766   21.652964 H          1 MOL1         0.0687
       6    H2      20.464588   17.844853   22.756087 H          1 MOL1         0.0687
       7    C3      20.161385   19.649272   21.564707 C.3        1 MOL1        -0.1974
       8    H3      19.315499   20.220074   21.156684 H          1 MOL1         0.0689
       9    H4      20.690303   20.316102   22.259982 H          1 MOL1         0.0689
      10    C4      21.108971   19.239255   20.419606 C.3        1 MOL1        -0.2987
      11    H5      21.475899   20.125331   19.885289 H          1 MOL1         0.0700
      12    H6      21.978874   18.692286   20.806453 H          1 MOL1         0.0700
      13    H7      20.593508   18.595561   19.694683 H          1 MOL1         0.0700
@<TRIPOS>BOND
    1     1     2    1
    2     1     3    2
    3     1     4    1
    4     4     5    1
    5     4     6    1
    6     4     7    1
    7     7     8    1
    8     7     9    1
    9     7    10    1
   10    10    11    1
   11    10    12    1
   12    10    13    1
@<TRIPOS>SUBSTRUCTURE
       1 MOL1            1 RESIDUE      1      MOL     
@<SCITEGIC>MOL_PROPERTY
VConf Rank
SciTegic.value.IntegerValue
442

@<SCITEGIC>MOL_PROPERTY
Conf_Id
SciTegic.value.IntegerValue
1

@<SCITEGIC>MOL_PROPERTY
Delta U+W
SciTegic.value.DoubleValue
-1.339

@<SCITEGIC>MOL_PROPERTY
U+W
SciTegic.value.DoubleValue
-59.672

@<SCITEGIC>MOL_PROPERTY
Grad RMS
SciTegic.value.DoubleValue
0.000000

@<SCITEGIC>MOL_PROPERTY
U
SciTegic.value.DoubleValue
7.389

@<SCITEGIC>MOL_PROPERTY
W
SciTegic.value.DoubleValue
-67.061

@<SCITEGIC>MOL_PROPERTY
W(PB)
SciTegic.value.DoubleValue
-68.767

@<SCITEGIC>MOL_PROPERTY
W(SA)
SciTegic.value.DoubleValue
1.707

@<SCITEGIC>MOL_PROPERTY
Valence
SciTegic.value.DoubleValue
5.822

@<SCITEGIC>MOL_PROPERTY
Coulomb
SciTegic.value.DoubleValue
1.255

@<SCITEGIC>MOL_PROPERTY
VdW
SciTegic.value.DoubleValue
0.312

@<SCITEGIC>MOL_PROPERTY
VdW6
SciTegic.value.DoubleValue
-3.061

@<SCITEGIC>MOL_PROPERTY
VdW12
SciTegic.value.DoubleValue
3.372

@<SCITEGIC>MOL_PROPERTY
Bond
SciTegic.value.DoubleValue
0.059

@<SCITEGIC>MOL_PROPERTY
Angle
SciTegic.value.DoubleValue
2.241

@<SCITEGIC>MOL_PROPERTY
Pdih
SciTegic.value.DoubleValue
3.522

@<SCITEGIC>MOL_PROPERTY
Idih
SciTegic.value.DoubleValue
0.000

@<SCITEGIC>MOL_PROPERTY
Tether
SciTegic.value.DoubleValue
0.000

@<TRIPOS>MOLECULE
guest-6_confgen4.mol2 : confsearch ligand conformer 443
          13          12           1
SMALL
USER_CHARGES
 
@<TRIPOS>ATOM
       1    C1      20.259203   17.781294   23.333119 C.2        1 MOL1         0.6021
       2    O1      19.749387   18.105421   24.387220 O.co2      1 MOL1        -0.6904
       3    O2      20.208180   16.653895   22.883371 O.co2      1 MOL1        -0.6904
       4    C2      21.034464   18.839694   22.552422 C.3        1 MOL1        -0.2102
       5    H1      21.682429   18.335422   21.825003 H          1 MOL1         0.0687
       6    H2      21.694455   19.351862   23.262690 H          1 MOL1         0.0687
       7    C3      20.138818   19.883009   21.836426 C.3        1 MOL1        -0.1974
       8    H3      19.465219   20.352530   22.566999 H          1 MOL1         0.0689
       9    H4      20.772503   20.683754   21.431304 H          1 MOL1         0.0689
      10    C4      19.313491   19.264436   20.689198 C.3        1 MOL1        -0.2987
      11    H5      18.634302   18.488052   21.065705 H          1 MOL1         0.0700
      12    H6      18.706676   20.032097   20.191636 H          1 MOL1         0.0700
      13    H7      19.969059   18.808543   19.935683 H          1 MOL1         0.0700
@<TRIPOS>BOND
    1     1     2    1
    2     1     3    2
    3     1     4    1
    4     4     5    1
    5     4     6    1
    6     4     7    1
    7     7     8    1
    8     7     9    1
    9     7    10    1
   10    10    11    1
   11    10    12    1
   12    10    13    1
@<TRIPOS>SUBSTRUCTURE
       1 MOL1            1 RESIDUE      1      MOL     
@<SCITEGIC>MOL_PROPERTY
VConf Rank
SciTegic.value.IntegerValue
443

@<SCITEGIC>MOL_PROPERTY
Conf_Id
SciTegic.value.IntegerValue
4

@<SCITEGIC>MOL_PROPERTY
Delta U+W
SciTegic.value.DoubleValue
0.281

@<SCITEGIC>MOL_PROPERTY
U+W
SciTegic.value.DoubleValue
-58.051

@<SCITEGIC>MOL_PROPERTY
Grad RMS
SciTegic.value.DoubleValue
0.000000

@<SCITEGIC>MOL_PROPERTY
U
SciTegic.value.DoubleValue
9.781

@<SCITEGIC>MOL_PROPERTY
W
SciTegic.value.DoubleValue
-67.832

@<SCITEGIC>MOL_PROPERTY
W(PB)
SciTegic.value.DoubleValue
-69.535

@<SCITEGIC>MOL_PROPERTY
W(SA)
SciTegic.value.DoubleValue
1.703

@<SCITEGIC>MOL_PROPERTY
Valence
SciTegic.value.DoubleValue
6.123

@<SCITEGIC>MOL_PROPERTY
Coulomb
SciTegic.value.DoubleValue
3.449

@<SCITEGIC>MOL_PROPERTY
VdW
SciTegic.value.DoubleValue
0.209

@<SCITEGIC>MOL_PROPERTY
VdW6
SciTegic.value.DoubleValue
-3.762

@<SCITEGIC>MOL_PROPERTY
VdW12
SciTegic.value.DoubleValue
3.972

@<SCITEGIC>MOL_PROPERTY
Bond
SciTegic.value.DoubleValue
0.078

@<SCITEGIC>MOL_PROPERTY
Angle
SciTegic.value.DoubleValue
2.428

@<SCITEGIC>MOL_PROPERTY
Pdih
SciTegic.value.DoubleValue
3.616

@<SCITEGIC>MOL_PROPERTY
Idih
SciTegic.value.DoubleValue
0.002

@<SCITEGIC>MOL_PROPERTY
Tether
SciTegic.value.DoubleValue
0.000

@<TRIPOS>MOLECULE
guest-6_confgen4.mol2 : confsearch ligand conformer 444
          13          12           1
SMALL
USER_CHARGES
 
@<TRIPOS>ATOM
       1    C1      18.549415   19.382574   22.759282 C.2        1 MOL1         0.6021
       2    O1      18.036475   20.306332   22.159724 O.co2      1 MOL1        -0.6904
       3    O2      17.919367   18.452792   23.222576 O.co2      1 MOL1        -0.6904
       4    C2      20.060672   19.406872   22.974312 C.3        1 MOL1        -0.2102
       5    H1      20.243866   19.188593   24.033170 H          1 MOL1         0.0687
       6    H2      20.425067   20.425564   22.793287 H          1 MOL1         0.0687
       7    C3      20.842870   18.396232   22.096753 C.3        1 MOL1        -0.1974
       8    H3      21.892183   18.374469   22.421316 H          1 MOL1         0.0689
       9    H4      20.442451   17.384996   22.254827 H          1 MOL1         0.0689
      10    C4      20.786796   18.750144   20.596244 C.3        1 MOL1        -0.2987
      11    H5      21.203192   19.749337   20.412891 H          1 MOL1         0.0700
      12    H6      21.365652   18.027531   20.006455 H          1 MOL1         0.0700
      13    H7      19.753004   18.737740   20.226179 H          1 MOL1         0.0700
@<TRIPOS>BOND
    1     1     2    1
    2     1     3    2
    3     1     4    1
    4     4     5    1
    5     4     6    1
    6     4     7    1
    7     7     8    1
    8     7     9    1
    9     7    10    1
   10    10    11    1
   11    10    12    1
   12    10    13    1
@<TRIPOS>SUBSTRUCTURE
       1 MOL1            1 RESIDUE      1      MOL     
@<SCITEGIC>MOL_PROPERTY
VConf Rank
SciTegic.value.IntegerValue
444

@<SCITEGIC>MOL_PROPERTY
Conf_Id
SciTegic.value.IntegerValue
36

@<SCITEGIC>MOL_PROPERTY
Delta U+W
SciTegic.value.DoubleValue
0.272

@<SCITEGIC>MOL_PROPERTY
U+W
SciTegic.value.DoubleValue
-58.060

@<SCITEGIC>MOL_PROPERTY
Grad RMS
SciTegic.value.DoubleValue
0.000000

@<SCITEGIC>MOL_PROPERTY
U
SciTegic.value.DoubleValue
9.781

@<SCITEGIC>MOL_PROPERTY
W
SciTegic.value.DoubleValue
-67.841

@<SCITEGIC>MOL_PROPERTY
W(PB)
SciTegic.value.DoubleValue
-69.537

@<SCITEGIC>MOL_PROPERTY
W(SA)
SciTegic.value.DoubleValue
1.696

@<SCITEGIC>MOL_PROPERTY
Valence
SciTegic.value.DoubleValue
6.123

@<SCITEGIC>MOL_PROPERTY
Coulomb
SciTegic.value.DoubleValue
3.449

@<SCITEGIC>MOL_PROPERTY
VdW
SciTegic.value.DoubleValue
0.209

@<SCITEGIC>MOL_PROPERTY
VdW6
SciTegic.value.DoubleValue
-3.762

@<SCITEGIC>MOL_PROPERTY
VdW12
SciTegic.value.DoubleValue
3.972

@<SCITEGIC>MOL_PROPERTY
Bond
SciTegic.value.DoubleValue
0.078

@<SCITEGIC>MOL_PROPERTY
Angle
SciTegic.value.DoubleValue
2.428

@<SCITEGIC>MOL_PROPERTY
Pdih
SciTegic.value.DoubleValue
3.616

@<SCITEGIC>MOL_PROPERTY
Idih
SciTegic.value.DoubleValue
0.002

@<SCITEGIC>MOL_PROPERTY
Tether
SciTegic.value.DoubleValue
0.000

@<TRIPOS>MOLECULE
guest-6_confgen4.mol2 : confsearch ligand conformer 445
          13          12           1
SMALL
USER_CHARGES
 
@<TRIPOS>ATOM
       1    C1      18.546760   17.626806   21.126819 C.2        1 MOL1         0.6021
       2    O1      19.141386   16.577827   21.279759 O.co2      1 MOL1        -0.6904
       3    O2      17.417777   17.688529   20.683665 O.co2      1 MOL1        -0.6904
       4    C2      19.224445   18.946748   21.499884 C.3        1 MOL1        -0.2102
       5    H1      18.584198   19.447254   22.236034 H          1 MOL1         0.0687
       6    H2      19.232596   19.576177   20.602059 H          1 MOL1         0.0687
       7    C3      20.664711   18.818777   22.061323 C.3        1 MOL1        -0.1974
       8    H3      20.654766   18.185289   22.959293 H          1 MOL1         0.0689
       9    H4      21.303952   18.314299   21.323334 H          1 MOL1         0.0689
      10    C4      21.265179   20.196073   22.408207 C.3        1 MOL1        -0.2987
      11    H5      20.660446   20.708242   23.168144 H          1 MOL1         0.0700
      12    H6      22.283387   20.085321   22.803485 H          1 MOL1         0.0700
      13    H7      21.314789   20.838300   21.519047 H          1 MOL1         0.0700
@<TRIPOS>BOND
    1     1     2    1
    2     1     3    2
    3     1     4    1
    4     4     5    1
    5     4     6    1
    6     4     7    1
    7     7     8    1
    8     7     9    1
    9     7    10    1
   10    10    11    1
   11    10    12    1
   12    10    13    1
@<TRIPOS>SUBSTRUCTURE
       1 MOL1            1 RESIDUE      1      MOL     
@<SCITEGIC>MOL_PROPERTY
VConf Rank
SciTegic.value.IntegerValue
445

@<SCITEGIC>MOL_PROPERTY
Conf_Id
SciTegic.value.IntegerValue
0

@<SCITEGIC>MOL_PROPERTY
Delta U+W
SciTegic.value.DoubleValue
0.000

@<SCITEGIC>MOL_PROPERTY
U+W
SciTegic.value.DoubleValue
-58.332

@<SCITEGIC>MOL_PROPERTY
Grad RMS
SciTegic.value.DoubleValue
0.000000

@<SCITEGIC>MOL_PROPERTY
U
SciTegic.value.DoubleValue
8.390

@<SCITEGIC>MOL_PROPERTY
W
SciTegic.value.DoubleValue
-66.722

@<SCITEGIC>MOL_PROPERTY
W(PB)
SciTegic.value.DoubleValue
-68.455

@<SCITEGIC>MOL_PROPERTY
W(SA)
SciTegic.value.DoubleValue
1.733

@<SCITEGIC>MOL_PROPERTY
Valence
SciTegic.value.DoubleValue
6.333

@<SCITEGIC>MOL_PROPERTY
Coulomb
SciTegic.value.DoubleValue
1.215

@<SCITEGIC>MOL_PROPERTY
VdW
SciTegic.value.DoubleValue
0.842

@<SCITEGIC>MOL_PROPERTY
VdW6
SciTegic.value.DoubleValue
-3.344

@<SCITEGIC>MOL_PROPERTY
VdW12
SciTegic.value.DoubleValue
4.186

@<SCITEGIC>MOL_PROPERTY
Bond
SciTegic.value.DoubleValue
0.091

@<SCITEGIC>MOL_PROPERTY
Angle
SciTegic.value.DoubleValue
2.713

@<SCITEGIC>MOL_PROPERTY
Pdih
SciTegic.value.DoubleValue
3.529

@<SCITEGIC>MOL_PROPERTY
Idih
SciTegic.value.DoubleValue
0.000

@<SCITEGIC>MOL_PROPERTY
Tether
SciTegic.value.DoubleValue
0.000

@<TRIPOS>MOLECULE
guest-6_confgen4.mol2 : confsearch ligand conformer 446
          13          12           1
SMALL
USER_CHARGES
 
@<TRIPOS>ATOM
       1    C1      18.925125   17.218720   21.941799 C.2        1 MOL1         0.6021
       2    O1      17.800195   17.284477   22.395196 O.co2      1 MOL1        -0.6904
       3    O2      19.597762   16.207483   21.959718 O.co2      1 MOL1        -0.6904
       4    C2      19.532774   18.478562   21.334296 C.3        1 MOL1        -0.2102
       5    H1      18.723191   19.064071   20.881777 H          1 MOL1         0.0687
       6    H2      20.205558   18.175914   20.522640 H          1 MOL1         0.0687
       7    C3      20.298755   19.338944   22.368155 C.3        1 MOL1        -0.1974
       8    H3      19.617798   19.627781   23.180984 H          1 MOL1         0.0689
       9    H4      21.100510   18.739504   22.821677 H          1 MOL1         0.0689
      10    C4      20.900229   20.603760   21.723359 C.3        1 MOL1        -0.2987
      11    H5      21.438853   21.200282   22.471228 H          1 MOL1         0.0700
      12    H6      21.608007   20.339771   20.926544 H          1 MOL1         0.0700
      13    H7      20.113918   21.234869   21.288649 H          1 MOL1         0.0700
@<TRIPOS>BOND
    1     1     2    1
    2     1     3    2
    3     1     4    1
    4     4     5    1
    5     4     6    1
    6     4     7    1
    7     7     8    1
    8     7     9    1
    9     7    10    1
   10    10    11    1
   11    10    12    1
   12    10    13    1
@<TRIPOS>SUBSTRUCTURE
       1 MOL1            1 RESIDUE      1      MOL     
@<SCITEGIC>MOL_PROPERTY
VConf Rank
SciTegic.value.IntegerValue
446

@<SCITEGIC>MOL_PROPERTY
Conf_Id
SciTegic.value.IntegerValue
1

@<SCITEGIC>MOL_PROPERTY
Delta U+W
SciTegic.value.DoubleValue
-1.339

@<SCITEGIC>MOL_PROPERTY
U+W
SciTegic.value.DoubleValue
-59.672

@<SCITEGIC>MOL_PROPERTY
Grad RMS
SciTegic.value.DoubleValue
0.000000

@<SCITEGIC>MOL_PROPERTY
U
SciTegic.value.DoubleValue
7.389

@<SCITEGIC>MOL_PROPERTY
W
SciTegic.value.DoubleValue
-67.061

@<SCITEGIC>MOL_PROPERTY
W(PB)
SciTegic.value.DoubleValue
-68.767

@<SCITEGIC>MOL_PROPERTY
W(SA)
SciTegic.value.DoubleValue
1.707

@<SCITEGIC>MOL_PROPERTY
Valence
SciTegic.value.DoubleValue
5.822

@<SCITEGIC>MOL_PROPERTY
Coulomb
SciTegic.value.DoubleValue
1.255

@<SCITEGIC>MOL_PROPERTY
VdW
SciTegic.value.DoubleValue
0.312

@<SCITEGIC>MOL_PROPERTY
VdW6
SciTegic.value.DoubleValue
-3.061

@<SCITEGIC>MOL_PROPERTY
VdW12
SciTegic.value.DoubleValue
3.372

@<SCITEGIC>MOL_PROPERTY
Bond
SciTegic.value.DoubleValue
0.059

@<SCITEGIC>MOL_PROPERTY
Angle
SciTegic.value.DoubleValue
2.241

@<SCITEGIC>MOL_PROPERTY
Pdih
SciTegic.value.DoubleValue
3.522

@<SCITEGIC>MOL_PROPERTY
Idih
SciTegic.value.DoubleValue
0.000

@<SCITEGIC>MOL_PROPERTY
Tether
SciTegic.value.DoubleValue
0.000

@<TRIPOS>MOLECULE
guest-6_confgen4.mol2 : confsearch ligand conformer 447
          13          12           1
SMALL
USER_CHARGES
 
@<TRIPOS>ATOM
       1    C1      19.086311   20.115177   21.094407 C.2        1 MOL1         0.6021
       2    O1      17.919023   20.154321   21.429079 O.co2      1 MOL1        -0.6904
       3    O2      19.731019   21.100995   20.797053 O.co2      1 MOL1        -0.6904
       4    C2      19.765879   18.750742   21.009378 C.3        1 MOL1        -0.2102
       5    H1      20.675537   18.848306   20.404158 H          1 MOL1         0.0687
       6    H2      19.090902   18.082841   20.461016 H          1 MOL1         0.0687
       7    C3      20.105254   18.123896   22.386051 C.3        1 MOL1        -0.1974
       8    H3      19.194981   18.068839   22.999478 H          1 MOL1         0.0689
       9    H4      20.447990   17.090921   22.236491 H          1 MOL1         0.0689
      10    C4      21.195440   18.912180   23.141056 C.3        1 MOL1        -0.2987
      11    H5      20.867998   19.939821   23.347364 H          1 MOL1         0.0700
      12    H6      21.425632   18.431632   24.100838 H          1 MOL1         0.0700
      13    H7      22.122218   18.960335   22.554408 H          1 MOL1         0.0700
@<TRIPOS>BOND
    1     1     2    1
    2     1     3    2
    3     1     4    1
    4     4     5    1
    5     4     6    1
    6     4     7    1
    7     7     8    1
    8     7     9    1
    9     7    10    1
   10    10    11    1
   11    10    12    1
   12    10    13    1
@<TRIPOS>SUBSTRUCTURE
       1 MOL1            1 RESIDUE      1      MOL     
@<SCITEGIC>MOL_PROPERTY
VConf Rank
SciTegic.value.IntegerValue
447

@<SCITEGIC>MOL_PROPERTY
Conf_Id
SciTegic.value.IntegerValue
4

@<SCITEGIC>MOL_PROPERTY
Delta U+W
SciTegic.value.DoubleValue
0.281

@<SCITEGIC>MOL_PROPERTY
U+W
SciTegic.value.DoubleValue
-58.051

@<SCITEGIC>MOL_PROPERTY
Grad RMS
SciTegic.value.DoubleValue
0.000000

@<SCITEGIC>MOL_PROPERTY
U
SciTegic.value.DoubleValue
9.781

@<SCITEGIC>MOL_PROPERTY
W
SciTegic.value.DoubleValue
-67.832

@<SCITEGIC>MOL_PROPERTY
W(PB)
SciTegic.value.DoubleValue
-69.535

@<SCITEGIC>MOL_PROPERTY
W(SA)
SciTegic.value.DoubleValue
1.703

@<SCITEGIC>MOL_PROPERTY
Valence
SciTegic.value.DoubleValue
6.123

@<SCITEGIC>MOL_PROPERTY
Coulomb
SciTegic.value.DoubleValue
3.449

@<SCITEGIC>MOL_PROPERTY
VdW
SciTegic.value.DoubleValue
0.209

@<SCITEGIC>MOL_PROPERTY
VdW6
SciTegic.value.DoubleValue
-3.762

@<SCITEGIC>MOL_PROPERTY
VdW12
SciTegic.value.DoubleValue
3.972

@<SCITEGIC>MOL_PROPERTY
Bond
SciTegic.value.DoubleValue
0.078

@<SCITEGIC>MOL_PROPERTY
Angle
SciTegic.value.DoubleValue
2.428

@<SCITEGIC>MOL_PROPERTY
Pdih
SciTegic.value.DoubleValue
3.616

@<SCITEGIC>MOL_PROPERTY
Idih
SciTegic.value.DoubleValue
0.002

@<SCITEGIC>MOL_PROPERTY
Tether
SciTegic.value.DoubleValue
0.000

@<TRIPOS>MOLECULE
guest-6_confgen4.mol2 : confsearch ligand conformer 448
          13          12           1
SMALL
USER_CHARGES
 
@<TRIPOS>ATOM
       1    C1      21.386211   18.155624   22.966253 C.2        1 MOL1         0.6021
       2    O1      21.534115   18.744289   24.018632 O.co2      1 MOL1        -0.6904
       3    O2      21.445537   16.946686   22.861154 O.co2      1 MOL1        -0.6904
       4    C2      21.148801   18.977770   21.701960 C.3        1 MOL1        -0.2102
       5    H1      21.833128   18.600023   20.932941 H          1 MOL1         0.0687
       6    H2      21.437276   20.017497   21.899540 H          1 MOL1         0.0687
       7    C3      19.693529   18.919206   21.170836 C.3        1 MOL1        -0.1974
       8    H3      19.649124   19.408201   20.188092 H          1 MOL1         0.0689
       9    H4      19.400622   17.871335   21.015613 H          1 MOL1         0.0689
      10    C4      18.690269   19.605380   22.120867 C.3        1 MOL1        -0.2987
      11    H5      18.952068   20.660808   22.272279 H          1 MOL1         0.0700
      12    H6      17.674517   19.563488   21.706633 H          1 MOL1         0.0700
      13    H7      18.675815   19.112867   23.102217 H          1 MOL1         0.0700
@<TRIPOS>BOND
    1     1     2    1
    2     1     3    2
    3     1     4    1
    4     4     5    1
    5     4     6    1
    6     4     7    1
    7     7     8    1
    8     7     9    1
    9     7    10    1
   10    10    11    1
   11    10    12    1
   12    10    13    1
@<TRIPOS>SUBSTRUCTURE
       1 MOL1            1 RESIDUE      1      MOL     
@<SCITEGIC>MOL_PROPERTY
VConf Rank
SciTegic.value.IntegerValue
448

@<SCITEGIC>MOL_PROPERTY
Conf_Id
SciTegic.value.IntegerValue
36

@<SCITEGIC>MOL_PROPERTY
Delta U+W
SciTegic.value.DoubleValue
0.272

@<SCITEGIC>MOL_PROPERTY
U+W
SciTegic.value.DoubleValue
-58.060

@<SCITEGIC>MOL_PROPERTY
Grad RMS
SciTegic.value.DoubleValue
0.000000

@<SCITEGIC>MOL_PROPERTY
U
SciTegic.value.DoubleValue
9.781

@<SCITEGIC>MOL_PROPERTY
W
SciTegic.value.DoubleValue
-67.841

@<SCITEGIC>MOL_PROPERTY
W(PB)
SciTegic.value.DoubleValue
-69.537

@<SCITEGIC>MOL_PROPERTY
W(SA)
SciTegic.value.DoubleValue
1.696

@<SCITEGIC>MOL_PROPERTY
Valence
SciTegic.value.DoubleValue
6.123

@<SCITEGIC>MOL_PROPERTY
Coulomb
SciTegic.value.DoubleValue
3.449

@<SCITEGIC>MOL_PROPERTY
VdW
SciTegic.value.DoubleValue
0.209

@<SCITEGIC>MOL_PROPERTY
VdW6
SciTegic.value.DoubleValue
-3.762

@<SCITEGIC>MOL_PROPERTY
VdW12
SciTegic.value.DoubleValue
3.972

@<SCITEGIC>MOL_PROPERTY
Bond
SciTegic.value.DoubleValue
0.078

@<SCITEGIC>MOL_PROPERTY
Angle
SciTegic.value.DoubleValue
2.428

@<SCITEGIC>MOL_PROPERTY
Pdih
SciTegic.value.DoubleValue
3.616

@<SCITEGIC>MOL_PROPERTY
Idih
SciTegic.value.DoubleValue
0.002

@<SCITEGIC>MOL_PROPERTY
Tether
SciTegic.value.DoubleValue
0.000

@<TRIPOS>MOLECULE
guest-6_confgen4.mol2 : confsearch ligand conformer 449
          13          12           1
SMALL
USER_CHARGES
 
@<TRIPOS>ATOM
       1    C1      21.286034   19.875355   23.299539 C.2        1 MOL1         0.6021
       2    O1      20.457102   20.451891   23.976153 O.co2      1 MOL1        -0.6904
       3    O2      22.474695   19.899575   23.547112 O.co2      1 MOL1        -0.6904
       4    C2      20.843521   19.074406   22.073429 C.3        1 MOL1        -0.2102
       5    H1      21.195725   18.044998   22.209848 H          1 MOL1         0.0687
       6    H2      21.375568   19.482559   21.205861 H          1 MOL1         0.0687
       7    C3      19.317296   19.072051   21.796679 C.3        1 MOL1        -0.1974
       8    H3      18.785795   18.665389   22.668394 H          1 MOL1         0.0689
       9    H4      18.965839   20.104731   21.663245 H          1 MOL1         0.0689
      10    C4      18.966721   18.242018   20.545289 C.3        1 MOL1        -0.2987
      11    H5      19.280423   17.196827   20.666492 H          1 MOL1         0.0700
      12    H6      17.883710   18.252137   20.365728 H          1 MOL1         0.0700
      13    H7      19.461964   18.647707   19.653284 H          1 MOL1         0.0700
@<TRIPOS>BOND
    1     1     2    1
    2     1     3    2
    3     1     4    1
    4     4     5    1
    5     4     6    1
    6     4     7    1
    7     7     8    1
    8     7     9    1
    9     7    10    1
   10    10    11    1
   11    10    12    1
   12    10    13    1
@<TRIPOS>SUBSTRUCTURE
       1 MOL1            1 RESIDUE      1      MOL     
@<SCITEGIC>MOL_PROPERTY
VConf Rank
SciTegic.value.IntegerValue
449

@<SCITEGIC>MOL_PROPERTY
Conf_Id
SciTegic.value.IntegerValue
0

@<SCITEGIC>MOL_PROPERTY
Delta U+W
SciTegic.value.DoubleValue
0.000

@<SCITEGIC>MOL_PROPERTY
U+W
SciTegic.value.DoubleValue
-58.332

@<SCITEGIC>MOL_PROPERTY
Grad RMS
SciTegic.value.DoubleValue
0.000000

@<SCITEGIC>MOL_PROPERTY
U
SciTegic.value.DoubleValue
8.390

@<SCITEGIC>MOL_PROPERTY
W
SciTegic.value.DoubleValue
-66.722

@<SCITEGIC>MOL_PROPERTY
W(PB)
SciTegic.value.DoubleValue
-68.455

@<SCITEGIC>MOL_PROPERTY
W(SA)
SciTegic.value.DoubleValue
1.733

@<SCITEGIC>MOL_PROPERTY
Valence
SciTegic.value.DoubleValue
6.333

@<SCITEGIC>MOL_PROPERTY
Coulomb
SciTegic.value.DoubleValue
1.215

@<SCITEGIC>MOL_PROPERTY
VdW
SciTegic.value.DoubleValue
0.842

@<SCITEGIC>MOL_PROPERTY
VdW6
SciTegic.value.DoubleValue
-3.344

@<SCITEGIC>MOL_PROPERTY
VdW12
SciTegic.value.DoubleValue
4.186

@<SCITEGIC>MOL_PROPERTY
Bond
SciTegic.value.DoubleValue
0.091

@<SCITEGIC>MOL_PROPERTY
Angle
SciTegic.value.DoubleValue
2.713

@<SCITEGIC>MOL_PROPERTY
Pdih
SciTegic.value.DoubleValue
3.529

@<SCITEGIC>MOL_PROPERTY
Idih
SciTegic.value.DoubleValue
0.000

@<SCITEGIC>MOL_PROPERTY
Tether
SciTegic.value.DoubleValue
0.000

@<TRIPOS>MOLECULE
guest-6_confgen4.mol2 : confsearch ligand conformer 450
          13          12           1
SMALL
USER_CHARGES
 
@<TRIPOS>ATOM
       1    C1      19.773523   20.037647   19.983376 C.2        1 MOL1         0.6021
       2    O1      19.124647   21.064249   20.003621 O.co2      1 MOL1        -0.6904
       3    O2      19.920882   19.356484   18.988559 O.co2      1 MOL1        -0.6904
       4    C2      20.422501   19.568791   21.281260 C.3        1 MOL1        -0.2102
       5    H1      20.697029   20.455564   21.865457 H          1 MOL1         0.0687
       6    H2      21.353666   19.047256   21.028372 H          1 MOL1         0.0687
       7    C3      19.504055   18.644174   22.116358 C.3        1 MOL1        -0.1974
       8    H3      18.570899   19.173316   22.355208 H          1 MOL1         0.0689
       9    H4      19.227770   17.764697   21.518018 H          1 MOL1         0.0689
      10    C4      20.188370   18.188143   23.420597 C.3        1 MOL1        -0.2987
      11    H5      19.522392   17.534098   23.998489 H          1 MOL1         0.0700
      12    H6      21.109446   17.630149   23.206546 H          1 MOL1         0.0700
      13    H7      20.447495   19.049570   24.050163 H          1 MOL1         0.0700
@<TRIPOS>BOND
    1     1     2    1
    2     1     3    2
    3     1     4    1
    4     4     5    1
    5     4     6    1
    6     4     7    1
    7     7     8    1
    8     7     9    1
    9     7    10    1
   10    10    11    1
   11    10    12    1
   12    10    13    1
@<TRIPOS>SUBSTRUCTURE
       1 MOL1            1 RESIDUE      1      MOL     
@<SCITEGIC>MOL_PROPERTY
VConf Rank
SciTegic.value.IntegerValue
450

@<SCITEGIC>MOL_PROPERTY
Conf_Id
SciTegic.value.IntegerValue
1

@<SCITEGIC>MOL_PROPERTY
Delta U+W
SciTegic.value.DoubleValue
-1.339

@<SCITEGIC>MOL_PROPERTY
U+W
SciTegic.value.DoubleValue
-59.672

@<SCITEGIC>MOL_PROPERTY
Grad RMS
SciTegic.value.DoubleValue
0.000000

@<SCITEGIC>MOL_PROPERTY
U
SciTegic.value.DoubleValue
7.389

@<SCITEGIC>MOL_PROPERTY
W
SciTegic.value.DoubleValue
-67.061

@<SCITEGIC>MOL_PROPERTY
W(PB)
SciTegic.value.DoubleValue
-68.767

@<SCITEGIC>MOL_PROPERTY
W(SA)
SciTegic.value.DoubleValue
1.707

@<SCITEGIC>MOL_PROPERTY
Valence
SciTegic.value.DoubleValue
5.822

@<SCITEGIC>MOL_PROPERTY
Coulomb
SciTegic.value.DoubleValue
1.255

@<SCITEGIC>MOL_PROPERTY
VdW
SciTegic.value.DoubleValue
0.312

@<SCITEGIC>MOL_PROPERTY
VdW6
SciTegic.value.DoubleValue
-3.061

@<SCITEGIC>MOL_PROPERTY
VdW12
SciTegic.value.DoubleValue
3.372

@<SCITEGIC>MOL_PROPERTY
Bond
SciTegic.value.DoubleValue
0.059

@<SCITEGIC>MOL_PROPERTY
Angle
SciTegic.value.DoubleValue
2.241

@<SCITEGIC>MOL_PROPERTY
Pdih
SciTegic.value.DoubleValue
3.522

@<SCITEGIC>MOL_PROPERTY
Idih
SciTegic.value.DoubleValue
0.000

@<SCITEGIC>MOL_PROPERTY
Tether
SciTegic.value.DoubleValue
0.000

@<TRIPOS>MOLECULE
guest-6_confgen4.mol2 : confsearch ligand conformer 451
          13          12           1
SMALL
USER_CHARGES
 
@<TRIPOS>ATOM
       1    C1      20.046394   17.579506   23.127234 C.2        1 MOL1         0.6021
       2    O1      21.016677   16.848469   23.142519 O.co2      1 MOL1        -0.6904
       3    O2      19.435259   17.902044   24.126427 O.co2      1 MOL1        -0.6904
       4    C2      19.549749   18.089174   21.776563 C.3        1 MOL1        -0.2102
       5    H1      18.520454   18.449825   21.893906 H          1 MOL1         0.0687
       6    H2      19.508393   17.229118   21.097608 H          1 MOL1         0.0687
       7    C3      20.435718   19.197242   21.151595 C.3        1 MOL1        -0.1974
       8    H3      21.472554   18.840470   21.076711 H          1 MOL1         0.0689
       9    H4      20.095057   19.394694   20.126004 H          1 MOL1         0.0689
      10    C4      20.393954   20.511583   21.958250 C.3        1 MOL1        -0.2987
      11    H5      20.770649   20.360574   22.978605 H          1 MOL1         0.0700
      12    H6      21.014857   21.279564   21.478894 H          1 MOL1         0.0700
      13    H7      19.368470   20.897745   22.026459 H          1 MOL1         0.0700
@<TRIPOS>BOND
    1     1     2    1
    2     1     3    2
    3     1     4    1
    4     4     5    1
    5     4     6    1
    6     4     7    1
    7     7     8    1
    8     7     9    1
    9     7    10    1
   10    10    11    1
   11    10    12    1
   12    10    13    1
@<TRIPOS>SUBSTRUCTURE
       1 MOL1            1 RESIDUE      1      MOL     
@<SCITEGIC>MOL_PROPERTY
VConf Rank
SciTegic.value.IntegerValue
451

@<SCITEGIC>MOL_PROPERTY
Conf_Id
SciTegic.value.IntegerValue
4

@<SCITEGIC>MOL_PROPERTY
Delta U+W
SciTegic.value.DoubleValue
0.281

@<SCITEGIC>MOL_PROPERTY
U+W
SciTegic.value.DoubleValue
-58.051

@<SCITEGIC>MOL_PROPERTY
Grad RMS
SciTegic.value.DoubleValue
0.000000

@<SCITEGIC>MOL_PROPERTY
U
SciTegic.value.DoubleValue
9.781

@<SCITEGIC>MOL_PROPERTY
W
SciTegic.value.DoubleValue
-67.832

@<SCITEGIC>MOL_PROPERTY
W(PB)
SciTegic.value.DoubleValue
-69.535

@<SCITEGIC>MOL_PROPERTY
W(SA)
SciTegic.value.DoubleValue
1.703

@<SCITEGIC>MOL_PROPERTY
Valence
SciTegic.value.DoubleValue
6.123

@<SCITEGIC>MOL_PROPERTY
Coulomb
SciTegic.value.DoubleValue
3.449

@<SCITEGIC>MOL_PROPERTY
VdW
SciTegic.value.DoubleValue
0.209

@<SCITEGIC>MOL_PROPERTY
VdW6
SciTegic.value.DoubleValue
-3.762

@<SCITEGIC>MOL_PROPERTY
VdW12
SciTegic.value.DoubleValue
3.972

@<SCITEGIC>MOL_PROPERTY
Bond
SciTegic.value.DoubleValue
0.078

@<SCITEGIC>MOL_PROPERTY
Angle
SciTegic.value.DoubleValue
2.428

@<SCITEGIC>MOL_PROPERTY
Pdih
SciTegic.value.DoubleValue
3.616

@<SCITEGIC>MOL_PROPERTY
Idih
SciTegic.value.DoubleValue
0.002

@<SCITEGIC>MOL_PROPERTY
Tether
SciTegic.value.DoubleValue
0.000

@<TRIPOS>MOLECULE
guest-6_confgen4.mol2 : confsearch ligand conformer 452
          13          12           1
SMALL
USER_CHARGES
 
@<TRIPOS>ATOM
       1    C1      18.380204   18.527121   21.993895 C.2        1 MOL1         0.6021
       2    O1      18.230988   17.455753   22.546896 O.co2      1 MOL1        -0.6904
       3    O2      17.595895   19.449186   22.097603 O.co2      1 MOL1        -0.6904
       4    C2      19.597754   18.715079   21.092248 C.3        1 MOL1        -0.2102
       5    H1      19.242451   19.145951   20.148588 H          1 MOL1         0.0687
       6    H2      20.013697   17.728595   20.853233 H          1 MOL1         0.0687
       7    C3      20.697927   19.626958   21.693443 C.3        1 MOL1        -0.1974
       8    H3      21.457961   19.827780   20.926052 H          1 MOL1         0.0689
       9    H4      20.261681   20.597802   21.967435 H          1 MOL1         0.0689
      10    C4      21.379829   18.995970   22.925023 C.3        1 MOL1        -0.2987
      11    H5      21.842194   18.033989   22.667724 H          1 MOL1         0.0700
      12    H6      22.165314   19.657202   23.313457 H          1 MOL1         0.0700
      13    H7      20.655116   18.821789   23.731421 H          1 MOL1         0.0700
@<TRIPOS>BOND
    1     1     2    1
    2     1     3    2
    3     1     4    1
    4     4     5    1
    5     4     6    1
    6     4     7    1
    7     7     8    1
    8     7     9    1
    9     7    10    1
   10    10    11    1
   11    10    12    1
   12    10    13    1
@<TRIPOS>SUBSTRUCTURE
       1 MOL1            1 RESIDUE      1      MOL     
@<SCITEGIC>MOL_PROPERTY
VConf Rank
SciTegic.value.IntegerValue
452

@<SCITEGIC>MOL_PROPERTY
Conf_Id
SciTegic.value.IntegerValue
36

@<SCITEGIC>MOL_PROPERTY
Delta U+W
SciTegic.value.DoubleValue
0.272

@<SCITEGIC>MOL_PROPERTY
U+W
SciTegic.value.DoubleValue
-58.060

@<SCITEGIC>MOL_PROPERTY
Grad RMS
SciTegic.value.DoubleValue
0.000000

@<SCITEGIC>MOL_PROPERTY
U
SciTegic.value.DoubleValue
9.781

@<SCITEGIC>MOL_PROPERTY
W
SciTegic.value.DoubleValue
-67.841

@<SCITEGIC>MOL_PROPERTY
W(PB)
SciTegic.value.DoubleValue
-69.537

@<SCITEGIC>MOL_PROPERTY
W(SA)
SciTegic.value.DoubleValue
1.696

@<SCITEGIC>MOL_PROPERTY
Valence
SciTegic.value.DoubleValue
6.123

@<SCITEGIC>MOL_PROPERTY
Coulomb
SciTegic.value.DoubleValue
3.449

@<SCITEGIC>MOL_PROPERTY
VdW
SciTegic.value.DoubleValue
0.209

@<SCITEGIC>MOL_PROPERTY
VdW6
SciTegic.value.DoubleValue
-3.762

@<SCITEGIC>MOL_PROPERTY
VdW12
SciTegic.value.DoubleValue
3.972

@<SCITEGIC>MOL_PROPERTY
Bond
SciTegic.value.DoubleValue
0.078

@<SCITEGIC>MOL_PROPERTY
Angle
SciTegic.value.DoubleValue
2.428

@<SCITEGIC>MOL_PROPERTY
Pdih
SciTegic.value.DoubleValue
3.616

@<SCITEGIC>MOL_PROPERTY
Idih
SciTegic.value.DoubleValue
0.002

@<SCITEGIC>MOL_PROPERTY
Tether
SciTegic.value.DoubleValue
0.000

@<TRIPOS>MOLECULE
guest-6_confgen4.mol2 : confsearch ligand conformer 453
          13          12           1
SMALL
USER_CHARGES
 
@<TRIPOS>ATOM
       1    C1      20.297000   20.816475   22.905036 C.2        1 MOL1         0.6021
       2    O1      19.511933   21.536519   22.319770 O.co2      1 MOL1        -0.6904
       3    O2      20.975409   21.197605   23.837397 O.co2      1 MOL1        -0.6904
       4    C2      20.461137   19.358612   22.471014 C.3        1 MOL1        -0.2102
       5    H1      20.244996   18.730611   23.343502 H          1 MOL1         0.0687
       6    H2      21.518295   19.207862   22.221961 H          1 MOL1         0.0687
       7    C3      19.574963   18.916994   21.277018 C.3        1 MOL1        -0.1974
       8    H3      18.516146   19.071591   21.527540 H          1 MOL1         0.0689
       9    H4      19.790957   19.549483   20.404631 H          1 MOL1         0.0689
      10    C4      19.807924   17.437101   20.911665 C.3        1 MOL1        -0.2987
      11    H5      19.568818   16.780890   21.758859 H          1 MOL1         0.0700
      12    H6      19.172927   17.143281   20.065671 H          1 MOL1         0.0700
      13    H7      20.853886   17.262620   20.626986 H          1 MOL1         0.0700
@<TRIPOS>BOND
    1     1     2    1
    2     1     3    2
    3     1     4    1
    4     4     5    1
    5     4     6    1
    6     4     7    1
    7     7     8    1
    8     7     9    1
    9     7    10    1
   10    10    11    1
   11    10    12    1
   12    10    13    1
@<TRIPOS>SUBSTRUCTURE
       1 MOL1            1 RESIDUE      1      MOL     
@<SCITEGIC>MOL_PROPERTY
VConf Rank
SciTegic.value.IntegerValue
453

@<SCITEGIC>MOL_PROPERTY
Conf_Id
SciTegic.value.IntegerValue
0

@<SCITEGIC>MOL_PROPERTY
Delta U+W
SciTegic.value.DoubleValue
0.000

@<SCITEGIC>MOL_PROPERTY
U+W
SciTegic.value.DoubleValue
-58.332

@<SCITEGIC>MOL_PROPERTY
Grad RMS
SciTegic.value.DoubleValue
0.000000

@<SCITEGIC>MOL_PROPERTY
U
SciTegic.value.DoubleValue
8.390

@<SCITEGIC>MOL_PROPERTY
W
SciTegic.value.DoubleValue
-66.722

@<SCITEGIC>MOL_PROPERTY
W(PB)
SciTegic.value.DoubleValue
-68.455

@<SCITEGIC>MOL_PROPERTY
W(SA)
SciTegic.value.DoubleValue
1.733

@<SCITEGIC>MOL_PROPERTY
Valence
SciTegic.value.DoubleValue
6.333

@<SCITEGIC>MOL_PROPERTY
Coulomb
SciTegic.value.DoubleValue
1.215

@<SCITEGIC>MOL_PROPERTY
VdW
SciTegic.value.DoubleValue
0.842

@<SCITEGIC>MOL_PROPERTY
VdW6
SciTegic.value.DoubleValue
-3.344

@<SCITEGIC>MOL_PROPERTY
VdW12
SciTegic.value.DoubleValue
4.186

@<SCITEGIC>MOL_PROPERTY
Bond
SciTegic.value.DoubleValue
0.091

@<SCITEGIC>MOL_PROPERTY
Angle
SciTegic.value.DoubleValue
2.713

@<SCITEGIC>MOL_PROPERTY
Pdih
SciTegic.value.DoubleValue
3.529

@<SCITEGIC>MOL_PROPERTY
Idih
SciTegic.value.DoubleValue
0.000

@<SCITEGIC>MOL_PROPERTY
Tether
SciTegic.value.DoubleValue
0.000

@<TRIPOS>MOLECULE
guest-6_confgen4.mol2 : confsearch ligand conformer 454
          13          12           1
SMALL
USER_CHARGES
 
@<TRIPOS>ATOM
       1    C1      21.742003   18.323511   20.896035 C.2        1 MOL1         0.6021
       2    O1      22.764253   18.399407   21.547653 O.co2      1 MOL1        -0.6904
       3    O2      21.721310   18.285114   19.682174 O.co2      1 MOL1        -0.6904
       4    C2      20.411970   18.293821   21.641441 C.3        1 MOL1        -0.2102
       5    H1      20.568142   17.780532   22.598083 H          1 MOL1         0.0687
       6    H2      19.708075   17.686259   21.059703 H          1 MOL1         0.0687
       7    C3      19.823642   19.704828   21.883885 C.3        1 MOL1        -0.1974
       8    H3      20.541047   20.307238   22.458561 H          1 MOL1         0.0689
       9    H4      19.680703   20.212887   20.919900 H          1 MOL1         0.0689
      10    C4      18.480744   19.640509   22.638722 C.3        1 MOL1        -0.2987
      11    H5      18.079688   20.649495   22.801081 H          1 MOL1         0.0700
      12    H6      17.737068   19.067711   22.069158 H          1 MOL1         0.0700
      13    H7      18.604028   19.162825   23.619627 H          1 MOL1         0.0700
@<TRIPOS>BOND
    1     1     2    1
    2     1     3    2
    3     1     4    1
    4     4     5    1
    5     4     6    1
    6     4     7    1
    7     7     8    1
    8     7     9    1
    9     7    10    1
   10    10    11    1
   11    10    12    1
   12    10    13    1
@<TRIPOS>SUBSTRUCTURE
       1 MOL1            1 RESIDUE      1      MOL     
@<SCITEGIC>MOL_PROPERTY
VConf Rank
SciTegic.value.IntegerValue
454

@<SCITEGIC>MOL_PROPERTY
Conf_Id
SciTegic.value.IntegerValue
1

@<SCITEGIC>MOL_PROPERTY
Delta U+W
SciTegic.value.DoubleValue
-1.339

@<SCITEGIC>MOL_PROPERTY
U+W
SciTegic.value.DoubleValue
-59.672

@<SCITEGIC>MOL_PROPERTY
Grad RMS
SciTegic.value.DoubleValue
0.000000

@<SCITEGIC>MOL_PROPERTY
U
SciTegic.value.DoubleValue
7.389

@<SCITEGIC>MOL_PROPERTY
W
SciTegic.value.DoubleValue
-67.061

@<SCITEGIC>MOL_PROPERTY
W(PB)
SciTegic.value.DoubleValue
-68.767

@<SCITEGIC>MOL_PROPERTY
W(SA)
SciTegic.value.DoubleValue
1.707

@<SCITEGIC>MOL_PROPERTY
Valence
SciTegic.value.DoubleValue
5.822

@<SCITEGIC>MOL_PROPERTY
Coulomb
SciTegic.value.DoubleValue
1.255

@<SCITEGIC>MOL_PROPERTY
VdW
SciTegic.value.DoubleValue
0.312

@<SCITEGIC>MOL_PROPERTY
VdW6
SciTegic.value.DoubleValue
-3.061

@<SCITEGIC>MOL_PROPERTY
VdW12
SciTegic.value.DoubleValue
3.372

@<SCITEGIC>MOL_PROPERTY
Bond
SciTegic.value.DoubleValue
0.059

@<SCITEGIC>MOL_PROPERTY
Angle
SciTegic.value.DoubleValue
2.241

@<SCITEGIC>MOL_PROPERTY
Pdih
SciTegic.value.DoubleValue
3.522

@<SCITEGIC>MOL_PROPERTY
Idih
SciTegic.value.DoubleValue
0.000

@<SCITEGIC>MOL_PROPERTY
Tether
SciTegic.value.DoubleValue
0.000

@<TRIPOS>MOLECULE
guest-6_confgen4.mol2 : confsearch ligand conformer 455
          13          12           1
SMALL
USER_CHARGES
 
@<TRIPOS>ATOM
       1    C1      20.029148   19.784098   23.589150 C.2        1 MOL1         0.6021
       2    O1      20.895894   19.494929   24.389918 O.co2      1 MOL1        -0.6904
       3    O2      19.601446   20.911815   23.443442 O.co2      1 MOL1        -0.6904
       4    C2      19.422249   18.663487   22.748535 C.3        1 MOL1        -0.2102
       5    H1      18.469895   19.013328   22.331497 H          1 MOL1         0.0687
       6    H2      19.185381   17.836335   23.428313 H          1 MOL1         0.0687
       7    C3      20.345449   18.150069   21.613879 C.3        1 MOL1        -0.1974
       8    H3      21.311379   17.840844   22.037295 H          1 MOL1         0.0689
       9    H4      19.897263   17.254194   21.162868 H          1 MOL1         0.0689
      10    C4      20.573283   19.207648   20.514085 C.3        1 MOL1        -0.2987
      11    H5      21.061888   20.102416   20.922111 H          1 MOL1         0.0700
      12    H6      21.213689   18.806117   19.718002 H          1 MOL1         0.0700
      13    H7      19.621219   19.514728   20.061682 H          1 MOL1         0.0700
@<TRIPOS>BOND
    1     1     2    1
    2     1     3    2
    3     1     4    1
    4     4     5    1
    5     4     6    1
    6     4     7    1
    7     7     8    1
    8     7     9    1
    9     7    10    1
   10    10    11    1
   11    10    12    1
   12    10    13    1
@<TRIPOS>SUBSTRUCTURE
       1 MOL1            1 RESIDUE      1      MOL     
@<SCITEGIC>MOL_PROPERTY
VConf Rank
SciTegic.value.IntegerValue
455

@<SCITEGIC>MOL_PROPERTY
Conf_Id
SciTegic.value.IntegerValue
4

@<SCITEGIC>MOL_PROPERTY
Delta U+W
SciTegic.value.DoubleValue
0.281

@<SCITEGIC>MOL_PROPERTY
U+W
SciTegic.value.DoubleValue
-58.051

@<SCITEGIC>MOL_PROPERTY
Grad RMS
SciTegic.value.DoubleValue
0.000000

@<SCITEGIC>MOL_PROPERTY
U
SciTegic.value.DoubleValue
9.781

@<SCITEGIC>MOL_PROPERTY
W
SciTegic.value.DoubleValue
-67.832

@<SCITEGIC>MOL_PROPERTY
W(PB)
SciTegic.value.DoubleValue
-69.535

@<SCITEGIC>MOL_PROPERTY
W(SA)
SciTegic.value.DoubleValue
1.703

@<SCITEGIC>MOL_PROPERTY
Valence
SciTegic.value.DoubleValue
6.123

@<SCITEGIC>MOL_PROPERTY
Coulomb
SciTegic.value.DoubleValue
3.449

@<SCITEGIC>MOL_PROPERTY
VdW
SciTegic.value.DoubleValue
0.209

@<SCITEGIC>MOL_PROPERTY
VdW6
SciTegic.value.DoubleValue
-3.762

@<SCITEGIC>MOL_PROPERTY
VdW12
SciTegic.value.DoubleValue
3.972

@<SCITEGIC>MOL_PROPERTY
Bond
SciTegic.value.DoubleValue
0.078

@<SCITEGIC>MOL_PROPERTY
Angle
SciTegic.value.DoubleValue
2.428

@<SCITEGIC>MOL_PROPERTY
Pdih
SciTegic.value.DoubleValue
3.616

@<SCITEGIC>MOL_PROPERTY
Idih
SciTegic.value.DoubleValue
0.002

@<SCITEGIC>MOL_PROPERTY
Tether
SciTegic.value.DoubleValue
0.000

@<TRIPOS>MOLECULE
guest-6_confgen4.mol2 : confsearch ligand conformer 456
          13          12           1
SMALL
USER_CHARGES
 
@<TRIPOS>ATOM
       1    C1      19.639732   19.390066   20.321937 C.2        1 MOL1         0.6021
       2    O1      19.432866   20.584796   20.246210 O.co2      1 MOL1        -0.6904
       3    O2      20.167585   18.744558   19.438315 O.co2      1 MOL1        -0.6904
       4    C2      19.181033   18.652255   21.577307 C.3        1 MOL1        -0.2102
       5    H1      18.636294   17.758430   21.250622 H          1 MOL1         0.0687
       6    H2      18.461408   19.283639   22.112825 H          1 MOL1         0.0687
       7    C3      20.334500   18.235215   22.525426 C.3        1 MOL1        -0.1974
       8    H3      19.933824   17.585716   23.315667 H          1 MOL1         0.0689
       9    H4      21.070352   17.638052   21.968796 H          1 MOL1         0.0689
      10    C4      21.032161   19.447941   23.175419 C.3        1 MOL1        -0.2987
      11    H5      20.318105   20.046896   23.755737 H          1 MOL1         0.0700
      12    H6      21.829085   19.117694   23.854349 H          1 MOL1         0.0700
      13    H7      21.484066   20.097916   22.414406 H          1 MOL1         0.0700
@<TRIPOS>BOND
    1     1     2    1
    2     1     3    2
    3     1     4    1
    4     4     5    1
    5     4     6    1
    6     4     7    1
    7     7     8    1
    8     7     9    1
    9     7    10    1
   10    10    11    1
   11    10    12    1
   12    10    13    1
@<TRIPOS>SUBSTRUCTURE
       1 MOL1            1 RESIDUE      1      MOL     
@<SCITEGIC>MOL_PROPERTY
VConf Rank
SciTegic.value.IntegerValue
456

@<SCITEGIC>MOL_PROPERTY
Conf_Id
SciTegic.value.IntegerValue
36

@<SCITEGIC>MOL_PROPERTY
Delta U+W
SciTegic.value.DoubleValue
0.272

@<SCITEGIC>MOL_PROPERTY
U+W
SciTegic.value.DoubleValue
-58.060

@<SCITEGIC>MOL_PROPERTY
Grad RMS
SciTegic.value.DoubleValue
0.000000

@<SCITEGIC>MOL_PROPERTY
U
SciTegic.value.DoubleValue
9.781

@<SCITEGIC>MOL_PROPERTY
W
SciTegic.value.DoubleValue
-67.841

@<SCITEGIC>MOL_PROPERTY
W(PB)
SciTegic.value.DoubleValue
-69.537

@<SCITEGIC>MOL_PROPERTY
W(SA)
SciTegic.value.DoubleValue
1.696

@<SCITEGIC>MOL_PROPERTY
Valence
SciTegic.value.DoubleValue
6.123

@<SCITEGIC>MOL_PROPERTY
Coulomb
SciTegic.value.DoubleValue
3.449

@<SCITEGIC>MOL_PROPERTY
VdW
SciTegic.value.DoubleValue
0.209

@<SCITEGIC>MOL_PROPERTY
VdW6
SciTegic.value.DoubleValue
-3.762

@<SCITEGIC>MOL_PROPERTY
VdW12
SciTegic.value.DoubleValue
3.972

@<SCITEGIC>MOL_PROPERTY
Bond
SciTegic.value.DoubleValue
0.078

@<SCITEGIC>MOL_PROPERTY
Angle
SciTegic.value.DoubleValue
2.428

@<SCITEGIC>MOL_PROPERTY
Pdih
SciTegic.value.DoubleValue
3.616

@<SCITEGIC>MOL_PROPERTY
Idih
SciTegic.value.DoubleValue
0.002

@<SCITEGIC>MOL_PROPERTY
Tether
SciTegic.value.DoubleValue
0.000

@<TRIPOS>MOLECULE
guest-6_confgen4.mol2 : confsearch ligand conformer 457
          13          12           1
SMALL
USER_CHARGES
 
@<TRIPOS>ATOM
       1    C1      21.356876   20.526202   22.484491 C.2        1 MOL1         0.6021
       2    O1      20.940081   20.699703   23.612989 O.co2      1 MOL1        -0.6904
       3    O2      22.293586   21.146076   22.022835 O.co2      1 MOL1        -0.6904
       4    C2      20.692284   19.486955   21.579523 C.3        1 MOL1        -0.2102
       5    H1      21.468203   18.775538   21.272645 H          1 MOL1         0.0687
       6    H2      20.358225   20.006874   20.673748 H          1 MOL1         0.0687
       7    C3      19.501011   18.720388   22.211343 C.3        1 MOL1        -0.1974
       8    H3      19.837218   18.202466   23.120451 H          1 MOL1         0.0689
       9    H4      18.725899   19.435326   22.520890 H          1 MOL1         0.0689
      10    C4      18.896461   17.697470   21.228493 C.3        1 MOL1        -0.2987
      11    H5      19.644471   16.952168   20.927612 H          1 MOL1         0.0700
      12    H6      18.055799   17.165542   21.692817 H          1 MOL1         0.0700
      13    H7      18.524278   18.194936   20.323214 H          1 MOL1         0.0700
@<TRIPOS>BOND
    1     1     2    1
    2     1     3    2
    3     1     4    1
    4     4     5    1
    5     4     6    1
    6     4     7    1
    7     7     8    1
    8     7     9    1
    9     7    10    1
   10    10    11    1
   11    10    12    1
   12    10    13    1
@<TRIPOS>SUBSTRUCTURE
       1 MOL1            1 RESIDUE      1      MOL     
@<SCITEGIC>MOL_PROPERTY
VConf Rank
SciTegic.value.IntegerValue
457

@<SCITEGIC>MOL_PROPERTY
Conf_Id
SciTegic.value.IntegerValue
0

@<SCITEGIC>MOL_PROPERTY
Delta U+W
SciTegic.value.DoubleValue
0.000

@<SCITEGIC>MOL_PROPERTY
U+W
SciTegic.value.DoubleValue
-58.332

@<SCITEGIC>MOL_PROPERTY
Grad RMS
SciTegic.value.DoubleValue
0.000000

@<SCITEGIC>MOL_PROPERTY
U
SciTegic.value.DoubleValue
8.390

@<SCITEGIC>MOL_PROPERTY
W
SciTegic.value.DoubleValue
-66.722

@<SCITEGIC>MOL_PROPERTY
W(PB)
SciTegic.value.DoubleValue
-68.455

@<SCITEGIC>MOL_PROPERTY
W(SA)
SciTegic.value.DoubleValue
1.733

@<SCITEGIC>MOL_PROPERTY
Valence
SciTegic.value.DoubleValue
6.333

@<SCITEGIC>MOL_PROPERTY
Coulomb
SciTegic.value.DoubleValue
1.215

@<SCITEGIC>MOL_PROPERTY
VdW
SciTegic.value.DoubleValue
0.842

@<SCITEGIC>MOL_PROPERTY
VdW6
SciTegic.value.DoubleValue
-3.344

@<SCITEGIC>MOL_PROPERTY
VdW12
SciTegic.value.DoubleValue
4.186

@<SCITEGIC>MOL_PROPERTY
Bond
SciTegic.value.DoubleValue
0.091

@<SCITEGIC>MOL_PROPERTY
Angle
SciTegic.value.DoubleValue
2.713

@<SCITEGIC>MOL_PROPERTY
Pdih
SciTegic.value.DoubleValue
3.529

@<SCITEGIC>MOL_PROPERTY
Idih
SciTegic.value.DoubleValue
0.000

@<SCITEGIC>MOL_PROPERTY
Tether
SciTegic.value.DoubleValue
0.000

@<TRIPOS>MOLECULE
guest-6_confgen4.mol2 : confsearch ligand conformer 458
          13          12           1
SMALL
USER_CHARGES
 
@<TRIPOS>ATOM
       1    C1      18.629197   20.127518   23.026282 C.2        1 MOL1         0.6021
       2    O1      18.328934   21.232656   22.621468 O.co2      1 MOL1        -0.6904
       3    O2      18.563817   19.800033   24.194117 O.co2      1 MOL1        -0.6904
       4    C2      19.133290   19.101841   22.016641 C.3        1 MOL1        -0.2102
       5    H1      18.629359   19.287910   21.060372 H          1 MOL1         0.0687
       6    H2      18.823037   18.106483   22.357266 H          1 MOL1         0.0687
       7    C3      20.668845   19.145153   21.826788 C.3        1 MOL1        -0.1974
       8    H3      20.968957   20.149069   21.495265 H          1 MOL1         0.0689
       9    H4      21.162660   18.967295   22.792364 H          1 MOL1         0.0689
      10    C4      21.146166   18.097597   20.801078 C.3        1 MOL1        -0.2987
      11    H5      22.236364   18.143561   20.680175 H          1 MOL1         0.0700
      12    H6      20.883603   17.082076   21.125626 H          1 MOL1         0.0700
      13    H7      20.688444   18.272945   19.818581 H          1 MOL1         0.0700
@<TRIPOS>BOND
    1     1     2    1
    2     1     3    2
    3     1     4    1
    4     4     5    1
    5     4     6    1
    6     4     7    1
    7     7     8    1
    8     7     9    1
    9     7    10    1
   10    10    11    1
   11    10    12    1
   12    10    13    1
@<TRIPOS>SUBSTRUCTURE
       1 MOL1            1 RESIDUE      1      MOL     
@<SCITEGIC>MOL_PROPERTY
VConf Rank
SciTegic.value.IntegerValue
458

@<SCITEGIC>MOL_PROPERTY
Conf_Id
SciTegic.value.IntegerValue
1

@<SCITEGIC>MOL_PROPERTY
Delta U+W
SciTegic.value.DoubleValue
-1.339

@<SCITEGIC>MOL_PROPERTY
U+W
SciTegic.value.DoubleValue
-59.672

@<SCITEGIC>MOL_PROPERTY
Grad RMS
SciTegic.value.DoubleValue
0.000000

@<SCITEGIC>MOL_PROPERTY
U
SciTegic.value.DoubleValue
7.389

@<SCITEGIC>MOL_PROPERTY
W
SciTegic.value.DoubleValue
-67.061

@<SCITEGIC>MOL_PROPERTY
W(PB)
SciTegic.value.DoubleValue
-68.767

@<SCITEGIC>MOL_PROPERTY
W(SA)
SciTegic.value.DoubleValue
1.707

@<SCITEGIC>MOL_PROPERTY
Valence
SciTegic.value.DoubleValue
5.822

@<SCITEGIC>MOL_PROPERTY
Coulomb
SciTegic.value.DoubleValue
1.255

@<SCITEGIC>MOL_PROPERTY
VdW
SciTegic.value.DoubleValue
0.312

@<SCITEGIC>MOL_PROPERTY
VdW6
SciTegic.value.DoubleValue
-3.061

@<SCITEGIC>MOL_PROPERTY
VdW12
SciTegic.value.DoubleValue
3.372

@<SCITEGIC>MOL_PROPERTY
Bond
SciTegic.value.DoubleValue
0.059

@<SCITEGIC>MOL_PROPERTY
Angle
SciTegic.value.DoubleValue
2.241

@<SCITEGIC>MOL_PROPERTY
Pdih
SciTegic.value.DoubleValue
3.522

@<SCITEGIC>MOL_PROPERTY
Idih
SciTegic.value.DoubleValue
0.000

@<SCITEGIC>MOL_PROPERTY
Tether
SciTegic.value.DoubleValue
0.000

@<TRIPOS>MOLECULE
guest-6_confgen4.mol2 : confsearch ligand conformer 459
          13          12           1
SMALL
USER_CHARGES
 
@<TRIPOS>ATOM
       1    C1      18.757966   18.298502   22.942224 C.2        1 MOL1         0.6021
       2    O1      18.945488   18.173778   24.136116 O.co2      1 MOL1        -0.6904
       3    O2      17.707793   18.680570   22.465712 O.co2      1 MOL1        -0.6904
       4    C2      19.891250   17.920414   21.991727 C.3        1 MOL1        -0.2102
       5    H1      19.474869   17.780109   20.986625 H          1 MOL1         0.0687
       6    H2      20.276591   16.945611   22.313687 H          1 MOL1         0.0687
       7    C3      21.053184   18.945840   21.949894 C.3        1 MOL1        -0.1974
       8    H3      21.435545   19.110018   22.967129 H          1 MOL1         0.0689
       9    H4      21.882824   18.525990   21.364832 H          1 MOL1         0.0689
      10    C4      20.629658   20.292958   21.328744 C.3        1 MOL1        -0.2987
      11    H5      19.829609   20.763847   21.915270 H          1 MOL1         0.0700
      12    H6      21.478807   20.987927   21.296201 H          1 MOL1         0.0700
      13    H7      20.264599   20.154444   20.302616 H          1 MOL1         0.0700
@<TRIPOS>BOND
    1     1     2    1
    2     1     3    2
    3     1     4    1
    4     4     5    1
    5     4     6    1
    6     4     7    1
    7     7     8    1
    8     7     9    1
    9     7    10    1
   10    10    11    1
   11    10    12    1
   12    10    13    1
@<TRIPOS>SUBSTRUCTURE
       1 MOL1            1 RESIDUE      1      MOL     
@<SCITEGIC>MOL_PROPERTY
VConf Rank
SciTegic.value.IntegerValue
459

@<SCITEGIC>MOL_PROPERTY
Conf_Id
SciTegic.value.IntegerValue
4

@<SCITEGIC>MOL_PROPERTY
Delta U+W
SciTegic.value.DoubleValue
0.281

@<SCITEGIC>MOL_PROPERTY
U+W
SciTegic.value.DoubleValue
-58.051

@<SCITEGIC>MOL_PROPERTY
Grad RMS
SciTegic.value.DoubleValue
0.000000

@<SCITEGIC>MOL_PROPERTY
U
SciTegic.value.DoubleValue
9.781

@<SCITEGIC>MOL_PROPERTY
W
SciTegic.value.DoubleValue
-67.832

@<SCITEGIC>MOL_PROPERTY
W(PB)
SciTegic.value.DoubleValue
-69.535

@<SCITEGIC>MOL_PROPERTY
W(SA)
SciTegic.value.DoubleValue
1.703

@<SCITEGIC>MOL_PROPERTY
Valence
SciTegic.value.DoubleValue
6.123

@<SCITEGIC>MOL_PROPERTY
Coulomb
SciTegic.value.DoubleValue
3.449

@<SCITEGIC>MOL_PROPERTY
VdW
SciTegic.value.DoubleValue
0.209

@<SCITEGIC>MOL_PROPERTY
VdW6
SciTegic.value.DoubleValue
-3.762

@<SCITEGIC>MOL_PROPERTY
VdW12
SciTegic.value.DoubleValue
3.972

@<SCITEGIC>MOL_PROPERTY
Bond
SciTegic.value.DoubleValue
0.078

@<SCITEGIC>MOL_PROPERTY
Angle
SciTegic.value.DoubleValue
2.428

@<SCITEGIC>MOL_PROPERTY
Pdih
SciTegic.value.DoubleValue
3.616

@<SCITEGIC>MOL_PROPERTY
Idih
SciTegic.value.DoubleValue
0.002

@<SCITEGIC>MOL_PROPERTY
Tether
SciTegic.value.DoubleValue
0.000

@<TRIPOS>MOLECULE
guest-6_confgen4.mol2 : confsearch ligand conformer 460
          13          12           1
SMALL
USER_CHARGES
 
@<TRIPOS>ATOM
       1    C1      21.694594   19.700066   21.565443 C.2        1 MOL1         0.6021
       2    O1      21.557757   20.421971   20.597954 O.co2      1 MOL1        -0.6904
       3    O2      22.434394   19.957930   22.494044 O.co2      1 MOL1        -0.6904
       4    C2      20.924930   18.382116   21.602182 C.3        1 MOL1        -0.2102
       5    H1      21.637497   17.594814   21.875663 H          1 MOL1         0.0687
       6    H2      20.572692   18.152487   20.589026 H          1 MOL1         0.0687
       7    C3      19.735683   18.369224   22.596598 C.3        1 MOL1        -0.1974
       8    H3      19.338016   17.347700   22.668851 H          1 MOL1         0.0689
       9    H4      20.092424   18.640867   23.600026 H          1 MOL1         0.0689
      10    C4      18.600202   19.323066   22.171397 C.3        1 MOL1        -0.2987
      11    H5      18.213541   19.055240   21.179352 H          1 MOL1         0.0700
      12    H6      17.767243   19.275179   22.884827 H          1 MOL1         0.0700
      13    H7      18.952038   20.362516   22.131656 H          1 MOL1         0.0700
@<TRIPOS>BOND
    1     1     2    1
    2     1     3    2
    3     1     4    1
    4     4     5    1
    5     4     6    1
    6     4     7    1
    7     7     8    1
    8     7     9    1
    9     7    10    1
   10    10    11    1
   11    10    12    1
   12    10    13    1
@<TRIPOS>SUBSTRUCTURE
       1 MOL1            1 RESIDUE      1      MOL     
@<SCITEGIC>MOL_PROPERTY
VConf Rank
SciTegic.value.IntegerValue
460

@<SCITEGIC>MOL_PROPERTY
Conf_Id
SciTegic.value.IntegerValue
36

@<SCITEGIC>MOL_PROPERTY
Delta U+W
SciTegic.value.DoubleValue
0.272

@<SCITEGIC>MOL_PROPERTY
U+W
SciTegic.value.DoubleValue
-58.060

@<SCITEGIC>MOL_PROPERTY
Grad RMS
SciTegic.value.DoubleValue
0.000000

@<SCITEGIC>MOL_PROPERTY
U
SciTegic.value.DoubleValue
9.781

@<SCITEGIC>MOL_PROPERTY
W
SciTegic.value.DoubleValue
-67.841

@<SCITEGIC>MOL_PROPERTY
W(PB)
SciTegic.value.DoubleValue
-69.537

@<SCITEGIC>MOL_PROPERTY
W(SA)
SciTegic.value.DoubleValue
1.696

@<SCITEGIC>MOL_PROPERTY
Valence
SciTegic.value.DoubleValue
6.123

@<SCITEGIC>MOL_PROPERTY
Coulomb
SciTegic.value.DoubleValue
3.449

@<SCITEGIC>MOL_PROPERTY
VdW
SciTegic.value.DoubleValue
0.209

@<SCITEGIC>MOL_PROPERTY
VdW6
SciTegic.value.DoubleValue
-3.762

@<SCITEGIC>MOL_PROPERTY
VdW12
SciTegic.value.DoubleValue
3.972

@<SCITEGIC>MOL_PROPERTY
Bond
SciTegic.value.DoubleValue
0.078

@<SCITEGIC>MOL_PROPERTY
Angle
SciTegic.value.DoubleValue
2.428

@<SCITEGIC>MOL_PROPERTY
Pdih
SciTegic.value.DoubleValue
3.616

@<SCITEGIC>MOL_PROPERTY
Idih
SciTegic.value.DoubleValue
0.002

@<SCITEGIC>MOL_PROPERTY
Tether
SciTegic.value.DoubleValue
0.000

@<TRIPOS>MOLECULE
guest-6_confgen4.mol2 : confsearch ligand conformer 461
          13          12           1
SMALL
USER_CHARGES
 
@<TRIPOS>ATOM
       1    C1      18.123612   18.045030   21.987888 C.2        1 MOL1         0.6021
       2    O1      18.175442   17.664934   23.141218 O.co2      1 MOL1        -0.6904
       3    O2      17.166218   17.845043   21.268028 O.co2      1 MOL1        -0.6904
       4    C2      19.302301   18.812792   21.386296 C.3        1 MOL1        -0.2102
       5    H1      18.919184   19.777859   21.033867 H          1 MOL1         0.0687
       6    H2      19.636947   18.258620   20.501286 H          1 MOL1         0.0687
       7    C3      20.501756   19.044406   22.342131 C.3        1 MOL1        -0.1974
       8    H3      20.163679   19.597336   23.229670 H          1 MOL1         0.0689
       9    H4      20.882284   18.076224   22.696499 H          1 MOL1         0.0689
      10    C4      21.638616   19.823795   21.650802 C.3        1 MOL1        -0.2987
      11    H5      21.291233   20.809548   21.314441 H          1 MOL1         0.0700
      12    H6      22.477555   19.977823   22.341971 H          1 MOL1         0.0700
      13    H7      22.015565   19.276234   20.776954 H          1 MOL1         0.0700
@<TRIPOS>BOND
    1     1     2    1
    2     1     3    2
    3     1     4    1
    4     4     5    1
    5     4     6    1
    6     4     7    1
    7     7     8    1
    8     7     9    1
    9     7    10    1
   10    10    11    1
   11    10    12    1
   12    10    13    1
@<TRIPOS>SUBSTRUCTURE
       1 MOL1            1 RESIDUE      1      MOL     
@<SCITEGIC>MOL_PROPERTY
VConf Rank
SciTegic.value.IntegerValue
461

@<SCITEGIC>MOL_PROPERTY
Conf_Id
SciTegic.value.IntegerValue
0

@<SCITEGIC>MOL_PROPERTY
Delta U+W
SciTegic.value.DoubleValue
0.000

@<SCITEGIC>MOL_PROPERTY
U+W
SciTegic.value.DoubleValue
-58.332

@<SCITEGIC>MOL_PROPERTY
Grad RMS
SciTegic.value.DoubleValue
0.000000

@<SCITEGIC>MOL_PROPERTY
U
SciTegic.value.DoubleValue
8.390

@<SCITEGIC>MOL_PROPERTY
W
SciTegic.value.DoubleValue
-66.722

@<SCITEGIC>MOL_PROPERTY
W(PB)
SciTegic.value.DoubleValue
-68.455

@<SCITEGIC>MOL_PROPERTY
W(SA)
SciTegic.value.DoubleValue
1.733

@<SCITEGIC>MOL_PROPERTY
Valence
SciTegic.value.DoubleValue
6.333

@<SCITEGIC>MOL_PROPERTY
Coulomb
SciTegic.value.DoubleValue
1.215

@<SCITEGIC>MOL_PROPERTY
VdW
SciTegic.value.DoubleValue
0.842

@<SCITEGIC>MOL_PROPERTY
VdW6
SciTegic.value.DoubleValue
-3.344

@<SCITEGIC>MOL_PROPERTY
VdW12
SciTegic.value.DoubleValue
4.186

@<SCITEGIC>MOL_PROPERTY
Bond
SciTegic.value.DoubleValue
0.091

@<SCITEGIC>MOL_PROPERTY
Angle
SciTegic.value.DoubleValue
2.713

@<SCITEGIC>MOL_PROPERTY
Pdih
SciTegic.value.DoubleValue
3.529

@<SCITEGIC>MOL_PROPERTY
Idih
SciTegic.value.DoubleValue
0.000

@<SCITEGIC>MOL_PROPERTY
Tether
SciTegic.value.DoubleValue
0.000

@<TRIPOS>MOLECULE
guest-6_confgen4.mol2 : confsearch ligand conformer 462
          13          12           1
SMALL
USER_CHARGES
 
@<TRIPOS>ATOM
       1    C1      19.860257   17.428311   20.472789 C.2        1 MOL1         0.6021
       2    O1      19.280011   16.438611   20.871751 O.co2      1 MOL1        -0.6904
       3    O2      20.693487   17.407158   19.589251 O.co2      1 MOL1        -0.6904
       4    C2      19.539011   18.766635   21.129440 C.3        1 MOL1        -0.2102
       5    H1      18.484500   18.754604   21.430906 H          1 MOL1         0.0687
       6    H2      19.650118   19.553323   20.373269 H          1 MOL1         0.0687
       7    C3      20.438870   19.071496   22.351390 C.3        1 MOL1        -0.1974
       8    H3      20.326912   18.272320   23.097449 H          1 MOL1         0.0689
       9    H4      21.492722   19.071316   22.039589 H          1 MOL1         0.0689
      10    C4      20.089310   20.429693   22.992013 C.3        1 MOL1        -0.2987
      11    H5      20.737226   20.628013   23.855804 H          1 MOL1         0.0700
      12    H6      20.222491   21.248903   22.273184 H          1 MOL1         0.0700
      13    H7      19.047759   20.443754   23.339188 H          1 MOL1         0.0700
@<TRIPOS>BOND
    1     1     2    1
    2     1     3    2
    3     1     4    1
    4     4     5    1
    5     4     6    1
    6     4     7    1
    7     7     8    1
    8     7     9    1
    9     7    10    1
   10    10    11    1
   11    10    12    1
   12    10    13    1
@<TRIPOS>SUBSTRUCTURE
       1 MOL1            1 RESIDUE      1      MOL     
@<SCITEGIC>MOL_PROPERTY
VConf Rank
SciTegic.value.IntegerValue
462

@<SCITEGIC>MOL_PROPERTY
Conf_Id
SciTegic.value.IntegerValue
1

@<SCITEGIC>MOL_PROPERTY
Delta U+W
SciTegic.value.DoubleValue
-1.339

@<SCITEGIC>MOL_PROPERTY
U+W
SciTegic.value.DoubleValue
-59.672

@<SCITEGIC>MOL_PROPERTY
Grad RMS
SciTegic.value.DoubleValue
0.000000

@<SCITEGIC>MOL_PROPERTY
U
SciTegic.value.DoubleValue
7.389

@<SCITEGIC>MOL_PROPERTY
W
SciTegic.value.DoubleValue
-67.061

@<SCITEGIC>MOL_PROPERTY
W(PB)
SciTegic.value.DoubleValue
-68.767

@<SCITEGIC>MOL_PROPERTY
W(SA)
SciTegic.value.DoubleValue
1.707

@<SCITEGIC>MOL_PROPERTY
Valence
SciTegic.value.DoubleValue
5.822

@<SCITEGIC>MOL_PROPERTY
Coulomb
SciTegic.value.DoubleValue
1.255

@<SCITEGIC>MOL_PROPERTY
VdW
SciTegic.value.DoubleValue
0.312

@<SCITEGIC>MOL_PROPERTY
VdW6
SciTegic.value.DoubleValue
-3.061

@<SCITEGIC>MOL_PROPERTY
VdW12
SciTegic.value.DoubleValue
3.372

@<SCITEGIC>MOL_PROPERTY
Bond
SciTegic.value.DoubleValue
0.059

@<SCITEGIC>MOL_PROPERTY
Angle
SciTegic.value.DoubleValue
2.241

@<SCITEGIC>MOL_PROPERTY
Pdih
SciTegic.value.DoubleValue
3.522

@<SCITEGIC>MOL_PROPERTY
Idih
SciTegic.value.DoubleValue
0.000

@<SCITEGIC>MOL_PROPERTY
Tether
SciTegic.value.DoubleValue
0.000

@<TRIPOS>MOLECULE
guest-6_confgen4.mol2 : confsearch ligand conformer 463
          13          12           1
SMALL
USER_CHARGES
 
@<TRIPOS>ATOM
       1    C1      20.116274   17.797354   20.640158 C.2        1 MOL1         0.6021
       2    O1      19.247172   17.954713   19.805892 O.co2      1 MOL1        -0.6904
       3    O2      21.257169   17.481551   20.367151 O.co2      1 MOL1        -0.6904
       4    C2      19.743416   17.971235   22.110351 C.3        1 MOL1        -0.2102
       5    H1      20.515349   17.495100   22.727363 H          1 MOL1         0.0687
       6    H2      18.814258   17.414261   22.280154 H          1 MOL1         0.0687
       7    C3      19.547080   19.446287   22.545106 C.3        1 MOL1        -0.1974
       8    H3      18.802148   19.925406   21.894380 H          1 MOL1         0.0689
       9    H4      19.137499   19.469650   23.564209 H          1 MOL1         0.0689
      10    C4      20.862509   20.251574   22.512145 C.3        1 MOL1        -0.2987
      11    H5      21.278361   20.286794   21.496441 H          1 MOL1         0.0700
      12    H6      20.692376   21.284139   22.843748 H          1 MOL1         0.0700
      13    H7      21.614572   19.801943   23.173678 H          1 MOL1         0.0700
@<TRIPOS>BOND
    1     1     2    1
    2     1     3    2
    3     1     4    1
    4     4     5    1
    5     4     6    1
    6     4     7    1
    7     7     8    1
    8     7     9    1
    9     7    10    1
   10    10    11    1
   11    10    12    1
   12    10    13    1
@<TRIPOS>SUBSTRUCTURE
       1 MOL1            1 RESIDUE      1      MOL     
@<SCITEGIC>MOL_PROPERTY
VConf Rank
SciTegic.value.IntegerValue
463

@<SCITEGIC>MOL_PROPERTY
Conf_Id
SciTegic.value.IntegerValue
4

@<SCITEGIC>MOL_PROPERTY
Delta U+W
SciTegic.value.DoubleValue
0.281

@<SCITEGIC>MOL_PROPERTY
U+W
SciTegic.value.DoubleValue
-58.051

@<SCITEGIC>MOL_PROPERTY
Grad RMS
SciTegic.value.DoubleValue
0.000000

@<SCITEGIC>MOL_PROPERTY
U
SciTegic.value.DoubleValue
9.781

@<SCITEGIC>MOL_PROPERTY
W
SciTegic.value.DoubleValue
-67.832

@<SCITEGIC>MOL_PROPERTY
W(PB)
SciTegic.value.DoubleValue
-69.535

@<SCITEGIC>MOL_PROPERTY
W(SA)
SciTegic.value.DoubleValue
1.703

@<SCITEGIC>MOL_PROPERTY
Valence
SciTegic.value.DoubleValue
6.123

@<SCITEGIC>MOL_PROPERTY
Coulomb
SciTegic.value.DoubleValue
3.449

@<SCITEGIC>MOL_PROPERTY
VdW
SciTegic.value.DoubleValue
0.209

@<SCITEGIC>MOL_PROPERTY
VdW6
SciTegic.value.DoubleValue
-3.762

@<SCITEGIC>MOL_PROPERTY
VdW12
SciTegic.value.DoubleValue
3.972

@<SCITEGIC>MOL_PROPERTY
Bond
SciTegic.value.DoubleValue
0.078

@<SCITEGIC>MOL_PROPERTY
Angle
SciTegic.value.DoubleValue
2.428

@<SCITEGIC>MOL_PROPERTY
Pdih
SciTegic.value.DoubleValue
3.616

@<SCITEGIC>MOL_PROPERTY
Idih
SciTegic.value.DoubleValue
0.002

@<SCITEGIC>MOL_PROPERTY
Tether
SciTegic.value.DoubleValue
0.000

@<TRIPOS>MOLECULE
guest-6_confgen4.mol2 : confsearch ligand conformer 464
          13          12           1
SMALL
USER_CHARGES
 
@<TRIPOS>ATOM
       1    C1      19.393864   17.511193   22.748865 C.2        1 MOL1         0.6021
       2    O1      20.086024   17.146443   23.678261 O.co2      1 MOL1        -0.6904
       3    O2      18.179911   17.463048   22.758764 O.co2      1 MOL1        -0.6904
       4    C2      20.084138   18.023954   21.487388 C.3        1 MOL1        -0.2102
       5    H1      19.621052   17.517271   20.632280 H          1 MOL1         0.0687
       6    H2      21.135182   17.710765   21.509898 H          1 MOL1         0.0687
       7    C3      19.988481   19.558740   21.290877 C.3        1 MOL1        -0.1974
       8    H3      20.374113   19.818879   20.295644 H          1 MOL1         0.0689
       9    H4      18.933754   19.867051   21.311294 H          1 MOL1         0.0689
      10    C4      20.780776   20.341163   22.358589 C.3        1 MOL1        -0.2987
      11    H5      21.842997   20.064131   22.340387 H          1 MOL1         0.0700
      12    H6      20.708516   21.421774   22.179271 H          1 MOL1         0.0700
      13    H7      20.392202   20.138764   23.365501 H          1 MOL1         0.0700
@<TRIPOS>BOND
    1     1     2    1
    2     1     3    2
    3     1     4    1
    4     4     5    1
    5     4     6    1
    6     4     7    1
    7     7     8    1
    8     7     9    1
    9     7    10    1
   10    10    11    1
   11    10    12    1
   12    10    13    1
@<TRIPOS>SUBSTRUCTURE
       1 MOL1            1 RESIDUE      1      MOL     
@<SCITEGIC>MOL_PROPERTY
VConf Rank
SciTegic.value.IntegerValue
464

@<SCITEGIC>MOL_PROPERTY
Conf_Id
SciTegic.value.IntegerValue
36

@<SCITEGIC>MOL_PROPERTY
Delta U+W
SciTegic.value.DoubleValue
0.272

@<SCITEGIC>MOL_PROPERTY
U+W
SciTegic.value.DoubleValue
-58.060

@<SCITEGIC>MOL_PROPERTY
Grad RMS
SciTegic.value.DoubleValue
0.000000

@<SCITEGIC>MOL_PROPERTY
U
SciTegic.value.DoubleValue
9.781

@<SCITEGIC>MOL_PROPERTY
W
SciTegic.value.DoubleValue
-67.841

@<SCITEGIC>MOL_PROPERTY
W(PB)
SciTegic.value.DoubleValue
-69.537

@<SCITEGIC>MOL_PROPERTY
W(SA)
SciTegic.value.DoubleValue
1.696

@<SCITEGIC>MOL_PROPERTY
Valence
SciTegic.value.DoubleValue
6.123

@<SCITEGIC>MOL_PROPERTY
Coulomb
SciTegic.value.DoubleValue
3.449

@<SCITEGIC>MOL_PROPERTY
VdW
SciTegic.value.DoubleValue
0.209

@<SCITEGIC>MOL_PROPERTY
VdW6
SciTegic.value.DoubleValue
-3.762

@<SCITEGIC>MOL_PROPERTY
VdW12
SciTegic.value.DoubleValue
3.972

@<SCITEGIC>MOL_PROPERTY
Bond
SciTegic.value.DoubleValue
0.078

@<SCITEGIC>MOL_PROPERTY
Angle
SciTegic.value.DoubleValue
2.428

@<SCITEGIC>MOL_PROPERTY
Pdih
SciTegic.value.DoubleValue
3.616

@<SCITEGIC>MOL_PROPERTY
Idih
SciTegic.value.DoubleValue
0.002

@<SCITEGIC>MOL_PROPERTY
Tether
SciTegic.value.DoubleValue
0.000

@<TRIPOS>MOLECULE
guest-6_confgen4.mol2 : confsearch ligand conformer 465
          13          12           1
SMALL
USER_CHARGES
 
@<TRIPOS>ATOM
       1    C1      18.127852   18.274618   21.165016 C.2        1 MOL1         0.6021
       2    O1      17.394917   19.104985   21.665640 O.co2      1 MOL1        -0.6904
       3    O2      17.717351   17.345569   20.499318 O.co2      1 MOL1        -0.6904
       4    C2      19.641272   18.376712   21.364560 C.3        1 MOL1        -0.2102
       5    H1      20.100346   18.426359   20.370013 H          1 MOL1         0.0687
       6    H2      19.975115   17.439178   21.824903 H          1 MOL1         0.0687
       7    C3      20.118988   19.578433   22.221072 C.3        1 MOL1        -0.1974
       8    H3      19.780929   20.516793   21.759605 H          1 MOL1         0.0689
       9    H4      19.655483   19.528442   23.216270 H          1 MOL1         0.0689
      10    C4      21.653924   19.599099   22.367289 C.3        1 MOL1        -0.2987
      11    H5      22.140987   19.680165   21.386616 H          1 MOL1         0.0700
      12    H6      21.972702   20.455446   22.975818 H          1 MOL1         0.0700
      13    H7      22.014527   18.683844   22.854932 H          1 MOL1         0.0700
@<TRIPOS>BOND
    1     1     2    1
    2     1     3    2
    3     1     4    1
    4     4     5    1
    5     4     6    1
    6     4     7    1
    7     7     8    1
    8     7     9    1
    9     7    10    1
   10    10    11    1
   11    10    12    1
   12    10    13    1
@<TRIPOS>SUBSTRUCTURE
       1 MOL1            1 RESIDUE      1      MOL     
@<SCITEGIC>MOL_PROPERTY
VConf Rank
SciTegic.value.IntegerValue
465

@<SCITEGIC>MOL_PROPERTY
Conf_Id
SciTegic.value.IntegerValue
0

@<SCITEGIC>MOL_PROPERTY
Delta U+W
SciTegic.value.DoubleValue
0.000

@<SCITEGIC>MOL_PROPERTY
U+W
SciTegic.value.DoubleValue
-58.332

@<SCITEGIC>MOL_PROPERTY
Grad RMS
SciTegic.value.DoubleValue
0.000000

@<SCITEGIC>MOL_PROPERTY
U
SciTegic.value.DoubleValue
8.390

@<SCITEGIC>MOL_PROPERTY
W
SciTegic.value.DoubleValue
-66.722

@<SCITEGIC>MOL_PROPERTY
W(PB)
SciTegic.value.DoubleValue
-68.455

@<SCITEGIC>MOL_PROPERTY
W(SA)
SciTegic.value.DoubleValue
1.733

@<SCITEGIC>MOL_PROPERTY
Valence
SciTegic.value.DoubleValue
6.333

@<SCITEGIC>MOL_PROPERTY
Coulomb
SciTegic.value.DoubleValue
1.215

@<SCITEGIC>MOL_PROPERTY
VdW
SciTegic.value.DoubleValue
0.842

@<SCITEGIC>MOL_PROPERTY
VdW6
SciTegic.value.DoubleValue
-3.344

@<SCITEGIC>MOL_PROPERTY
VdW12
SciTegic.value.DoubleValue
4.186

@<SCITEGIC>MOL_PROPERTY
Bond
SciTegic.value.DoubleValue
0.091

@<SCITEGIC>MOL_PROPERTY
Angle
SciTegic.value.DoubleValue
2.713

@<SCITEGIC>MOL_PROPERTY
Pdih
SciTegic.value.DoubleValue
3.529

@<SCITEGIC>MOL_PROPERTY
Idih
SciTegic.value.DoubleValue
0.000

@<SCITEGIC>MOL_PROPERTY
Tether
SciTegic.value.DoubleValue
0.000

@<TRIPOS>MOLECULE
guest-6_confgen4.mol2 : confsearch ligand conformer 466
          13          12           1
SMALL
USER_CHARGES
 
@<TRIPOS>ATOM
       1    C1      20.826016   18.304039   23.626269 C.2        1 MOL1         0.6021
       2    O1      22.020403   18.474022   23.767357 O.co2      1 MOL1        -0.6904
       3    O2      20.203208   17.422702   24.183687 O.co2      1 MOL1        -0.6904
       4    C2      20.071185   19.235594   22.683965 C.3        1 MOL1        -0.2102
       5    H1      20.549040   20.222042   22.723887 H          1 MOL1         0.0687
       6    H2      19.050476   19.355075   23.067234 H          1 MOL1         0.0687
       7    C3      20.035325   18.719780   21.225028 C.3        1 MOL1        -0.1974
       8    H3      21.062647   18.594521   20.855244 H          1 MOL1         0.0689
       9    H4      19.563693   17.727464   21.198642 H          1 MOL1         0.0689
      10    C4      19.266063   19.682807   20.298688 C.3        1 MOL1        -0.2987
      11    H5      19.251466   19.300464   19.269678 H          1 MOL1         0.0700
      12    H6      18.226338   19.800972   20.631201 H          1 MOL1         0.0700
      13    H7      19.736817   20.674656   20.285145 H          1 MOL1         0.0700
@<TRIPOS>BOND
    1     1     2    1
    2     1     3    2
    3     1     4    1
    4     4     5    1
    5     4     6    1
    6     4     7    1
    7     7     8    1
    8     7     9    1
    9     7    10    1
   10    10    11    1
   11    10    12    1
   12    10    13    1
@<TRIPOS>SUBSTRUCTURE
       1 MOL1            1 RESIDUE      1      MOL     
@<SCITEGIC>MOL_PROPERTY
VConf Rank
SciTegic.value.IntegerValue
466

@<SCITEGIC>MOL_PROPERTY
Conf_Id
SciTegic.value.IntegerValue
1

@<SCITEGIC>MOL_PROPERTY
Delta U+W
SciTegic.value.DoubleValue
-1.339

@<SCITEGIC>MOL_PROPERTY
U+W
SciTegic.value.DoubleValue
-59.672

@<SCITEGIC>MOL_PROPERTY
Grad RMS
SciTegic.value.DoubleValue
0.000000

@<SCITEGIC>MOL_PROPERTY
U
SciTegic.value.DoubleValue
7.389

@<SCITEGIC>MOL_PROPERTY
W
SciTegic.value.DoubleValue
-67.061

@<SCITEGIC>MOL_PROPERTY
W(PB)
SciTegic.value.DoubleValue
-68.767

@<SCITEGIC>MOL_PROPERTY
W(SA)
SciTegic.value.DoubleValue
1.707

@<SCITEGIC>MOL_PROPERTY
Valence
SciTegic.value.DoubleValue
5.822

@<SCITEGIC>MOL_PROPERTY
Coulomb
SciTegic.value.DoubleValue
1.255

@<SCITEGIC>MOL_PROPERTY
VdW
SciTegic.value.DoubleValue
0.312

@<SCITEGIC>MOL_PROPERTY
VdW6
SciTegic.value.DoubleValue
-3.061

@<SCITEGIC>MOL_PROPERTY
VdW12
SciTegic.value.DoubleValue
3.372

@<SCITEGIC>MOL_PROPERTY
Bond
SciTegic.value.DoubleValue
0.059

@<SCITEGIC>MOL_PROPERTY
Angle
SciTegic.value.DoubleValue
2.241

@<SCITEGIC>MOL_PROPERTY
Pdih
SciTegic.value.DoubleValue
3.522

@<SCITEGIC>MOL_PROPERTY
Idih
SciTegic.value.DoubleValue
0.000

@<SCITEGIC>MOL_PROPERTY
Tether
SciTegic.value.DoubleValue
0.000

@<TRIPOS>MOLECULE
guest-6_confgen4.mol2 : confsearch ligand conformer 467
          13          12           1
SMALL
USER_CHARGES
 
@<TRIPOS>ATOM
       1    C1      21.088518   18.633640   23.470503 C.2        1 MOL1         0.6021
       2    O1      20.727480   17.686475   24.140300 O.co2      1 MOL1        -0.6904
       3    O2      22.255302   18.901549   23.263752 O.co2      1 MOL1        -0.6904
       4    C2      20.018450   19.554362   22.889165 C.3        1 MOL1        -0.2102
       5    H1      20.489101   20.502617   22.601784 H          1 MOL1         0.0687
       6    H2      19.311146   19.783454   23.695158 H          1 MOL1         0.0687
       7    C3      19.250108   18.953016   21.684436 C.3        1 MOL1        -0.1974
       8    H3      18.817497   17.984110   21.970776 H          1 MOL1         0.0689
       9    H4      18.408475   19.611426   21.429436 H          1 MOL1         0.0689
      10    C4      20.146355   18.776455   20.441256 C.3        1 MOL1        -0.2987
      11    H5      20.975915   18.087148   20.647447 H          1 MOL1         0.0700
      12    H6      19.568051   18.368032   19.602298 H          1 MOL1         0.0700
      13    H7      20.571786   19.737726   20.124464 H          1 MOL1         0.0700
@<TRIPOS>BOND
    1     1     2    1
    2     1     3    2
    3     1     4    1
    4     4     5    1
    5     4     6    1
    6     4     7    1
    7     7     8    1
    8     7     9    1
    9     7    10    1
   10    10    11    1
   11    10    12    1
   12    10    13    1
@<TRIPOS>SUBSTRUCTURE
       1 MOL1            1 RESIDUE      1      MOL     
@<SCITEGIC>MOL_PROPERTY
VConf Rank
SciTegic.value.IntegerValue
467

@<SCITEGIC>MOL_PROPERTY
Conf_Id
SciTegic.value.IntegerValue
4

@<SCITEGIC>MOL_PROPERTY
Delta U+W
SciTegic.value.DoubleValue
0.281

@<SCITEGIC>MOL_PROPERTY
U+W
SciTegic.value.DoubleValue
-58.051

@<SCITEGIC>MOL_PROPERTY
Grad RMS
SciTegic.value.DoubleValue
0.000000

@<SCITEGIC>MOL_PROPERTY
U
SciTegic.value.DoubleValue
9.781

@<SCITEGIC>MOL_PROPERTY
W
SciTegic.value.DoubleValue
-67.832

@<SCITEGIC>MOL_PROPERTY
W(PB)
SciTegic.value.DoubleValue
-69.535

@<SCITEGIC>MOL_PROPERTY
W(SA)
SciTegic.value.DoubleValue
1.703

@<SCITEGIC>MOL_PROPERTY
Valence
SciTegic.value.DoubleValue
6.123

@<SCITEGIC>MOL_PROPERTY
Coulomb
SciTegic.value.DoubleValue
3.449

@<SCITEGIC>MOL_PROPERTY
VdW
SciTegic.value.DoubleValue
0.209

@<SCITEGIC>MOL_PROPERTY
VdW6
SciTegic.value.DoubleValue
-3.762

@<SCITEGIC>MOL_PROPERTY
VdW12
SciTegic.value.DoubleValue
3.972

@<SCITEGIC>MOL_PROPERTY
Bond
SciTegic.value.DoubleValue
0.078

@<SCITEGIC>MOL_PROPERTY
Angle
SciTegic.value.DoubleValue
2.428

@<SCITEGIC>MOL_PROPERTY
Pdih
SciTegic.value.DoubleValue
3.616

@<SCITEGIC>MOL_PROPERTY
Idih
SciTegic.value.DoubleValue
0.002

@<SCITEGIC>MOL_PROPERTY
Tether
SciTegic.value.DoubleValue
0.000

@<TRIPOS>MOLECULE
guest-6_confgen4.mol2 : confsearch ligand conformer 468
          13          12           1
SMALL
USER_CHARGES
 
@<TRIPOS>ATOM
       1    C1      21.891392   19.213604   21.952288 C.2        1 MOL1         0.6021
       2    O1      22.428543   18.222915   21.498517 O.co2      1 MOL1        -0.6904
       3    O2      22.267349   20.345219   21.719473 O.co2      1 MOL1        -0.6904
       4    C2      20.703544   19.028492   22.893285 C.3        1 MOL1        -0.2102
       5    H1      20.880121   19.661307   23.771209 H          1 MOL1         0.0687
       6    H2      20.694456   17.990444   23.247771 H          1 MOL1         0.0687
       7    C3      19.333417   19.389910   22.264424 C.3        1 MOL1        -0.1974
       8    H3      18.562659   19.373534   23.047070 H          1 MOL1         0.0689
       9    H4      19.366817   20.417357   21.875635 H          1 MOL1         0.0689
      10    C4      18.926974   18.419006   21.136560 C.3        1 MOL1        -0.2987
      11    H5      18.865856   17.388105   21.509251 H          1 MOL1         0.0700
      12    H6      17.945362   18.690871   20.727142 H          1 MOL1         0.0700
      13    H7      19.654518   18.442411   20.314393 H          1 MOL1         0.0700
@<TRIPOS>BOND
    1     1     2    1
    2     1     3    2
    3     1     4    1
    4     4     5    1
    5     4     6    1
    6     4     7    1
    7     7     8    1
    8     7     9    1
    9     7    10    1
   10    10    11    1
   11    10    12    1
   12    10    13    1
@<TRIPOS>SUBSTRUCTURE
       1 MOL1            1 RESIDUE      1      MOL     
@<SCITEGIC>MOL_PROPERTY
VConf Rank
SciTegic.value.IntegerValue
468

@<SCITEGIC>MOL_PROPERTY
Conf_Id
SciTegic.value.IntegerValue
36

@<SCITEGIC>MOL_PROPERTY
Delta U+W
SciTegic.value.DoubleValue
0.272

@<SCITEGIC>MOL_PROPERTY
U+W
SciTegic.value.DoubleValue
-58.060

@<SCITEGIC>MOL_PROPERTY
Grad RMS
SciTegic.value.DoubleValue
0.000000

@<SCITEGIC>MOL_PROPERTY
U
SciTegic.value.DoubleValue
9.781

@<SCITEGIC>MOL_PROPERTY
W
SciTegic.value.DoubleValue
-67.841

@<SCITEGIC>MOL_PROPERTY
W(PB)
SciTegic.value.DoubleValue
-69.537

@<SCITEGIC>MOL_PROPERTY
W(SA)
SciTegic.value.DoubleValue
1.696

@<SCITEGIC>MOL_PROPERTY
Valence
SciTegic.value.DoubleValue
6.123

@<SCITEGIC>MOL_PROPERTY
Coulomb
SciTegic.value.DoubleValue
3.449

@<SCITEGIC>MOL_PROPERTY
VdW
SciTegic.value.DoubleValue
0.209

@<SCITEGIC>MOL_PROPERTY
VdW6
SciTegic.value.DoubleValue
-3.762

@<SCITEGIC>MOL_PROPERTY
VdW12
SciTegic.value.DoubleValue
3.972

@<SCITEGIC>MOL_PROPERTY
Bond
SciTegic.value.DoubleValue
0.078

@<SCITEGIC>MOL_PROPERTY
Angle
SciTegic.value.DoubleValue
2.428

@<SCITEGIC>MOL_PROPERTY
Pdih
SciTegic.value.DoubleValue
3.616

@<SCITEGIC>MOL_PROPERTY
Idih
SciTegic.value.DoubleValue
0.002

@<SCITEGIC>MOL_PROPERTY
Tether
SciTegic.value.DoubleValue
0.000

@<TRIPOS>MOLECULE
guest-6_confgen4.mol2 : confsearch ligand conformer 469
          13          12           1
SMALL
USER_CHARGES
 
@<TRIPOS>ATOM
       1    C1      20.039078   18.485630   19.751549 C.2        1 MOL1         0.6021
       2    O1      20.987785   19.144913   19.373885 O.co2      1 MOL1        -0.6904
       3    O2      19.388163   17.778035   19.009650 O.co2      1 MOL1        -0.6904
       4    C2      19.620691   18.527954   21.222550 C.3        1 MOL1        -0.2102
       5    H1      19.650257   17.499393   21.601398 H          1 MOL1         0.0687
       6    H2      18.573588   18.851643   21.256264 H          1 MOL1         0.0687
       7    C3      20.480418   19.444530   22.131788 C.3        1 MOL1        -0.1974
       8    H3      21.529803   19.120274   22.094308 H          1 MOL1         0.0689
       9    H4      20.451872   20.474184   21.748704 H          1 MOL1         0.0689
      10    C4      19.985788   19.423517   23.592177 C.3        1 MOL1        -0.2987
      11    H5      20.033958   18.408802   24.008777 H          1 MOL1         0.0700
      12    H6      20.605645   20.077233   24.219623 H          1 MOL1         0.0700
      13    H7      18.947347   19.773536   23.660378 H          1 MOL1         0.0700
@<TRIPOS>BOND
    1     1     2    1
    2     1     3    2
    3     1     4    1
    4     4     5    1
    5     4     6    1
    6     4     7    1
    7     7     8    1
    8     7     9    1
    9     7    10    1
   10    10    11    1
   11    10    12    1
   12    10    13    1
@<TRIPOS>SUBSTRUCTURE
       1 MOL1            1 RESIDUE      1      MOL     
@<SCITEGIC>MOL_PROPERTY
VConf Rank
SciTegic.value.IntegerValue
469

@<SCITEGIC>MOL_PROPERTY
Conf_Id
SciTegic.value.IntegerValue
0

@<SCITEGIC>MOL_PROPERTY
Delta U+W
SciTegic.value.DoubleValue
0.000

@<SCITEGIC>MOL_PROPERTY
U+W
SciTegic.value.DoubleValue
-58.332

@<SCITEGIC>MOL_PROPERTY
Grad RMS
SciTegic.value.DoubleValue
0.000000

@<SCITEGIC>MOL_PROPERTY
U
SciTegic.value.DoubleValue
8.390

@<SCITEGIC>MOL_PROPERTY
W
SciTegic.value.DoubleValue
-66.722

@<SCITEGIC>MOL_PROPERTY
W(PB)
SciTegic.value.DoubleValue
-68.455

@<SCITEGIC>MOL_PROPERTY
W(SA)
SciTegic.value.DoubleValue
1.733

@<SCITEGIC>MOL_PROPERTY
Valence
SciTegic.value.DoubleValue
6.333

@<SCITEGIC>MOL_PROPERTY
Coulomb
SciTegic.value.DoubleValue
1.215

@<SCITEGIC>MOL_PROPERTY
VdW
SciTegic.value.DoubleValue
0.842

@<SCITEGIC>MOL_PROPERTY
VdW6
SciTegic.value.DoubleValue
-3.344

@<SCITEGIC>MOL_PROPERTY
VdW12
SciTegic.value.DoubleValue
4.186

@<SCITEGIC>MOL_PROPERTY
Bond
SciTegic.value.DoubleValue
0.091

@<SCITEGIC>MOL_PROPERTY
Angle
SciTegic.value.DoubleValue
2.713

@<SCITEGIC>MOL_PROPERTY
Pdih
SciTegic.value.DoubleValue
3.529

@<SCITEGIC>MOL_PROPERTY
Idih
SciTegic.value.DoubleValue
0.000

@<SCITEGIC>MOL_PROPERTY
Tether
SciTegic.value.DoubleValue
0.000

@<TRIPOS>MOLECULE
guest-6_confgen4.mol2 : confsearch ligand conformer 470
          13          12           1
SMALL
USER_CHARGES
 
@<TRIPOS>ATOM
       1    C1      21.640650   18.214607   22.858256 C.2        1 MOL1         0.6021
       2    O1      22.438221   17.599701   22.179189 O.co2      1 MOL1        -0.6904
       3    O2      21.491021   18.030459   24.049500 O.co2      1 MOL1        -0.6904
       4    C2      20.766897   19.260976   22.174761 C.3        1 MOL1        -0.2102
       5    H1      21.344466   19.705355   21.355030 H          1 MOL1         0.0687
       6    H2      20.563367   20.060594   22.897399 H          1 MOL1         0.0687
       7    C3      19.437678   18.679332   21.635581 C.3        1 MOL1        -0.1974
       8    H3      19.653715   17.873117   20.920621 H          1 MOL1         0.0689
       9    H4      18.872424   18.228546   22.463290 H          1 MOL1         0.0689
      10    C4      18.578221   19.761031   20.951073 C.3        1 MOL1        -0.2987
      11    H5      17.640913   19.329967   20.575707 H          1 MOL1         0.0700
      12    H6      18.323915   20.564322   21.655066 H          1 MOL1         0.0700
      13    H7      19.111187   20.206129   20.100549 H          1 MOL1         0.0700
@<TRIPOS>BOND
    1     1     2    1
    2     1     3    2
    3     1     4    1
    4     4     5    1
    5     4     6    1
    6     4     7    1
    7     7     8    1
    8     7     9    1
    9     7    10    1
   10    10    11    1
   11    10    12    1
   12    10    13    1
@<TRIPOS>SUBSTRUCTURE
       1 MOL1            1 RESIDUE      1      MOL     
@<SCITEGIC>MOL_PROPERTY
VConf Rank
SciTegic.value.IntegerValue
470

@<SCITEGIC>MOL_PROPERTY
Conf_Id
SciTegic.value.IntegerValue
1

@<SCITEGIC>MOL_PROPERTY
Delta U+W
SciTegic.value.DoubleValue
-1.339

@<SCITEGIC>MOL_PROPERTY
U+W
SciTegic.value.DoubleValue
-59.672

@<SCITEGIC>MOL_PROPERTY
Grad RMS
SciTegic.value.DoubleValue
0.000000

@<SCITEGIC>MOL_PROPERTY
U
SciTegic.value.DoubleValue
7.389

@<SCITEGIC>MOL_PROPERTY
W
SciTegic.value.DoubleValue
-67.061

@<SCITEGIC>MOL_PROPERTY
W(PB)
SciTegic.value.DoubleValue
-68.767

@<SCITEGIC>MOL_PROPERTY
W(SA)
SciTegic.value.DoubleValue
1.707

@<SCITEGIC>MOL_PROPERTY
Valence
SciTegic.value.DoubleValue
5.822

@<SCITEGIC>MOL_PROPERTY
Coulomb
SciTegic.value.DoubleValue
1.255

@<SCITEGIC>MOL_PROPERTY
VdW
SciTegic.value.DoubleValue
0.312

@<SCITEGIC>MOL_PROPERTY
VdW6
SciTegic.value.DoubleValue
-3.061

@<SCITEGIC>MOL_PROPERTY
VdW12
SciTegic.value.DoubleValue
3.372

@<SCITEGIC>MOL_PROPERTY
Bond
SciTegic.value.DoubleValue
0.059

@<SCITEGIC>MOL_PROPERTY
Angle
SciTegic.value.DoubleValue
2.241

@<SCITEGIC>MOL_PROPERTY
Pdih
SciTegic.value.DoubleValue
3.522

@<SCITEGIC>MOL_PROPERTY
Idih
SciTegic.value.DoubleValue
0.000

@<SCITEGIC>MOL_PROPERTY
Tether
SciTegic.value.DoubleValue
0.000

@<TRIPOS>MOLECULE
guest-6_confgen4.mol2 : confsearch ligand conformer 471
          13          12           1
SMALL
USER_CHARGES
 
@<TRIPOS>ATOM
       1    C1      20.071108   19.312237   23.754568 C.2        1 MOL1         0.6021
       2    O1      19.023279   19.060052   24.315421 O.co2      1 MOL1        -0.6904
       3    O2      21.161644   19.098250   24.245327 O.co2      1 MOL1        -0.6904
       4    C2      20.011184   19.965192   22.375878 C.3        1 MOL1        -0.2102
       5    H1      20.988888   20.411021   22.155382 H          1 MOL1         0.0687
       6    H2      19.292837   20.791456   22.436311 H          1 MOL1         0.0687
       7    C3      19.594167   19.001900   21.235043 C.3        1 MOL1        -0.1974
       8    H3      18.633777   18.529652   21.485152 H          1 MOL1         0.0689
       9    H4      19.431017   19.581532   20.316194 H          1 MOL1         0.0689
      10    C4      20.654307   17.914602   20.963351 C.3        1 MOL1        -0.2987
      11    H5      20.811101   17.285959   21.849946 H          1 MOL1         0.0700
      12    H6      20.337552   17.262966   20.138650 H          1 MOL1         0.0700
      13    H7      21.617323   18.365189   20.689554 H          1 MOL1         0.0700
@<TRIPOS>BOND
    1     1     2    1
    2     1     3    2
    3     1     4    1
    4     4     5    1
    5     4     6    1
    6     4     7    1
    7     7     8    1
    8     7     9    1
    9     7    10    1
   10    10    11    1
   11    10    12    1
   12    10    13    1
@<TRIPOS>SUBSTRUCTURE
       1 MOL1            1 RESIDUE      1      MOL     
@<SCITEGIC>MOL_PROPERTY
VConf Rank
SciTegic.value.IntegerValue
471

@<SCITEGIC>MOL_PROPERTY
Conf_Id
SciTegic.value.IntegerValue
4

@<SCITEGIC>MOL_PROPERTY
Delta U+W
SciTegic.value.DoubleValue
0.281

@<SCITEGIC>MOL_PROPERTY
U+W
SciTegic.value.DoubleValue
-58.051

@<SCITEGIC>MOL_PROPERTY
Grad RMS
SciTegic.value.DoubleValue
0.000000

@<SCITEGIC>MOL_PROPERTY
U
SciTegic.value.DoubleValue
9.781

@<SCITEGIC>MOL_PROPERTY
W
SciTegic.value.DoubleValue
-67.832

@<SCITEGIC>MOL_PROPERTY
W(PB)
SciTegic.value.DoubleValue
-69.535

@<SCITEGIC>MOL_PROPERTY
W(SA)
SciTegic.value.DoubleValue
1.703

@<SCITEGIC>MOL_PROPERTY
Valence
SciTegic.value.DoubleValue
6.123

@<SCITEGIC>MOL_PROPERTY
Coulomb
SciTegic.value.DoubleValue
3.449

@<SCITEGIC>MOL_PROPERTY
VdW
SciTegic.value.DoubleValue
0.209

@<SCITEGIC>MOL_PROPERTY
VdW6
SciTegic.value.DoubleValue
-3.762

@<SCITEGIC>MOL_PROPERTY
VdW12
SciTegic.value.DoubleValue
3.972

@<SCITEGIC>MOL_PROPERTY
Bond
SciTegic.value.DoubleValue
0.078

@<SCITEGIC>MOL_PROPERTY
Angle
SciTegic.value.DoubleValue
2.428

@<SCITEGIC>MOL_PROPERTY
Pdih
SciTegic.value.DoubleValue
3.616

@<SCITEGIC>MOL_PROPERTY
Idih
SciTegic.value.DoubleValue
0.002

@<SCITEGIC>MOL_PROPERTY
Tether
SciTegic.value.DoubleValue
0.000

@<TRIPOS>MOLECULE
guest-6_confgen4.mol2 : confsearch ligand conformer 472
          13          12           1
SMALL
USER_CHARGES
 
@<TRIPOS>ATOM
       1    C1      20.486315   19.754382   23.563825 C.2        1 MOL1         0.6021
       2    O1      19.454055   20.122352   24.088175 O.co2      1 MOL1        -0.6904
       3    O2      21.424999   19.294489   24.183075 O.co2      1 MOL1        -0.6904
       4    C2      20.627825   19.910065   22.051720 C.3        1 MOL1        -0.2102
       5    H1      21.599896   20.380245   21.860941 H          1 MOL1         0.0687
       6    H2      19.862005   20.610964   21.697396 H          1 MOL1         0.0687
       7    C3      20.536589   18.577231   21.265230 C.3        1 MOL1        -0.1974
       8    H3      20.797554   18.761043   20.214049 H          1 MOL1         0.0689
       9    H4      21.279995   17.868180   21.655765 H          1 MOL1         0.0689
      10    C4      19.130032   17.947149   21.332463 C.3        1 MOL1        -0.2987
      11    H5      18.373698   18.631342   20.925980 H          1 MOL1         0.0700
      12    H6      19.094540   17.017113   20.750337 H          1 MOL1         0.0700
      13    H7      18.853508   17.708621   22.368061 H          1 MOL1         0.0700
@<TRIPOS>BOND
    1     1     2    1
    2     1     3    2
    3     1     4    1
    4     4     5    1
    5     4     6    1
    6     4     7    1
    7     7     8    1
    8     7     9    1
    9     7    10    1
   10    10    11    1
   11    10    12    1
   12    10    13    1
@<TRIPOS>SUBSTRUCTURE
       1 MOL1            1 RESIDUE      1      MOL     
@<SCITEGIC>MOL_PROPERTY
VConf Rank
SciTegic.value.IntegerValue
472

@<SCITEGIC>MOL_PROPERTY
Conf_Id
SciTegic.value.IntegerValue
36

@<SCITEGIC>MOL_PROPERTY
Delta U+W
SciTegic.value.DoubleValue
0.272

@<SCITEGIC>MOL_PROPERTY
U+W
SciTegic.value.DoubleValue
-58.060

@<SCITEGIC>MOL_PROPERTY
Grad RMS
SciTegic.value.DoubleValue
0.000000

@<SCITEGIC>MOL_PROPERTY
U
SciTegic.value.DoubleValue
9.781

@<SCITEGIC>MOL_PROPERTY
W
SciTegic.value.DoubleValue
-67.841

@<SCITEGIC>MOL_PROPERTY
W(PB)
SciTegic.value.DoubleValue
-69.537

@<SCITEGIC>MOL_PROPERTY
W(SA)
SciTegic.value.DoubleValue
1.696

@<SCITEGIC>MOL_PROPERTY
Valence
SciTegic.value.DoubleValue
6.123

@<SCITEGIC>MOL_PROPERTY
Coulomb
SciTegic.value.DoubleValue
3.449

@<SCITEGIC>MOL_PROPERTY
VdW
SciTegic.value.DoubleValue
0.209

@<SCITEGIC>MOL_PROPERTY
VdW6
SciTegic.value.DoubleValue
-3.762

@<SCITEGIC>MOL_PROPERTY
VdW12
SciTegic.value.DoubleValue
3.972

@<SCITEGIC>MOL_PROPERTY
Bond
SciTegic.value.DoubleValue
0.078

@<SCITEGIC>MOL_PROPERTY
Angle
SciTegic.value.DoubleValue
2.428

@<SCITEGIC>MOL_PROPERTY
Pdih
SciTegic.value.DoubleValue
3.616

@<SCITEGIC>MOL_PROPERTY
Idih
SciTegic.value.DoubleValue
0.002

@<SCITEGIC>MOL_PROPERTY
Tether
SciTegic.value.DoubleValue
0.000

@<TRIPOS>MOLECULE
guest-6_confgen4.mol2 : confsearch ligand conformer 473
          13          12           1
SMALL
USER_CHARGES
 
@<TRIPOS>ATOM
       1    C1      19.128154   20.112642   23.405520 C.2        1 MOL1         0.6021
       2    O1      18.644256   19.207301   24.056312 O.co2      1 MOL1        -0.6904
       3    O2      19.029954   21.280847   23.722458 O.co2      1 MOL1        -0.6904
       4    C2      19.901837   19.798783   22.123495 C.3        1 MOL1        -0.2102
       5    H1      20.908443   20.218510   22.237124 H          1 MOL1         0.0687
       6    H2      19.417212   20.345793   21.306025 H          1 MOL1         0.0687
       7    C3      20.001167   18.294433   21.758773 C.3        1 MOL1        -0.1974
       8    H3      20.484458   17.747629   22.580473 H          1 MOL1         0.0689
       9    H4      18.991384   17.875043   21.648301 H          1 MOL1         0.0689
      10    C4      20.796065   18.075666   20.455657 C.3        1 MOL1        -0.2987
      11    H5      21.820467   18.459063   20.551217 H          1 MOL1         0.0700
      12    H6      20.855574   17.006379   20.214120 H          1 MOL1         0.0700
      13    H7      20.315420   18.587553   19.611574 H          1 MOL1         0.0700
@<TRIPOS>BOND
    1     1     2    1
    2     1     3    2
    3     1     4    1
    4     4     5    1
    5     4     6    1
    6     4     7    1
    7     7     8    1
    8     7     9    1
    9     7    10    1
   10    10    11    1
   11    10    12    1
   12    10    13    1
@<TRIPOS>SUBSTRUCTURE
       1 MOL1            1 RESIDUE      1      MOL     
@<SCITEGIC>MOL_PROPERTY
VConf Rank
SciTegic.value.IntegerValue
473

@<SCITEGIC>MOL_PROPERTY
Conf_Id
SciTegic.value.IntegerValue
0

@<SCITEGIC>MOL_PROPERTY
Delta U+W
SciTegic.value.DoubleValue
0.000

@<SCITEGIC>MOL_PROPERTY
U+W
SciTegic.value.DoubleValue
-58.332

@<SCITEGIC>MOL_PROPERTY
Grad RMS
SciTegic.value.DoubleValue
0.000000

@<SCITEGIC>MOL_PROPERTY
U
SciTegic.value.DoubleValue
8.390

@<SCITEGIC>MOL_PROPERTY
W
SciTegic.value.DoubleValue
-66.722

@<SCITEGIC>MOL_PROPERTY
W(PB)
SciTegic.value.DoubleValue
-68.455

@<SCITEGIC>MOL_PROPERTY
W(SA)
SciTegic.value.DoubleValue
1.733

@<SCITEGIC>MOL_PROPERTY
Valence
SciTegic.value.DoubleValue
6.333

@<SCITEGIC>MOL_PROPERTY
Coulomb
SciTegic.value.DoubleValue
1.215

@<SCITEGIC>MOL_PROPERTY
VdW
SciTegic.value.DoubleValue
0.842

@<SCITEGIC>MOL_PROPERTY
VdW6
SciTegic.value.DoubleValue
-3.344

@<SCITEGIC>MOL_PROPERTY
VdW12
SciTegic.value.DoubleValue
4.186

@<SCITEGIC>MOL_PROPERTY
Bond
SciTegic.value.DoubleValue
0.091

@<SCITEGIC>MOL_PROPERTY
Angle
SciTegic.value.DoubleValue
2.713

@<SCITEGIC>MOL_PROPERTY
Pdih
SciTegic.value.DoubleValue
3.529

@<SCITEGIC>MOL_PROPERTY
Idih
SciTegic.value.DoubleValue
0.000

@<SCITEGIC>MOL_PROPERTY
Tether
SciTegic.value.DoubleValue
0.000

@<TRIPOS>MOLECULE
guest-6_confgen4.mol2 : confsearch ligand conformer 474
          13          12           1
SMALL
USER_CHARGES
 
@<TRIPOS>ATOM
       1    C1      19.092347   20.067804   20.220123 C.2        1 MOL1         0.6021
       2    O1      19.097705   19.492178   19.150550 O.co2      1 MOL1        -0.6904
       3    O2      19.018199   21.275003   20.332081 O.co2      1 MOL1        -0.6904
       4    C2      19.203677   19.231079   21.490160 C.3        1 MOL1        -0.2102
       5    H1      18.708581   18.269131   21.309728 H          1 MOL1         0.0687
       6    H2      18.642996   19.739349   22.284085 H          1 MOL1         0.0687
       7    C3      20.668068   19.001124   21.935724 C.3        1 MOL1        -0.1974
       8    H3      21.222205   18.500641   21.129330 H          1 MOL1         0.0689
       9    H4      21.156557   19.971118   22.103990 H          1 MOL1         0.0689
      10    C4      20.746353   18.152810   23.220840 C.3        1 MOL1        -0.2987
      11    H5      21.791434   18.000714   23.520732 H          1 MOL1         0.0700
      12    H6      20.224183   18.647474   24.050419 H          1 MOL1         0.0700
      13    H7      20.290371   17.165714   23.068262 H          1 MOL1         0.0700
@<TRIPOS>BOND
    1     1     2    1
    2     1     3    2
    3     1     4    1
    4     4     5    1
    5     4     6    1
    6     4     7    1
    7     7     8    1
    8     7     9    1
    9     7    10    1
   10    10    11    1
   11    10    12    1
   12    10    13    1
@<TRIPOS>SUBSTRUCTURE
       1 MOL1            1 RESIDUE      1      MOL     
@<SCITEGIC>MOL_PROPERTY
VConf Rank
SciTegic.value.IntegerValue
474

@<SCITEGIC>MOL_PROPERTY
Conf_Id
SciTegic.value.IntegerValue
1

@<SCITEGIC>MOL_PROPERTY
Delta U+W
SciTegic.value.DoubleValue
-1.339

@<SCITEGIC>MOL_PROPERTY
U+W
SciTegic.value.DoubleValue
-59.672

@<SCITEGIC>MOL_PROPERTY
Grad RMS
SciTegic.value.DoubleValue
0.000000

@<SCITEGIC>MOL_PROPERTY
U
SciTegic.value.DoubleValue
7.389

@<SCITEGIC>MOL_PROPERTY
W
SciTegic.value.DoubleValue
-67.061

@<SCITEGIC>MOL_PROPERTY
W(PB)
SciTegic.value.DoubleValue
-68.767

@<SCITEGIC>MOL_PROPERTY
W(SA)
SciTegic.value.DoubleValue
1.707

@<SCITEGIC>MOL_PROPERTY
Valence
SciTegic.value.DoubleValue
5.822

@<SCITEGIC>MOL_PROPERTY
Coulomb
SciTegic.value.DoubleValue
1.255

@<SCITEGIC>MOL_PROPERTY
VdW
SciTegic.value.DoubleValue
0.312

@<SCITEGIC>MOL_PROPERTY
VdW6
SciTegic.value.DoubleValue
-3.061

@<SCITEGIC>MOL_PROPERTY
VdW12
SciTegic.value.DoubleValue
3.372

@<SCITEGIC>MOL_PROPERTY
Bond
SciTegic.value.DoubleValue
0.059

@<SCITEGIC>MOL_PROPERTY
Angle
SciTegic.value.DoubleValue
2.241

@<SCITEGIC>MOL_PROPERTY
Pdih
SciTegic.value.DoubleValue
3.522

@<SCITEGIC>MOL_PROPERTY
Idih
SciTegic.value.DoubleValue
0.000

@<SCITEGIC>MOL_PROPERTY
Tether
SciTegic.value.DoubleValue
0.000

@<TRIPOS>MOLECULE
guest-6_confgen4.mol2 : confsearch ligand conformer 475
          13          12           1
SMALL
USER_CHARGES
 
@<TRIPOS>ATOM
       1    C1      19.861785   18.586390   20.266103 C.2        1 MOL1         0.6021
       2    O1      20.325541   19.377527   19.469151 O.co2      1 MOL1        -0.6904
       3    O2      19.886427   17.382375   20.105963 O.co2      1 MOL1        -0.6904
       4    C2      19.181186   19.138474   21.516190 C.3        1 MOL1        -0.2102
       5    H1      18.552933   18.351346   21.950949 H          1 MOL1         0.0687
       6    H2      18.506278   19.940378   21.193957 H          1 MOL1         0.0687
       7    C3      20.162720   19.688211   22.582829 C.3        1 MOL1        -0.1974
       8    H3      20.814767   20.446235   22.126589 H          1 MOL1         0.0689
       9    H4      19.590294   20.197058   23.370406 H          1 MOL1         0.0689
      10    C4      21.022340   18.578067   23.222019 C.3        1 MOL1        -0.2987
      11    H5      21.642881   18.075943   22.467946 H          1 MOL1         0.0700
      12    H6      21.690835   18.997493   23.985101 H          1 MOL1         0.0700
      13    H7      20.390196   17.820511   23.703574 H          1 MOL1         0.0700
@<TRIPOS>BOND
    1     1     2    1
    2     1     3    2
    3     1     4    1
    4     4     5    1
    5     4     6    1
    6     4     7    1
    7     7     8    1
    8     7     9    1
    9     7    10    1
   10    10    11    1
   11    10    12    1
   12    10    13    1
@<TRIPOS>SUBSTRUCTURE
       1 MOL1            1 RESIDUE      1      MOL     
@<SCITEGIC>MOL_PROPERTY
VConf Rank
SciTegic.value.IntegerValue
475

@<SCITEGIC>MOL_PROPERTY
Conf_Id
SciTegic.value.IntegerValue
4

@<SCITEGIC>MOL_PROPERTY
Delta U+W
SciTegic.value.DoubleValue
0.281

@<SCITEGIC>MOL_PROPERTY
U+W
SciTegic.value.DoubleValue
-58.051

@<SCITEGIC>MOL_PROPERTY
Grad RMS
SciTegic.value.DoubleValue
0.000000

@<SCITEGIC>MOL_PROPERTY
U
SciTegic.value.DoubleValue
9.781

@<SCITEGIC>MOL_PROPERTY
W
SciTegic.value.DoubleValue
-67.832

@<SCITEGIC>MOL_PROPERTY
W(PB)
SciTegic.value.DoubleValue
-69.535

@<SCITEGIC>MOL_PROPERTY
W(SA)
SciTegic.value.DoubleValue
1.703

@<SCITEGIC>MOL_PROPERTY
Valence
SciTegic.value.DoubleValue
6.123

@<SCITEGIC>MOL_PROPERTY
Coulomb
SciTegic.value.DoubleValue
3.449

@<SCITEGIC>MOL_PROPERTY
VdW
SciTegic.value.DoubleValue
0.209

@<SCITEGIC>MOL_PROPERTY
VdW6
SciTegic.value.DoubleValue
-3.762

@<SCITEGIC>MOL_PROPERTY
VdW12
SciTegic.value.DoubleValue
3.972

@<SCITEGIC>MOL_PROPERTY
Bond
SciTegic.value.DoubleValue
0.078

@<SCITEGIC>MOL_PROPERTY
Angle
SciTegic.value.DoubleValue
2.428

@<SCITEGIC>MOL_PROPERTY
Pdih
SciTegic.value.DoubleValue
3.616

@<SCITEGIC>MOL_PROPERTY
Idih
SciTegic.value.DoubleValue
0.002

@<SCITEGIC>MOL_PROPERTY
Tether
SciTegic.value.DoubleValue
0.000

@<TRIPOS>MOLECULE
guest-6_confgen4.mol2 : confsearch ligand conformer 476
          13          12           1
SMALL
USER_CHARGES
 
@<TRIPOS>ATOM
       1    C1      21.206366   20.349214   22.337494 C.2        1 MOL1         0.6021
       2    O1      20.793210   21.342662   21.773341 O.co2      1 MOL1        -0.6904
       3    O2      21.714063   20.368220   23.441115 O.co2      1 MOL1        -0.6904
       4    C2      21.116663   19.010652   21.608846 C.3        1 MOL1        -0.2102
       5    H1      22.097945   18.527994   21.689556 H          1 MOL1         0.0687
       6    H2      20.944498   19.201838   20.542499 H          1 MOL1         0.0687
       7    C3      20.026438   18.058107   22.163287 C.3        1 MOL1        -0.1974
       8    H3      20.132436   17.073829   21.687016 H          1 MOL1         0.0689
       9    H4      20.183936   17.906293   23.240351 H          1 MOL1         0.0689
      10    C4      18.598630   18.586901   21.914954 C.3        1 MOL1        -0.2987
      11    H5      18.412331   18.724763   20.841792 H          1 MOL1         0.0700
      12    H6      17.852007   17.880944   22.301315 H          1 MOL1         0.0700
      13    H7      18.442486   19.551757   22.415451 H          1 MOL1         0.0700
@<TRIPOS>BOND
    1     1     2    1
    2     1     3    2
    3     1     4    1
    4     4     5    1
    5     4     6    1
    6     4     7    1
    7     7     8    1
    8     7     9    1
    9     7    10    1
   10    10    11    1
   11    10    12    1
   12    10    13    1
@<TRIPOS>SUBSTRUCTURE
       1 MOL1            1 RESIDUE      1      MOL     
@<SCITEGIC>MOL_PROPERTY
VConf Rank
SciTegic.value.IntegerValue
476

@<SCITEGIC>MOL_PROPERTY
Conf_Id
SciTegic.value.IntegerValue
36

@<SCITEGIC>MOL_PROPERTY
Delta U+W
SciTegic.value.DoubleValue
0.272

@<SCITEGIC>MOL_PROPERTY
U+W
SciTegic.value.DoubleValue
-58.060

@<SCITEGIC>MOL_PROPERTY
Grad RMS
SciTegic.value.DoubleValue
0.000000

@<SCITEGIC>MOL_PROPERTY
U
SciTegic.value.DoubleValue
9.781

@<SCITEGIC>MOL_PROPERTY
W
SciTegic.value.DoubleValue
-67.841

@<SCITEGIC>MOL_PROPERTY
W(PB)
SciTegic.value.DoubleValue
-69.537

@<SCITEGIC>MOL_PROPERTY
W(SA)
SciTegic.value.DoubleValue
1.696

@<SCITEGIC>MOL_PROPERTY
Valence
SciTegic.value.DoubleValue
6.123

@<SCITEGIC>MOL_PROPERTY
Coulomb
SciTegic.value.DoubleValue
3.449

@<SCITEGIC>MOL_PROPERTY
VdW
SciTegic.value.DoubleValue
0.209

@<SCITEGIC>MOL_PROPERTY
VdW6
SciTegic.value.DoubleValue
-3.762

@<SCITEGIC>MOL_PROPERTY
VdW12
SciTegic.value.DoubleValue
3.972

@<SCITEGIC>MOL_PROPERTY
Bond
SciTegic.value.DoubleValue
0.078

@<SCITEGIC>MOL_PROPERTY
Angle
SciTegic.value.DoubleValue
2.428

@<SCITEGIC>MOL_PROPERTY
Pdih
SciTegic.value.DoubleValue
3.616

@<SCITEGIC>MOL_PROPERTY
Idih
SciTegic.value.DoubleValue
0.002

@<SCITEGIC>MOL_PROPERTY
Tether
SciTegic.value.DoubleValue
0.000

@<TRIPOS>MOLECULE
guest-6_confgen4.mol2 : confsearch ligand conformer 477
          13          12           1
SMALL
USER_CHARGES
 
@<TRIPOS>ATOM
       1    C1      21.648332   17.624127   21.722406 C.2        1 MOL1         0.6021
       2    O1      22.453903   18.192276   22.433455 O.co2      1 MOL1        -0.6904
       3    O2      21.877873   16.561722   21.180738 O.co2      1 MOL1        -0.6904
       4    C2      20.273884   18.250428   21.478846 C.3        1 MOL1        -0.2102
       5    H1      19.520118   17.521587   21.799726 H          1 MOL1         0.0687
       6    H2      20.157911   18.375229   20.395650 H          1 MOL1         0.0687
       7    C3      20.025926   19.606175   22.190480 C.3        1 MOL1        -0.1974
       8    H3      20.145484   19.479569   23.275575 H          1 MOL1         0.0689
       9    H4      20.784112   20.334249   21.869829 H          1 MOL1         0.0689
      10    C4      18.618787   20.159374   21.887550 C.3        1 MOL1        -0.2987
      11    H5      17.841160   19.462707   22.227364 H          1 MOL1         0.0700
      12    H6      18.461992   21.118006   22.399114 H          1 MOL1         0.0700
      13    H7      18.484910   20.324196   20.810316 H          1 MOL1         0.0700
@<TRIPOS>BOND
    1     1     2    1
    2     1     3    2
    3     1     4    1
    4     4     5    1
    5     4     6    1
    6     4     7    1
    7     7     8    1
    8     7     9    1
    9     7    10    1
   10    10    11    1
   11    10    12    1
   12    10    13    1
@<TRIPOS>SUBSTRUCTURE
       1 MOL1            1 RESIDUE      1      MOL     
@<SCITEGIC>MOL_PROPERTY
VConf Rank
SciTegic.value.IntegerValue
477

@<SCITEGIC>MOL_PROPERTY
Conf_Id
SciTegic.value.IntegerValue
0

@<SCITEGIC>MOL_PROPERTY
Delta U+W
SciTegic.value.DoubleValue
0.000

@<SCITEGIC>MOL_PROPERTY
U+W
SciTegic.value.DoubleValue
-58.332

@<SCITEGIC>MOL_PROPERTY
Grad RMS
SciTegic.value.DoubleValue
0.000000

@<SCITEGIC>MOL_PROPERTY
U
SciTegic.value.DoubleValue
8.390

@<SCITEGIC>MOL_PROPERTY
W
SciTegic.value.DoubleValue
-66.722

@<SCITEGIC>MOL_PROPERTY
W(PB)
SciTegic.value.DoubleValue
-68.455

@<SCITEGIC>MOL_PROPERTY
W(SA)
SciTegic.value.DoubleValue
1.733

@<SCITEGIC>MOL_PROPERTY
Valence
SciTegic.value.DoubleValue
6.333

@<SCITEGIC>MOL_PROPERTY
Coulomb
SciTegic.value.DoubleValue
1.215

@<SCITEGIC>MOL_PROPERTY
VdW
SciTegic.value.DoubleValue
0.842

@<SCITEGIC>MOL_PROPERTY
VdW6
SciTegic.value.DoubleValue
-3.344

@<SCITEGIC>MOL_PROPERTY
VdW12
SciTegic.value.DoubleValue
4.186

@<SCITEGIC>MOL_PROPERTY
Bond
SciTegic.value.DoubleValue
0.091

@<SCITEGIC>MOL_PROPERTY
Angle
SciTegic.value.DoubleValue
2.713

@<SCITEGIC>MOL_PROPERTY
Pdih
SciTegic.value.DoubleValue
3.529

@<SCITEGIC>MOL_PROPERTY
Idih
SciTegic.value.DoubleValue
0.000

@<SCITEGIC>MOL_PROPERTY
Tether
SciTegic.value.DoubleValue
0.000

@<TRIPOS>MOLECULE
guest-6_confgen4.mol2 : confsearch ligand conformer 478
          13          12           1
SMALL
USER_CHARGES
 
@<TRIPOS>ATOM
       1    C1      18.892782   20.041713   20.330919 C.2        1 MOL1         0.6021
       2    O1      18.428306   21.120747   20.639639 O.co2      1 MOL1        -0.6904
       3    O2      18.439433   19.344513   19.445623 O.co2      1 MOL1        -0.6904
       4    C2      20.098517   19.526057   21.109250 C.3        1 MOL1        -0.2102
       5    H1      20.703439   20.389145   21.412841 H          1 MOL1         0.0687
       6    H2      20.712626   18.924372   20.428173 H          1 MOL1         0.0687
       7    C3      19.703745   18.689367   22.350199 C.3        1 MOL1        -0.1974
       8    H3      19.081014   19.298721   23.020061 H          1 MOL1         0.0689
       9    H4      19.090321   17.833617   22.035197 H          1 MOL1         0.0689
      10    C4      20.943571   18.183465   23.114519 C.3        1 MOL1        -0.2987
      11    H5      20.643741   17.592953   23.990110 H          1 MOL1         0.0700
      12    H6      21.567296   17.546562   22.473523 H          1 MOL1         0.0700
      13    H7      21.557885   19.022904   23.465969 H          1 MOL1         0.0700
@<TRIPOS>BOND
    1     1     2    1
    2     1     3    2
    3     1     4    1
    4     4     5    1
    5     4     6    1
    6     4     7    1
    7     7     8    1
    8     7     9    1
    9     7    10    1
   10    10    11    1
   11    10    12    1
   12    10    13    1
@<TRIPOS>SUBSTRUCTURE
       1 MOL1            1 RESIDUE      1      MOL     
@<SCITEGIC>MOL_PROPERTY
VConf Rank
SciTegic.value.IntegerValue
478

@<SCITEGIC>MOL_PROPERTY
Conf_Id
SciTegic.value.IntegerValue
1

@<SCITEGIC>MOL_PROPERTY
Delta U+W
SciTegic.value.DoubleValue
-1.339

@<SCITEGIC>MOL_PROPERTY
U+W
SciTegic.value.DoubleValue
-59.672

@<SCITEGIC>MOL_PROPERTY
Grad RMS
SciTegic.value.DoubleValue
0.000000

@<SCITEGIC>MOL_PROPERTY
U
SciTegic.value.DoubleValue
7.389

@<SCITEGIC>MOL_PROPERTY
W
SciTegic.value.DoubleValue
-67.061

@<SCITEGIC>MOL_PROPERTY
W(PB)
SciTegic.value.DoubleValue
-68.767

@<SCITEGIC>MOL_PROPERTY
W(SA)
SciTegic.value.DoubleValue
1.707

@<SCITEGIC>MOL_PROPERTY
Valence
SciTegic.value.DoubleValue
5.822

@<SCITEGIC>MOL_PROPERTY
Coulomb
SciTegic.value.DoubleValue
1.255

@<SCITEGIC>MOL_PROPERTY
VdW
SciTegic.value.DoubleValue
0.312

@<SCITEGIC>MOL_PROPERTY
VdW6
SciTegic.value.DoubleValue
-3.061

@<SCITEGIC>MOL_PROPERTY
VdW12
SciTegic.value.DoubleValue
3.372

@<SCITEGIC>MOL_PROPERTY
Bond
SciTegic.value.DoubleValue
0.059

@<SCITEGIC>MOL_PROPERTY
Angle
SciTegic.value.DoubleValue
2.241

@<SCITEGIC>MOL_PROPERTY
Pdih
SciTegic.value.DoubleValue
3.522

@<SCITEGIC>MOL_PROPERTY
Idih
SciTegic.value.DoubleValue
0.000

@<SCITEGIC>MOL_PROPERTY
Tether
SciTegic.value.DoubleValue
0.000

@<TRIPOS>MOLECULE
guest-6_confgen4.mol2 : confsearch ligand conformer 479
          13          12           1
SMALL
USER_CHARGES
 
@<TRIPOS>ATOM
       1    C1      19.277161   17.426219   22.336627 C.2        1 MOL1         0.6021
       2    O1      18.440700   17.087290   21.523265 O.co2      1 MOL1        -0.6904
       3    O2      20.042314   16.650070   22.873320 O.co2      1 MOL1        -0.6904
       4    C2      19.344089   18.899919   22.729634 C.3        1 MOL1        -0.2102
       5    H1      19.899995   18.987634   23.671208 H          1 MOL1         0.0687
       6    H2      18.318962   19.230408   22.935250 H          1 MOL1         0.0687
       7    C3      19.974543   19.816627   21.650044 C.3        1 MOL1        -0.1974
       8    H3      19.436186   19.690194   20.700250 H          1 MOL1         0.0689
       9    H4      19.845382   20.865890   21.948769 H          1 MOL1         0.0689
      10    C4      21.476409   19.533942   21.439291 C.3        1 MOL1        -0.2987
      11    H5      21.639763   18.503631   21.096357 H          1 MOL1         0.0700
      12    H6      21.895448   20.211914   20.684403 H          1 MOL1         0.0700
      13    H7      22.037231   19.676271   22.372358 H          1 MOL1         0.0700
@<TRIPOS>BOND
    1     1     2    1
    2     1     3    2
    3     1     4    1
    4     4     5    1
    5     4     6    1
    6     4     7    1
    7     7     8    1
    8     7     9    1
    9     7    10    1
   10    10    11    1
   11    10    12    1
   12    10    13    1
@<TRIPOS>SUBSTRUCTURE
       1 MOL1            1 RESIDUE      1      MOL     
@<SCITEGIC>MOL_PROPERTY
VConf Rank
SciTegic.value.IntegerValue
479

@<SCITEGIC>MOL_PROPERTY
Conf_Id
SciTegic.value.IntegerValue
4

@<SCITEGIC>MOL_PROPERTY
Delta U+W
SciTegic.value.DoubleValue
0.281

@<SCITEGIC>MOL_PROPERTY
U+W
SciTegic.value.DoubleValue
-58.051

@<SCITEGIC>MOL_PROPERTY
Grad RMS
SciTegic.value.DoubleValue
0.000000

@<SCITEGIC>MOL_PROPERTY
U
SciTegic.value.DoubleValue
9.781

@<SCITEGIC>MOL_PROPERTY
W
SciTegic.value.DoubleValue
-67.832

@<SCITEGIC>MOL_PROPERTY
W(PB)
SciTegic.value.DoubleValue
-69.535

@<SCITEGIC>MOL_PROPERTY
W(SA)
SciTegic.value.DoubleValue
1.703

@<SCITEGIC>MOL_PROPERTY
Valence
SciTegic.value.DoubleValue
6.123

@<SCITEGIC>MOL_PROPERTY
Coulomb
SciTegic.value.DoubleValue
3.449

@<SCITEGIC>MOL_PROPERTY
VdW
SciTegic.value.DoubleValue
0.209

@<SCITEGIC>MOL_PROPERTY
VdW6
SciTegic.value.DoubleValue
-3.762

@<SCITEGIC>MOL_PROPERTY
VdW12
SciTegic.value.DoubleValue
3.972

@<SCITEGIC>MOL_PROPERTY
Bond
SciTegic.value.DoubleValue
0.078

@<SCITEGIC>MOL_PROPERTY
Angle
SciTegic.value.DoubleValue
2.428

@<SCITEGIC>MOL_PROPERTY
Pdih
SciTegic.value.DoubleValue
3.616

@<SCITEGIC>MOL_PROPERTY
Idih
SciTegic.value.DoubleValue
0.002

@<SCITEGIC>MOL_PROPERTY
Tether
SciTegic.value.DoubleValue
0.000

@<TRIPOS>MOLECULE
guest-6_confgen4.mol2 : confsearch ligand conformer 480
          13          12           1
SMALL
USER_CHARGES
 
@<TRIPOS>ATOM
       1    C1      19.311818   19.802130   23.362926 C.2        1 MOL1         0.6021
       2    O1      18.757781   20.804794   22.958434 O.co2      1 MOL1        -0.6904
       3    O2      18.850366   19.084896   24.228221 O.co2      1 MOL1        -0.6904
       4    C2      20.676230   19.441768   22.780480 C.3        1 MOL1        -0.2102
       5    H1      21.343540   19.222174   23.622420 H          1 MOL1         0.0687
       6    H2      21.085958   20.323935   22.273339 H          1 MOL1         0.0687
       7    C3      20.653160   18.231690   21.811711 C.3        1 MOL1        -0.1974
       8    H3      21.685467   17.950573   21.562337 H          1 MOL1         0.0689
       9    H4      20.203093   17.365219   22.316280 H          1 MOL1         0.0689
      10    C4      19.884264   18.533166   20.508700 C.3        1 MOL1        -0.2987
      11    H5      20.331698   19.382953   19.976670 H          1 MOL1         0.0700
      12    H6      19.903841   17.664250   19.838104 H          1 MOL1         0.0700
      13    H7      18.833795   18.775627   20.717395 H          1 MOL1         0.0700
@<TRIPOS>BOND
    1     1     2    1
    2     1     3    2
    3     1     4    1
    4     4     5    1
    5     4     6    1
    6     4     7    1
    7     7     8    1
    8     7     9    1
    9     7    10    1
   10    10    11    1
   11    10    12    1
   12    10    13    1
@<TRIPOS>SUBSTRUCTURE
       1 MOL1            1 RESIDUE      1      MOL     
@<SCITEGIC>MOL_PROPERTY
VConf Rank
SciTegic.value.IntegerValue
480

@<SCITEGIC>MOL_PROPERTY
Conf_Id
SciTegic.value.IntegerValue
36

@<SCITEGIC>MOL_PROPERTY
Delta U+W
SciTegic.value.DoubleValue
0.272

@<SCITEGIC>MOL_PROPERTY
U+W
SciTegic.value.DoubleValue
-58.060

@<SCITEGIC>MOL_PROPERTY
Grad RMS
SciTegic.value.DoubleValue
0.000000

@<SCITEGIC>MOL_PROPERTY
U
SciTegic.value.DoubleValue
9.781

@<SCITEGIC>MOL_PROPERTY
W
SciTegic.value.DoubleValue
-67.841

@<SCITEGIC>MOL_PROPERTY
W(PB)
SciTegic.value.DoubleValue
-69.537

@<SCITEGIC>MOL_PROPERTY
W(SA)
SciTegic.value.DoubleValue
1.696

@<SCITEGIC>MOL_PROPERTY
Valence
SciTegic.value.DoubleValue
6.123

@<SCITEGIC>MOL_PROPERTY
Coulomb
SciTegic.value.DoubleValue
3.449

@<SCITEGIC>MOL_PROPERTY
VdW
SciTegic.value.DoubleValue
0.209

@<SCITEGIC>MOL_PROPERTY
VdW6
SciTegic.value.DoubleValue
-3.762

@<SCITEGIC>MOL_PROPERTY
VdW12
SciTegic.value.DoubleValue
3.972

@<SCITEGIC>MOL_PROPERTY
Bond
SciTegic.value.DoubleValue
0.078

@<SCITEGIC>MOL_PROPERTY
Angle
SciTegic.value.DoubleValue
2.428

@<SCITEGIC>MOL_PROPERTY
Pdih
SciTegic.value.DoubleValue
3.616

@<SCITEGIC>MOL_PROPERTY
Idih
SciTegic.value.DoubleValue
0.002

@<SCITEGIC>MOL_PROPERTY
Tether
SciTegic.value.DoubleValue
0.000

@<TRIPOS>MOLECULE
guest-6_confgen4.mol2 : confsearch ligand conformer 481
          13          12           1
SMALL
USER_CHARGES
 
@<TRIPOS>ATOM
       1    C1      20.890012   18.743793   19.889718 C.2        1 MOL1         0.6021
       2    O1      19.930124   18.996156   19.188107 O.co2      1 MOL1        -0.6904
       3    O2      21.977369   18.443682   19.439849 O.co2      1 MOL1        -0.6904
       4    C2      20.754224   18.797693   21.412656 C.3        1 MOL1        -0.2102
       5    H1      21.498034   19.513251   21.782871 H          1 MOL1         0.0687
       6    H2      21.036460   17.812222   21.801921 H          1 MOL1         0.0687
       7    C3      19.348307   19.185113   21.941106 C.3        1 MOL1        -0.1974
       8    H3      19.066154   20.171643   21.547530 H          1 MOL1         0.0689
       9    H4      18.603991   18.468560   21.566540 H          1 MOL1         0.0689
      10    C4      19.307133   19.213483   23.482319 C.3        1 MOL1        -0.2987
      11    H5      20.021459   19.945789   23.881051 H          1 MOL1         0.0700
      12    H6      18.305485   19.489224   23.837178 H          1 MOL1         0.0700
      13    H7      19.555640   18.229034   23.900204 H          1 MOL1         0.0700
@<TRIPOS>BOND
    1     1     2    1
    2     1     3    2
    3     1     4    1
    4     4     5    1
    5     4     6    1
    6     4     7    1
    7     7     8    1
    8     7     9    1
    9     7    10    1
   10    10    11    1
   11    10    12    1
   12    10    13    1
@<TRIPOS>SUBSTRUCTURE
       1 MOL1            1 RESIDUE      1      MOL     
@<SCITEGIC>MOL_PROPERTY
VConf Rank
SciTegic.value.IntegerValue
481

@<SCITEGIC>MOL_PROPERTY
Conf_Id
SciTegic.value.IntegerValue
0

@<SCITEGIC>MOL_PROPERTY
Delta U+W
SciTegic.value.DoubleValue
0.000

@<SCITEGIC>MOL_PROPERTY
U+W
SciTegic.value.DoubleValue
-58.332

@<SCITEGIC>MOL_PROPERTY
Grad RMS
SciTegic.value.DoubleValue
0.000000

@<SCITEGIC>MOL_PROPERTY
U
SciTegic.value.DoubleValue
8.390

@<SCITEGIC>MOL_PROPERTY
W
SciTegic.value.DoubleValue
-66.722

@<SCITEGIC>MOL_PROPERTY
W(PB)
SciTegic.value.DoubleValue
-68.455

@<SCITEGIC>MOL_PROPERTY
W(SA)
SciTegic.value.DoubleValue
1.733

@<SCITEGIC>MOL_PROPERTY
Valence
SciTegic.value.DoubleValue
6.333

@<SCITEGIC>MOL_PROPERTY
Coulomb
SciTegic.value.DoubleValue
1.215

@<SCITEGIC>MOL_PROPERTY
VdW
SciTegic.value.DoubleValue
0.842

@<SCITEGIC>MOL_PROPERTY
VdW6
SciTegic.value.DoubleValue
-3.344

@<SCITEGIC>MOL_PROPERTY
VdW12
SciTegic.value.DoubleValue
4.186

@<SCITEGIC>MOL_PROPERTY
Bond
SciTegic.value.DoubleValue
0.091

@<SCITEGIC>MOL_PROPERTY
Angle
SciTegic.value.DoubleValue
2.713

@<SCITEGIC>MOL_PROPERTY
Pdih
SciTegic.value.DoubleValue
3.529

@<SCITEGIC>MOL_PROPERTY
Idih
SciTegic.value.DoubleValue
0.000

@<SCITEGIC>MOL_PROPERTY
Tether
SciTegic.value.DoubleValue
0.000

@<TRIPOS>MOLECULE
guest-6_confgen4.mol2 : confsearch ligand conformer 482
          13          12           1
SMALL
USER_CHARGES
 
@<TRIPOS>ATOM
       1    C1      20.381528   16.965790   21.909612 C.2        1 MOL1         0.6021
       2    O1      20.932792   16.490022   20.937442 O.co2      1 MOL1        -0.6904
       3    O2      19.691176   16.320182   22.672478 O.co2      1 MOL1        -0.6904
       4    C2      20.549885   18.457808   22.176143 C.3        1 MOL1        -0.2102
       5    H1      21.547156   18.755979   21.830364 H          1 MOL1         0.0687
       6    H2      20.523266   18.615913   23.261184 H          1 MOL1         0.0687
       7    C3      19.466513   19.320949   21.485389 C.3        1 MOL1        -0.1974
       8    H3      19.495960   19.147006   20.400632 H          1 MOL1         0.0689
       9    H4      18.471903   19.007003   21.831813 H          1 MOL1         0.0689
      10    C4      19.664487   20.822562   21.773929 C.3        1 MOL1        -0.2987
      11    H5      18.887642   21.417665   21.276309 H          1 MOL1         0.0700
      12    H6      19.609239   21.026092   22.851462 H          1 MOL1         0.0700
      13    H7      20.641128   21.167165   21.409267 H          1 MOL1         0.0700
@<TRIPOS>BOND
    1     1     2    1
    2     1     3    2
    3     1     4    1
    4     4     5    1
    5     4     6    1
    6     4     7    1
    7     7     8    1
    8     7     9    1
    9     7    10    1
   10    10    11    1
   11    10    12    1
   12    10    13    1
@<TRIPOS>SUBSTRUCTURE
       1 MOL1            1 RESIDUE      1      MOL     
@<SCITEGIC>MOL_PROPERTY
VConf Rank
SciTegic.value.IntegerValue
482

@<SCITEGIC>MOL_PROPERTY
Conf_Id
SciTegic.value.IntegerValue
1

@<SCITEGIC>MOL_PROPERTY
Delta U+W
SciTegic.value.DoubleValue
-1.339

@<SCITEGIC>MOL_PROPERTY
U+W
SciTegic.value.DoubleValue
-59.672

@<SCITEGIC>MOL_PROPERTY
Grad RMS
SciTegic.value.DoubleValue
0.000000

@<SCITEGIC>MOL_PROPERTY
U
SciTegic.value.DoubleValue
7.389

@<SCITEGIC>MOL_PROPERTY
W
SciTegic.value.DoubleValue
-67.061

@<SCITEGIC>MOL_PROPERTY
W(PB)
SciTegic.value.DoubleValue
-68.767

@<SCITEGIC>MOL_PROPERTY
W(SA)
SciTegic.value.DoubleValue
1.707

@<SCITEGIC>MOL_PROPERTY
Valence
SciTegic.value.DoubleValue
5.822

@<SCITEGIC>MOL_PROPERTY
Coulomb
SciTegic.value.DoubleValue
1.255

@<SCITEGIC>MOL_PROPERTY
VdW
SciTegic.value.DoubleValue
0.312

@<SCITEGIC>MOL_PROPERTY
VdW6
SciTegic.value.DoubleValue
-3.061

@<SCITEGIC>MOL_PROPERTY
VdW12
SciTegic.value.DoubleValue
3.372

@<SCITEGIC>MOL_PROPERTY
Bond
SciTegic.value.DoubleValue
0.059

@<SCITEGIC>MOL_PROPERTY
Angle
SciTegic.value.DoubleValue
2.241

@<SCITEGIC>MOL_PROPERTY
Pdih
SciTegic.value.DoubleValue
3.522

@<SCITEGIC>MOL_PROPERTY
Idih
SciTegic.value.DoubleValue
0.000

@<SCITEGIC>MOL_PROPERTY
Tether
SciTegic.value.DoubleValue
0.000

@<TRIPOS>MOLECULE
guest-6_confgen4.mol2 : confsearch ligand conformer 483
          13          12           1
SMALL
USER_CHARGES
 
@<TRIPOS>ATOM
       1    C1      19.501053   19.051310   23.674523 C.2        1 MOL1         0.6021
       2    O1      18.293359   19.001272   23.797283 O.co2      1 MOL1        -0.6904
       3    O2      20.274187   18.490358   24.425190 O.co2      1 MOL1        -0.6904
       4    C2      20.075239   19.893232   22.537771 C.3        1 MOL1        -0.2102
       5    H1      21.132177   20.096111   22.749929 H          1 MOL1         0.0687
       6    H2      19.557979   20.859972   22.553320 H          1 MOL1         0.0687
       7    C3      19.926048   19.251210   21.134600 C.3        1 MOL1        -0.1974
       8    H3      18.868989   19.014245   20.949137 H          1 MOL1         0.0689
       9    H4      20.224309   19.982280   20.370760 H          1 MOL1         0.0689
      10    C4      20.781455   17.977445   20.974192 C.3        1 MOL1        -0.2987
      11    H5      20.479730   17.206031   21.695101 H          1 MOL1         0.0700
      12    H6      20.668285   17.559987   19.965224 H          1 MOL1         0.0700
      13    H7      21.845375   18.196554   21.133747 H          1 MOL1         0.0700
@<TRIPOS>BOND
    1     1     2    1
    2     1     3    2
    3     1     4    1
    4     4     5    1
    5     4     6    1
    6     4     7    1
    7     7     8    1
    8     7     9    1
    9     7    10    1
   10    10    11    1
   11    10    12    1
   12    10    13    1
@<TRIPOS>SUBSTRUCTURE
       1 MOL1            1 RESIDUE      1      MOL     
@<SCITEGIC>MOL_PROPERTY
VConf Rank
SciTegic.value.IntegerValue
483

@<SCITEGIC>MOL_PROPERTY
Conf_Id
SciTegic.value.IntegerValue
4

@<SCITEGIC>MOL_PROPERTY
Delta U+W
SciTegic.value.DoubleValue
0.281

@<SCITEGIC>MOL_PROPERTY
U+W
SciTegic.value.DoubleValue
-58.051

@<SCITEGIC>MOL_PROPERTY
Grad RMS
SciTegic.value.DoubleValue
0.000000

@<SCITEGIC>MOL_PROPERTY
U
SciTegic.value.DoubleValue
9.781

@<SCITEGIC>MOL_PROPERTY
W
SciTegic.value.DoubleValue
-67.832

@<SCITEGIC>MOL_PROPERTY
W(PB)
SciTegic.value.DoubleValue
-69.535

@<SCITEGIC>MOL_PROPERTY
W(SA)
SciTegic.value.DoubleValue
1.703

@<SCITEGIC>MOL_PROPERTY
Valence
SciTegic.value.DoubleValue
6.123

@<SCITEGIC>MOL_PROPERTY
Coulomb
SciTegic.value.DoubleValue
3.449

@<SCITEGIC>MOL_PROPERTY
VdW
SciTegic.value.DoubleValue
0.209

@<SCITEGIC>MOL_PROPERTY
VdW6
SciTegic.value.DoubleValue
-3.762

@<SCITEGIC>MOL_PROPERTY
VdW12
SciTegic.value.DoubleValue
3.972

@<SCITEGIC>MOL_PROPERTY
Bond
SciTegic.value.DoubleValue
0.078

@<SCITEGIC>MOL_PROPERTY
Angle
SciTegic.value.DoubleValue
2.428

@<SCITEGIC>MOL_PROPERTY
Pdih
SciTegic.value.DoubleValue
3.616

@<SCITEGIC>MOL_PROPERTY
Idih
SciTegic.value.DoubleValue
0.002

@<SCITEGIC>MOL_PROPERTY
Tether
SciTegic.value.DoubleValue
0.000

@<TRIPOS>MOLECULE
guest-6_confgen4.mol2 : confsearch ligand conformer 484
          13          12           1
SMALL
USER_CHARGES
 
@<TRIPOS>ATOM
       1    C1      21.810250   18.739156   21.456919 C.2        1 MOL1         0.6021
       2    O1      22.203754   19.750353   20.910529 O.co2      1 MOL1        -0.6904
       3    O2      22.509212   18.049047   22.171970 O.co2      1 MOL1        -0.6904
       4    C2      20.372961   18.290383   21.204872 C.3        1 MOL1        -0.2102
       5    H1      20.402742   17.223270   20.954336 H          1 MOL1         0.0687
       6    H2      19.991784   18.813163   20.319044 H          1 MOL1         0.0687
       7    C3      19.419118   18.511328   22.406831 C.3        1 MOL1        -0.1974
       8    H3      18.455770   18.027420   22.195490 H          1 MOL1         0.0689
       9    H4      19.831085   18.018488   23.298635 H          1 MOL1         0.0689
      10    C4      19.178042   20.006175   22.702198 C.3        1 MOL1        -0.2987
      11    H5      18.745224   20.513677   21.830131 H          1 MOL1         0.0700
      12    H6      18.484393   20.127123   23.544407 H          1 MOL1         0.0700
      13    H7      20.116677   20.513592   22.961656 H          1 MOL1         0.0700
@<TRIPOS>BOND
    1     1     2    1
    2     1     3    2
    3     1     4    1
    4     4     5    1
    5     4     6    1
    6     4     7    1
    7     7     8    1
    8     7     9    1
    9     7    10    1
   10    10    11    1
   11    10    12    1
   12    10    13    1
@<TRIPOS>SUBSTRUCTURE
       1 MOL1            1 RESIDUE      1      MOL     
@<SCITEGIC>MOL_PROPERTY
VConf Rank
SciTegic.value.IntegerValue
484

@<SCITEGIC>MOL_PROPERTY
Conf_Id
SciTegic.value.IntegerValue
36

@<SCITEGIC>MOL_PROPERTY
Delta U+W
SciTegic.value.DoubleValue
0.272

@<SCITEGIC>MOL_PROPERTY
U+W
SciTegic.value.DoubleValue
-58.060

@<SCITEGIC>MOL_PROPERTY
Grad RMS
SciTegic.value.DoubleValue
0.000000

@<SCITEGIC>MOL_PROPERTY
U
SciTegic.value.DoubleValue
9.781

@<SCITEGIC>MOL_PROPERTY
W
SciTegic.value.DoubleValue
-67.841

@<SCITEGIC>MOL_PROPERTY
W(PB)
SciTegic.value.DoubleValue
-69.537

@<SCITEGIC>MOL_PROPERTY
W(SA)
SciTegic.value.DoubleValue
1.696

@<SCITEGIC>MOL_PROPERTY
Valence
SciTegic.value.DoubleValue
6.123

@<SCITEGIC>MOL_PROPERTY
Coulomb
SciTegic.value.DoubleValue
3.449

@<SCITEGIC>MOL_PROPERTY
VdW
SciTegic.value.DoubleValue
0.209

@<SCITEGIC>MOL_PROPERTY
VdW6
SciTegic.value.DoubleValue
-3.762

@<SCITEGIC>MOL_PROPERTY
VdW12
SciTegic.value.DoubleValue
3.972

@<SCITEGIC>MOL_PROPERTY
Bond
SciTegic.value.DoubleValue
0.078

@<SCITEGIC>MOL_PROPERTY
Angle
SciTegic.value.DoubleValue
2.428

@<SCITEGIC>MOL_PROPERTY
Pdih
SciTegic.value.DoubleValue
3.616

@<SCITEGIC>MOL_PROPERTY
Idih
SciTegic.value.DoubleValue
0.002

@<SCITEGIC>MOL_PROPERTY
Tether
SciTegic.value.DoubleValue
0.000

@<TRIPOS>MOLECULE
guest-6_confgen4.mol2 : confsearch ligand conformer 485
          13          12           1
SMALL
USER_CHARGES
 
@<TRIPOS>ATOM
       1    C1      21.427158   19.525137   23.337416 C.2        1 MOL1         0.6021
       2    O1      20.688578   20.068735   24.135119 O.co2      1 MOL1        -0.6904
       3    O2      22.621571   19.402302   23.519310 O.co2      1 MOL1        -0.6904
       4    C2      20.856551   18.959833   22.035294 C.3        1 MOL1        -0.2102
       5    H1      21.109839   17.893490   22.002191 H          1 MOL1         0.0687
       6    H2      21.390121   19.441550   21.207291 H          1 MOL1         0.0687
       7    C3      19.327513   19.139734   21.846521 C.3        1 MOL1        -0.1974
       8    H3      18.794806   18.658817   22.678806 H          1 MOL1         0.0689
       9    H4      19.075418   20.208785   21.883003 H          1 MOL1         0.0689
      10    C4      18.844361   18.541058   20.510113 C.3        1 MOL1        -0.2987
      11    H5      19.057167   17.464998   20.461848 H          1 MOL1         0.0700
      12    H6      17.761226   18.677821   20.394478 H          1 MOL1         0.0700
      13    H7      19.340082   19.027386   19.659661 H          1 MOL1         0.0700
@<TRIPOS>BOND
    1     1     2    1
    2     1     3    2
    3     1     4    1
    4     4     5    1
    5     4     6    1
    6     4     7    1
    7     7     8    1
    8     7     9    1
    9     7    10    1
   10    10    11    1
   11    10    12    1
   12    10    13    1
@<TRIPOS>SUBSTRUCTURE
       1 MOL1            1 RESIDUE      1      MOL     
@<SCITEGIC>MOL_PROPERTY
VConf Rank
SciTegic.value.IntegerValue
485

@<SCITEGIC>MOL_PROPERTY
Conf_Id
SciTegic.value.IntegerValue
0

@<SCITEGIC>MOL_PROPERTY
Delta U+W
SciTegic.value.DoubleValue
0.000

@<SCITEGIC>MOL_PROPERTY
U+W
SciTegic.value.DoubleValue
-58.332

@<SCITEGIC>MOL_PROPERTY
Grad RMS
SciTegic.value.DoubleValue
0.000000

@<SCITEGIC>MOL_PROPERTY
U
SciTegic.value.DoubleValue
8.390

@<SCITEGIC>MOL_PROPERTY
W
SciTegic.value.DoubleValue
-66.722

@<SCITEGIC>MOL_PROPERTY
W(PB)
SciTegic.value.DoubleValue
-68.455

@<SCITEGIC>MOL_PROPERTY
W(SA)
SciTegic.value.DoubleValue
1.733

@<SCITEGIC>MOL_PROPERTY
Valence
SciTegic.value.DoubleValue
6.333

@<SCITEGIC>MOL_PROPERTY
Coulomb
SciTegic.value.DoubleValue
1.215

@<SCITEGIC>MOL_PROPERTY
VdW
SciTegic.value.DoubleValue
0.842

@<SCITEGIC>MOL_PROPERTY
VdW6
SciTegic.value.DoubleValue
-3.344

@<SCITEGIC>MOL_PROPERTY
VdW12
SciTegic.value.DoubleValue
4.186

@<SCITEGIC>MOL_PROPERTY
Bond
SciTegic.value.DoubleValue
0.091

@<SCITEGIC>MOL_PROPERTY
Angle
SciTegic.value.DoubleValue
2.713

@<SCITEGIC>MOL_PROPERTY
Pdih
SciTegic.value.DoubleValue
3.529

@<SCITEGIC>MOL_PROPERTY
Idih
SciTegic.value.DoubleValue
0.000

@<SCITEGIC>MOL_PROPERTY
Tether
SciTegic.value.DoubleValue
0.000

@<TRIPOS>MOLECULE
guest-6_confgen4.mol2 : confsearch ligand conformer 486
          13          12           1
SMALL
USER_CHARGES
 
@<TRIPOS>ATOM
       1    C1      20.432799   17.311061   20.702404 C.2        1 MOL1         0.6021
       2    O1      21.529417   17.280903   20.180982 O.co2      1 MOL1        -0.6904
       3    O2      19.478122   16.680753   20.294160 O.co2      1 MOL1        -0.6904
       4    C2      20.239292   18.202869   21.924178 C.3        1 MOL1        -0.2102
       5    H1      21.183547   18.227788   22.481655 H          1 MOL1         0.0687
       6    H2      19.491938   17.732853   22.574998 H          1 MOL1         0.0687
       7    C3      19.798380   19.640897   21.558773 C.3        1 MOL1        -0.1974
       8    H3      20.549198   20.097946   20.899076 H          1 MOL1         0.0689
       9    H4      18.857220   19.602923   20.992558 H          1 MOL1         0.0689
      10    C4      19.611659   20.516225   22.814252 C.3        1 MOL1        -0.2987
      11    H5      19.299320   21.531027   22.535179 H          1 MOL1         0.0700
      12    H6      18.843410   20.095024   23.476020 H          1 MOL1         0.0700
      13    H7      20.548372   20.593870   23.381788 H          1 MOL1         0.0700
@<TRIPOS>BOND
    1     1     2    1
    2     1     3    2
    3     1     4    1
    4     4     5    1
    5     4     6    1
    6     4     7    1
    7     7     8    1
    8     7     9    1
    9     7    10    1
   10    10    11    1
   11    10    12    1
   12    10    13    1
@<TRIPOS>SUBSTRUCTURE
       1 MOL1            1 RESIDUE      1      MOL     
@<SCITEGIC>MOL_PROPERTY
VConf Rank
SciTegic.value.IntegerValue
486

@<SCITEGIC>MOL_PROPERTY
Conf_Id
SciTegic.value.IntegerValue
1

@<SCITEGIC>MOL_PROPERTY
Delta U+W
SciTegic.value.DoubleValue
-1.339

@<SCITEGIC>MOL_PROPERTY
U+W
SciTegic.value.DoubleValue
-59.672

@<SCITEGIC>MOL_PROPERTY
Grad RMS
SciTegic.value.DoubleValue
0.000000

@<SCITEGIC>MOL_PROPERTY
U
SciTegic.value.DoubleValue
7.389

@<SCITEGIC>MOL_PROPERTY
W
SciTegic.value.DoubleValue
-67.061

@<SCITEGIC>MOL_PROPERTY
W(PB)
SciTegic.value.DoubleValue
-68.767

@<SCITEGIC>MOL_PROPERTY
W(SA)
SciTegic.value.DoubleValue
1.707

@<SCITEGIC>MOL_PROPERTY
Valence
SciTegic.value.DoubleValue
5.822

@<SCITEGIC>MOL_PROPERTY
Coulomb
SciTegic.value.DoubleValue
1.255

@<SCITEGIC>MOL_PROPERTY
VdW
SciTegic.value.DoubleValue
0.312

@<SCITEGIC>MOL_PROPERTY
VdW6
SciTegic.value.DoubleValue
-3.061

@<SCITEGIC>MOL_PROPERTY
VdW12
SciTegic.value.DoubleValue
3.372

@<SCITEGIC>MOL_PROPERTY
Bond
SciTegic.value.DoubleValue
0.059

@<SCITEGIC>MOL_PROPERTY
Angle
SciTegic.value.DoubleValue
2.241

@<SCITEGIC>MOL_PROPERTY
Pdih
SciTegic.value.DoubleValue
3.522

@<SCITEGIC>MOL_PROPERTY
Idih
SciTegic.value.DoubleValue
0.000

@<SCITEGIC>MOL_PROPERTY
Tether
SciTegic.value.DoubleValue
0.000

@<TRIPOS>MOLECULE
guest-6_confgen4.mol2 : confsearch ligand conformer 487
          13          12           1
SMALL
USER_CHARGES
 
@<TRIPOS>ATOM
       1    C1      21.635935   18.607850   22.890893 C.2        1 MOL1         0.6021
       2    O1      22.635721   19.176165   22.499044 O.co2      1 MOL1        -0.6904
       3    O2      21.382073   18.433304   24.066049 O.co2      1 MOL1        -0.6904
       4    C2      20.667417   18.053502   21.849068 C.3        1 MOL1        -0.2102
       5    H1      20.015587   17.315591   22.332694 H          1 MOL1         0.0687
       6    H2      21.262776   17.510708   21.105220 H          1 MOL1         0.0687
       7    C3      19.814048   19.134443   21.137264 C.3        1 MOL1        -0.1974
       8    H3      20.475528   19.890633   20.691682 H          1 MOL1         0.0689
       9    H4      19.262773   18.669619   20.308464 H          1 MOL1         0.0689
      10    C4      18.810602   19.816422   22.090117 C.3        1 MOL1        -0.2987
      11    H5      19.330945   20.330540   22.909113 H          1 MOL1         0.0700
      12    H6      18.210013   20.560729   21.551233 H          1 MOL1         0.0700
      13    H7      18.124767   19.080500   22.529936 H          1 MOL1         0.0700
@<TRIPOS>BOND
    1     1     2    1
    2     1     3    2
    3     1     4    1
    4     4     5    1
    5     4     6    1
    6     4     7    1
    7     7     8    1
    8     7     9    1
    9     7    10    1
   10    10    11    1
   11    10    12    1
   12    10    13    1
@<TRIPOS>SUBSTRUCTURE
       1 MOL1            1 RESIDUE      1      MOL     
@<SCITEGIC>MOL_PROPERTY
VConf Rank
SciTegic.value.IntegerValue
487

@<SCITEGIC>MOL_PROPERTY
Conf_Id
SciTegic.value.IntegerValue
4

@<SCITEGIC>MOL_PROPERTY
Delta U+W
SciTegic.value.DoubleValue
0.281

@<SCITEGIC>MOL_PROPERTY
U+W
SciTegic.value.DoubleValue
-58.051

@<SCITEGIC>MOL_PROPERTY
Grad RMS
SciTegic.value.DoubleValue
0.000000

@<SCITEGIC>MOL_PROPERTY
U
SciTegic.value.DoubleValue
9.781

@<SCITEGIC>MOL_PROPERTY
W
SciTegic.value.DoubleValue
-67.832

@<SCITEGIC>MOL_PROPERTY
W(PB)
SciTegic.value.DoubleValue
-69.535

@<SCITEGIC>MOL_PROPERTY
W(SA)
SciTegic.value.DoubleValue
1.703

@<SCITEGIC>MOL_PROPERTY
Valence
SciTegic.value.DoubleValue
6.123

@<SCITEGIC>MOL_PROPERTY
Coulomb
SciTegic.value.DoubleValue
3.449

@<SCITEGIC>MOL_PROPERTY
VdW
SciTegic.value.DoubleValue
0.209

@<SCITEGIC>MOL_PROPERTY
VdW6
SciTegic.value.DoubleValue
-3.762

@<SCITEGIC>MOL_PROPERTY
VdW12
SciTegic.value.DoubleValue
3.972

@<SCITEGIC>MOL_PROPERTY
Bond
SciTegic.value.DoubleValue
0.078

@<SCITEGIC>MOL_PROPERTY
Angle
SciTegic.value.DoubleValue
2.428

@<SCITEGIC>MOL_PROPERTY
Pdih
SciTegic.value.DoubleValue
3.616

@<SCITEGIC>MOL_PROPERTY
Idih
SciTegic.value.DoubleValue
0.002

@<SCITEGIC>MOL_PROPERTY
Tether
SciTegic.value.DoubleValue
0.000

@<TRIPOS>MOLECULE
guest-6_confgen4.mol2 : confsearch ligand conformer 488
          13          12           1
SMALL
USER_CHARGES
 
@<TRIPOS>ATOM
       1    C1      20.869589   20.443281   22.680622 C.2        1 MOL1         0.6021
       2    O1      20.194572   21.413145   22.398448 O.co2      1 MOL1        -0.6904
       3    O2      21.434360   20.308077   23.747792 O.co2      1 MOL1        -0.6904
       4    C2      21.048462   19.352377   21.627695 C.3        1 MOL1        -0.2102
       5    H1      22.119274   19.122547   21.573586 H          1 MOL1         0.0687
       6    H2      20.761701   19.757656   20.649531 H          1 MOL1         0.0687
       7    C3      20.256254   18.052257   21.919982 C.3        1 MOL1        -0.1974
       8    H3      20.558590   17.277514   21.202182 H          1 MOL1         0.0689
       9    H4      20.520234   17.677497   22.918876 H          1 MOL1         0.0689
      10    C4      18.730075   18.257335   21.826989 C.3        1 MOL1        -0.2987
      11    H5      18.441761   18.610950   20.828378 H          1 MOL1         0.0700
      12    H6      18.200702   17.315116   22.019556 H          1 MOL1         0.0700
      13    H7      18.385437   18.995424   22.563383 H          1 MOL1         0.0700
@<TRIPOS>BOND
    1     1     2    1
    2     1     3    2
    3     1     4    1
    4     4     5    1
    5     4     6    1
    6     4     7    1
    7     7     8    1
    8     7     9    1
    9     7    10    1
   10    10    11    1
   11    10    12    1
   12    10    13    1
@<TRIPOS>SUBSTRUCTURE
       1 MOL1            1 RESIDUE      1      MOL     
@<SCITEGIC>MOL_PROPERTY
VConf Rank
SciTegic.value.IntegerValue
488

@<SCITEGIC>MOL_PROPERTY
Conf_Id
SciTegic.value.IntegerValue
36

@<SCITEGIC>MOL_PROPERTY
Delta U+W
SciTegic.value.DoubleValue
0.272

@<SCITEGIC>MOL_PROPERTY
U+W
SciTegic.value.DoubleValue
-58.060

@<SCITEGIC>MOL_PROPERTY
Grad RMS
SciTegic.value.DoubleValue
0.000000

@<SCITEGIC>MOL_PROPERTY
U
SciTegic.value.DoubleValue
9.781

@<SCITEGIC>MOL_PROPERTY
W
SciTegic.value.DoubleValue
-67.841

@<SCITEGIC>MOL_PROPERTY
W(PB)
SciTegic.value.DoubleValue
-69.537

@<SCITEGIC>MOL_PROPERTY
W(SA)
SciTegic.value.DoubleValue
1.696

@<SCITEGIC>MOL_PROPERTY
Valence
SciTegic.value.DoubleValue
6.123

@<SCITEGIC>MOL_PROPERTY
Coulomb
SciTegic.value.DoubleValue
3.449

@<SCITEGIC>MOL_PROPERTY
VdW
SciTegic.value.DoubleValue
0.209

@<SCITEGIC>MOL_PROPERTY
VdW6
SciTegic.value.DoubleValue
-3.762

@<SCITEGIC>MOL_PROPERTY
VdW12
SciTegic.value.DoubleValue
3.972

@<SCITEGIC>MOL_PROPERTY
Bond
SciTegic.value.DoubleValue
0.078

@<SCITEGIC>MOL_PROPERTY
Angle
SciTegic.value.DoubleValue
2.428

@<SCITEGIC>MOL_PROPERTY
Pdih
SciTegic.value.DoubleValue
3.616

@<SCITEGIC>MOL_PROPERTY
Idih
SciTegic.value.DoubleValue
0.002

@<SCITEGIC>MOL_PROPERTY
Tether
SciTegic.value.DoubleValue
0.000

@<TRIPOS>MOLECULE
guest-6_confgen4.mol2 : confsearch ligand conformer 489
          13          12           1
SMALL
USER_CHARGES
 
@<TRIPOS>ATOM
       1    C1      18.064779   19.828999   21.652421 C.2        1 MOL1         0.6021
       2    O1      18.265399   20.684891   20.813059 O.co2      1 MOL1        -0.6904
       3    O2      16.975484   19.636714   22.153677 O.co2      1 MOL1        -0.6904
       4    C2      19.216679   18.937229   22.119921 C.3        1 MOL1        -0.2102
       5    H1      18.922324   17.897419   21.934211 H          1 MOL1         0.0687
       6    H2      19.303182   19.056355   23.206504 H          1 MOL1         0.0687
       7    C3      20.588245   19.219081   21.452596 C.3        1 MOL1        -0.1974
       8    H3      20.498674   19.102010   20.363547 H          1 MOL1         0.0689
       9    H4      20.879972   20.262403   21.637341 H          1 MOL1         0.0689
      10    C4      21.685133   18.274762   21.984512 C.3        1 MOL1        -0.2987
      11    H5      21.431443   17.225502   21.783970 H          1 MOL1         0.0700
      12    H6      22.647323   18.489096   21.501286 H          1 MOL1         0.0700
      13    H7      21.815755   18.395184   23.068006 H          1 MOL1         0.0700
@<TRIPOS>BOND
    1     1     2    1
    2     1     3    2
    3     1     4    1
    4     4     5    1
    5     4     6    1
    6     4     7    1
    7     7     8    1
    8     7     9    1
    9     7    10    1
   10    10    11    1
   11    10    12    1
   12    10    13    1
@<TRIPOS>SUBSTRUCTURE
       1 MOL1            1 RESIDUE      1      MOL     
@<SCITEGIC>MOL_PROPERTY
VConf Rank
SciTegic.value.IntegerValue
489

@<SCITEGIC>MOL_PROPERTY
Conf_Id
SciTegic.value.IntegerValue
0

@<SCITEGIC>MOL_PROPERTY
Delta U+W
SciTegic.value.DoubleValue
0.000

@<SCITEGIC>MOL_PROPERTY
U+W
SciTegic.value.DoubleValue
-58.332

@<SCITEGIC>MOL_PROPERTY
Grad RMS
SciTegic.value.DoubleValue
0.000000

@<SCITEGIC>MOL_PROPERTY
U
SciTegic.value.DoubleValue
8.390

@<SCITEGIC>MOL_PROPERTY
W
SciTegic.value.DoubleValue
-66.722

@<SCITEGIC>MOL_PROPERTY
W(PB)
SciTegic.value.DoubleValue
-68.455

@<SCITEGIC>MOL_PROPERTY
W(SA)
SciTegic.value.DoubleValue
1.733

@<SCITEGIC>MOL_PROPERTY
Valence
SciTegic.value.DoubleValue
6.333

@<SCITEGIC>MOL_PROPERTY
Coulomb
SciTegic.value.DoubleValue
1.215

@<SCITEGIC>MOL_PROPERTY
VdW
SciTegic.value.DoubleValue
0.842

@<SCITEGIC>MOL_PROPERTY
VdW6
SciTegic.value.DoubleValue
-3.344

@<SCITEGIC>MOL_PROPERTY
VdW12
SciTegic.value.DoubleValue
4.186

@<SCITEGIC>MOL_PROPERTY
Bond
SciTegic.value.DoubleValue
0.091

@<SCITEGIC>MOL_PROPERTY
Angle
SciTegic.value.DoubleValue
2.713

@<SCITEGIC>MOL_PROPERTY
Pdih
SciTegic.value.DoubleValue
3.529

@<SCITEGIC>MOL_PROPERTY
Idih
SciTegic.value.DoubleValue
0.000

@<SCITEGIC>MOL_PROPERTY
Tether
SciTegic.value.DoubleValue
0.000

@<TRIPOS>MOLECULE
guest-6_confgen4.mol2 : confsearch ligand conformer 490
          13          12           1
SMALL
USER_CHARGES
 
@<TRIPOS>ATOM
       1    C1      21.804211   20.110251   21.974916 C.2        1 MOL1         0.6021
       2    O1      22.069225   20.838765   21.039824 O.co2      1 MOL1        -0.6904
       3    O2      22.641962   19.643716   22.720489 O.co2      1 MOL1        -0.6904
       4    C2      20.342735   19.746602   22.214383 C.3        1 MOL1        -0.2102
       5    H1      19.724163   20.598677   21.907208 H          1 MOL1         0.0687
       6    H2      20.196474   19.613189   23.293191 H          1 MOL1         0.0687
       7    C3      19.905632   18.470172   21.455755 C.3        1 MOL1        -0.1974
       8    H3      20.065811   18.611621   20.377722 H          1 MOL1         0.0689
       9    H4      20.538118   17.625936   21.764057 H          1 MOL1         0.0689
      10    C4      18.424888   18.129952   21.718319 C.3        1 MOL1        -0.2987
      11    H5      18.133864   17.222905   21.172580 H          1 MOL1         0.0700
      12    H6      18.245754   17.954563   22.787293 H          1 MOL1         0.0700
      13    H7      17.769836   18.947790   21.390286 H          1 MOL1         0.0700
@<TRIPOS>BOND
    1     1     2    1
    2     1     3    2
    3     1     4    1
    4     4     5    1
    5     4     6    1
    6     4     7    1
    7     7     8    1
    8     7     9    1
    9     7    10    1
   10    10    11    1
   11    10    12    1
   12    10    13    1
@<TRIPOS>SUBSTRUCTURE
       1 MOL1            1 RESIDUE      1      MOL     
@<SCITEGIC>MOL_PROPERTY
VConf Rank
SciTegic.value.IntegerValue
490

@<SCITEGIC>MOL_PROPERTY
Conf_Id
SciTegic.value.IntegerValue
1

@<SCITEGIC>MOL_PROPERTY
Delta U+W
SciTegic.value.DoubleValue
-1.339

@<SCITEGIC>MOL_PROPERTY
U+W
SciTegic.value.DoubleValue
-59.672

@<SCITEGIC>MOL_PROPERTY
Grad RMS
SciTegic.value.DoubleValue
0.000000

@<SCITEGIC>MOL_PROPERTY
U
SciTegic.value.DoubleValue
7.389

@<SCITEGIC>MOL_PROPERTY
W
SciTegic.value.DoubleValue
-67.061

@<SCITEGIC>MOL_PROPERTY
W(PB)
SciTegic.value.DoubleValue
-68.767

@<SCITEGIC>MOL_PROPERTY
W(SA)
SciTegic.value.DoubleValue
1.707

@<SCITEGIC>MOL_PROPERTY
Valence
SciTegic.value.DoubleValue
5.822

@<SCITEGIC>MOL_PROPERTY
Coulomb
SciTegic.value.DoubleValue
1.255

@<SCITEGIC>MOL_PROPERTY
VdW
SciTegic.value.DoubleValue
0.312

@<SCITEGIC>MOL_PROPERTY
VdW6
SciTegic.value.DoubleValue
-3.061

@<SCITEGIC>MOL_PROPERTY
VdW12
SciTegic.value.DoubleValue
3.372

@<SCITEGIC>MOL_PROPERTY
Bond
SciTegic.value.DoubleValue
0.059

@<SCITEGIC>MOL_PROPERTY
Angle
SciTegic.value.DoubleValue
2.241

@<SCITEGIC>MOL_PROPERTY
Pdih
SciTegic.value.DoubleValue
3.522

@<SCITEGIC>MOL_PROPERTY
Idih
SciTegic.value.DoubleValue
0.000

@<SCITEGIC>MOL_PROPERTY
Tether
SciTegic.value.DoubleValue
0.000

@<TRIPOS>MOLECULE
guest-6_confgen4.mol2 : confsearch ligand conformer 491
          13          12           1
SMALL
USER_CHARGES
 
@<TRIPOS>ATOM
       1    C1      21.151592   18.761363   23.451214 C.2        1 MOL1         0.6021
       2    O1      20.566195   18.714239   24.514787 O.co2      1 MOL1        -0.6904
       3    O2      22.105452   18.059480   23.180262 O.co2      1 MOL1        -0.6904
       4    C2      20.684331   19.781972   22.416442 C.3        1 MOL1        -0.2102
       5    H1      21.481714   19.922334   21.676330 H          1 MOL1         0.0687
       6    H2      20.561255   20.740363   22.934830 H          1 MOL1         0.0687
       7    C3      19.358136   19.405286   21.707463 C.3        1 MOL1        -0.1974
       8    H3      18.576934   19.226610   22.459606 H          1 MOL1         0.0689
       9    H4      19.021457   20.255456   21.098585 H          1 MOL1         0.0689
      10    C4      19.504105   18.164158   20.802906 C.3        1 MOL1        -0.2987
      11    H5      19.797521   17.282080   21.387434 H          1 MOL1         0.0700
      12    H6      18.554238   17.936884   20.301712 H          1 MOL1         0.0700
      13    H7      20.265254   18.329784   20.029206 H          1 MOL1         0.0700
@<TRIPOS>BOND
    1     1     2    1
    2     1     3    2
    3     1     4    1
    4     4     5    1
    5     4     6    1
    6     4     7    1
    7     7     8    1
    8     7     9    1
    9     7    10    1
   10    10    11    1
   11    10    12    1
   12    10    13    1
@<TRIPOS>SUBSTRUCTURE
       1 MOL1            1 RESIDUE      1      MOL     
@<SCITEGIC>MOL_PROPERTY
VConf Rank
SciTegic.value.IntegerValue
491

@<SCITEGIC>MOL_PROPERTY
Conf_Id
SciTegic.value.IntegerValue
4

@<SCITEGIC>MOL_PROPERTY
Delta U+W
SciTegic.value.DoubleValue
0.281

@<SCITEGIC>MOL_PROPERTY
U+W
SciTegic.value.DoubleValue
-58.051

@<SCITEGIC>MOL_PROPERTY
Grad RMS
SciTegic.value.DoubleValue
0.000000

@<SCITEGIC>MOL_PROPERTY
U
SciTegic.value.DoubleValue
9.781

@<SCITEGIC>MOL_PROPERTY
W
SciTegic.value.DoubleValue
-67.832

@<SCITEGIC>MOL_PROPERTY
W(PB)
SciTegic.value.DoubleValue
-69.535

@<SCITEGIC>MOL_PROPERTY
W(SA)
SciTegic.value.DoubleValue
1.703

@<SCITEGIC>MOL_PROPERTY
Valence
SciTegic.value.DoubleValue
6.123

@<SCITEGIC>MOL_PROPERTY
Coulomb
SciTegic.value.DoubleValue
3.449

@<SCITEGIC>MOL_PROPERTY
VdW
SciTegic.value.DoubleValue
0.209

@<SCITEGIC>MOL_PROPERTY
VdW6
SciTegic.value.DoubleValue
-3.762

@<SCITEGIC>MOL_PROPERTY
VdW12
SciTegic.value.DoubleValue
3.972

@<SCITEGIC>MOL_PROPERTY
Bond
SciTegic.value.DoubleValue
0.078

@<SCITEGIC>MOL_PROPERTY
Angle
SciTegic.value.DoubleValue
2.428

@<SCITEGIC>MOL_PROPERTY
Pdih
SciTegic.value.DoubleValue
3.616

@<SCITEGIC>MOL_PROPERTY
Idih
SciTegic.value.DoubleValue
0.002

@<SCITEGIC>MOL_PROPERTY
Tether
SciTegic.value.DoubleValue
0.000

@<TRIPOS>MOLECULE
guest-6_confgen4.mol2 : confsearch ligand conformer 492
          13          12           1
SMALL
USER_CHARGES
 
@<TRIPOS>ATOM
       1    C1      21.546903   19.344797   20.984693 C.2        1 MOL1         0.6021
       2    O1      22.307794   20.060414   21.605050 O.co2      1 MOL1        -0.6904
       3    O2      21.917760   18.462665   20.236091 O.co2      1 MOL1        -0.6904
       4    C2      20.046147   19.587966   21.123700 C.3        1 MOL1        -0.2102
       5    H1      19.623950   19.613665   20.112030 H          1 MOL1         0.0687
       6    H2      19.890105   20.583383   21.557385 H          1 MOL1         0.0687
       7    C3      19.304946   18.517068   21.964613 C.3        1 MOL1        -0.1974
       8    H3      18.221978   18.684204   21.886403 H          1 MOL1         0.0689
       9    H4      19.501573   17.520018   21.546104 H          1 MOL1         0.0689
      10    C4      19.713393   18.547633   23.451947 C.3        1 MOL1        -0.2987
      11    H5      19.504445   19.529664   23.896185 H          1 MOL1         0.0700
      12    H6      19.156997   17.791914   24.021516 H          1 MOL1         0.0700
      13    H7      20.785018   18.339784   23.571299 H          1 MOL1         0.0700
@<TRIPOS>BOND
    1     1     2    1
    2     1     3    2
    3     1     4    1
    4     4     5    1
    5     4     6    1
    6     4     7    1
    7     7     8    1
    8     7     9    1
    9     7    10    1
   10    10    11    1
   11    10    12    1
   12    10    13    1
@<TRIPOS>SUBSTRUCTURE
       1 MOL1            1 RESIDUE      1      MOL     
@<SCITEGIC>MOL_PROPERTY
VConf Rank
SciTegic.value.IntegerValue
492

@<SCITEGIC>MOL_PROPERTY
Conf_Id
SciTegic.value.IntegerValue
36

@<SCITEGIC>MOL_PROPERTY
Delta U+W
SciTegic.value.DoubleValue
0.272

@<SCITEGIC>MOL_PROPERTY
U+W
SciTegic.value.DoubleValue
-58.060

@<SCITEGIC>MOL_PROPERTY
Grad RMS
SciTegic.value.DoubleValue
0.000000

@<SCITEGIC>MOL_PROPERTY
U
SciTegic.value.DoubleValue
9.781

@<SCITEGIC>MOL_PROPERTY
W
SciTegic.value.DoubleValue
-67.841

@<SCITEGIC>MOL_PROPERTY
W(PB)
SciTegic.value.DoubleValue
-69.537

@<SCITEGIC>MOL_PROPERTY
W(SA)
SciTegic.value.DoubleValue
1.696

@<SCITEGIC>MOL_PROPERTY
Valence
SciTegic.value.DoubleValue
6.123

@<SCITEGIC>MOL_PROPERTY
Coulomb
SciTegic.value.DoubleValue
3.449

@<SCITEGIC>MOL_PROPERTY
VdW
SciTegic.value.DoubleValue
0.209

@<SCITEGIC>MOL_PROPERTY
VdW6
SciTegic.value.DoubleValue
-3.762

@<SCITEGIC>MOL_PROPERTY
VdW12
SciTegic.value.DoubleValue
3.972

@<SCITEGIC>MOL_PROPERTY
Bond
SciTegic.value.DoubleValue
0.078

@<SCITEGIC>MOL_PROPERTY
Angle
SciTegic.value.DoubleValue
2.428

@<SCITEGIC>MOL_PROPERTY
Pdih
SciTegic.value.DoubleValue
3.616

@<SCITEGIC>MOL_PROPERTY
Idih
SciTegic.value.DoubleValue
0.002

@<SCITEGIC>MOL_PROPERTY
Tether
SciTegic.value.DoubleValue
0.000

@<TRIPOS>MOLECULE
guest-6_confgen4.mol2 : confsearch ligand conformer 493
          13          12           1
SMALL
USER_CHARGES
 
@<TRIPOS>ATOM
       1    C1      20.446200   21.089239   21.740865 C.2        1 MOL1         0.6021
       2    O1      19.428612   21.533592   22.235227 O.co2      1 MOL1        -0.6904
       3    O2      21.358239   21.794116   21.358595 O.co2      1 MOL1        -0.6904
       4    C2      20.615876   19.577410   21.578798 C.3        1 MOL1        -0.2102
       5    H1      21.529733   19.291083   22.112858 H          1 MOL1         0.0687
       6    H2      20.791537   19.379555   20.514686 H          1 MOL1         0.0687
       7    C3      19.426350   18.717687   22.080655 C.3        1 MOL1        -0.1974
       8    H3      19.250129   18.919611   23.146454 H          1 MOL1         0.0689
       9    H4      18.510999   19.008244   21.546367 H          1 MOL1         0.0689
      10    C4      19.686475   17.211461   21.877055 C.3        1 MOL1        -0.2987
      11    H5      20.580223   16.889162   22.427383 H          1 MOL1         0.0700
      12    H6      18.834806   16.619956   22.237664 H          1 MOL1         0.0700
      13    H7      19.835211   16.978526   20.814444 H          1 MOL1         0.0700
@<TRIPOS>BOND
    1     1     2    1
    2     1     3    2
    3     1     4    1
    4     4     5    1
    5     4     6    1
    6     4     7    1
    7     7     8    1
    8     7     9    1
    9     7    10    1
   10    10    11    1
   11    10    12    1
   12    10    13    1
@<TRIPOS>SUBSTRUCTURE
       1 MOL1            1 RESIDUE      1      MOL     
@<SCITEGIC>MOL_PROPERTY
VConf Rank
SciTegic.value.IntegerValue
493

@<SCITEGIC>MOL_PROPERTY
Conf_Id
SciTegic.value.IntegerValue
0

@<SCITEGIC>MOL_PROPERTY
Delta U+W
SciTegic.value.DoubleValue
0.000

@<SCITEGIC>MOL_PROPERTY
U+W
SciTegic.value.DoubleValue
-58.332

@<SCITEGIC>MOL_PROPERTY
Grad RMS
SciTegic.value.DoubleValue
0.000000

@<SCITEGIC>MOL_PROPERTY
U
SciTegic.value.DoubleValue
8.390

@<SCITEGIC>MOL_PROPERTY
W
SciTegic.value.DoubleValue
-66.722

@<SCITEGIC>MOL_PROPERTY
W(PB)
SciTegic.value.DoubleValue
-68.455

@<SCITEGIC>MOL_PROPERTY
W(SA)
SciTegic.value.DoubleValue
1.733

@<SCITEGIC>MOL_PROPERTY
Valence
SciTegic.value.DoubleValue
6.333

@<SCITEGIC>MOL_PROPERTY
Coulomb
SciTegic.value.DoubleValue
1.215

@<SCITEGIC>MOL_PROPERTY
VdW
SciTegic.value.DoubleValue
0.842

@<SCITEGIC>MOL_PROPERTY
VdW6
SciTegic.value.DoubleValue
-3.344

@<SCITEGIC>MOL_PROPERTY
VdW12
SciTegic.value.DoubleValue
4.186

@<SCITEGIC>MOL_PROPERTY
Bond
SciTegic.value.DoubleValue
0.091

@<SCITEGIC>MOL_PROPERTY
Angle
SciTegic.value.DoubleValue
2.713

@<SCITEGIC>MOL_PROPERTY
Pdih
SciTegic.value.DoubleValue
3.529

@<SCITEGIC>MOL_PROPERTY
Idih
SciTegic.value.DoubleValue
0.000

@<SCITEGIC>MOL_PROPERTY
Tether
SciTegic.value.DoubleValue
0.000

@<TRIPOS>MOLECULE
guest-6_confgen4.mol2 : confsearch ligand conformer 494
          13          12           1
SMALL
USER_CHARGES
 
@<TRIPOS>ATOM
       1    C1      20.061279   18.612009   19.765052 C.2        1 MOL1         0.6021
       2    O1      19.438029   17.635464   19.399978 O.co2      1 MOL1        -0.6904
       3    O2      21.009260   19.068487   19.158158 O.co2      1 MOL1        -0.6904
       4    C2      19.642818   19.290230   21.065208 C.3        1 MOL1        -0.2102
       5    H1      18.556767   19.181154   21.172980 H          1 MOL1         0.0687
       6    H2      19.852481   20.362917   20.973548 H          1 MOL1         0.0687
       7    C3      20.362158   18.711170   22.307419 C.3        1 MOL1        -0.1974
       8    H3      20.153141   17.634899   22.383405 H          1 MOL1         0.0689
       9    H4      21.449075   18.817001   22.183992 H          1 MOL1         0.0689
      10    C4      19.917746   19.417109   23.604122 C.3        1 MOL1        -0.2987
      11    H5      20.438056   18.993294   24.472983 H          1 MOL1         0.0700
      12    H6      20.143862   20.490806   23.564112 H          1 MOL1         0.0700
      13    H7      18.838003   19.299599   23.765065 H          1 MOL1         0.0700
@<TRIPOS>BOND
    1     1     2    1
    2     1     3    2
    3     1     4    1
    4     4     5    1
    5     4     6    1
    6     4     7    1
    7     7     8    1
    8     7     9    1
    9     7    10    1
   10    10    11    1
   11    10    12    1
   12    10    13    1
@<TRIPOS>SUBSTRUCTURE
       1 MOL1            1 RESIDUE      1      MOL     
@<SCITEGIC>MOL_PROPERTY
VConf Rank
SciTegic.value.IntegerValue
494

@<SCITEGIC>MOL_PROPERTY
Conf_Id
SciTegic.value.IntegerValue
1

@<SCITEGIC>MOL_PROPERTY
Delta U+W
SciTegic.value.DoubleValue
-1.339

@<SCITEGIC>MOL_PROPERTY
U+W
SciTegic.value.DoubleValue
-59.672

@<SCITEGIC>MOL_PROPERTY
Grad RMS
SciTegic.value.DoubleValue
0.000000

@<SCITEGIC>MOL_PROPERTY
U
SciTegic.value.DoubleValue
7.389

@<SCITEGIC>MOL_PROPERTY
W
SciTegic.value.DoubleValue
-67.061

@<SCITEGIC>MOL_PROPERTY
W(PB)
SciTegic.value.DoubleValue
-68.767

@<SCITEGIC>MOL_PROPERTY
W(SA)
SciTegic.value.DoubleValue
1.707

@<SCITEGIC>MOL_PROPERTY
Valence
SciTegic.value.DoubleValue
5.822

@<SCITEGIC>MOL_PROPERTY
Coulomb
SciTegic.value.DoubleValue
1.255

@<SCITEGIC>MOL_PROPERTY
VdW
SciTegic.value.DoubleValue
0.312

@<SCITEGIC>MOL_PROPERTY
VdW6
SciTegic.value.DoubleValue
-3.061

@<SCITEGIC>MOL_PROPERTY
VdW12
SciTegic.value.DoubleValue
3.372

@<SCITEGIC>MOL_PROPERTY
Bond
SciTegic.value.DoubleValue
0.059

@<SCITEGIC>MOL_PROPERTY
Angle
SciTegic.value.DoubleValue
2.241

@<SCITEGIC>MOL_PROPERTY
Pdih
SciTegic.value.DoubleValue
3.522

@<SCITEGIC>MOL_PROPERTY
Idih
SciTegic.value.DoubleValue
0.000

@<SCITEGIC>MOL_PROPERTY
Tether
SciTegic.value.DoubleValue
0.000

@<TRIPOS>MOLECULE
guest-6_confgen4.mol2 : confsearch ligand conformer 495
          13          12           1
SMALL
USER_CHARGES
 
@<TRIPOS>ATOM
       1    C1      20.699738   19.002614   23.693887 C.2        1 MOL1         0.6021
       2    O1      20.839621   17.922299   24.231895 O.co2      1 MOL1        -0.6904
       3    O2      21.469773   19.930173   23.844169 O.co2      1 MOL1        -0.6904
       4    C2      19.471857   19.214359   22.811731 C.3        1 MOL1        -0.2102
       5    H1      19.321548   20.291856   22.671394 H          1 MOL1         0.0687
       6    H2      18.602283   18.843077   23.367049 H          1 MOL1         0.0687
       7    C3      19.547876   18.502366   21.436731 C.3        1 MOL1        -0.1974
       8    H3      19.739758   17.430762   21.587628 H          1 MOL1         0.0689
       9    H4      18.573049   18.581027   20.936332 H          1 MOL1         0.0689
      10    C4      20.634435   19.102277   20.520529 C.3        1 MOL1        -0.2987
      11    H5      21.630726   19.000657   20.970979 H          1 MOL1         0.0700
      12    H6      20.648378   18.589534   19.549964 H          1 MOL1         0.0700
      13    H7      20.449139   20.169009   20.338486 H          1 MOL1         0.0700
@<TRIPOS>BOND
    1     1     2    1
    2     1     3    2
    3     1     4    1
    4     4     5    1
    5     4     6    1
    6     4     7    1
    7     7     8    1
    8     7     9    1
    9     7    10    1
   10    10    11    1
   11    10    12    1
   12    10    13    1
@<TRIPOS>SUBSTRUCTURE
       1 MOL1            1 RESIDUE      1      MOL     
@<SCITEGIC>MOL_PROPERTY
VConf Rank
SciTegic.value.IntegerValue
495

@<SCITEGIC>MOL_PROPERTY
Conf_Id
SciTegic.value.IntegerValue
4

@<SCITEGIC>MOL_PROPERTY
Delta U+W
SciTegic.value.DoubleValue
0.281

@<SCITEGIC>MOL_PROPERTY
U+W
SciTegic.value.DoubleValue
-58.051

@<SCITEGIC>MOL_PROPERTY
Grad RMS
SciTegic.value.DoubleValue
0.000000

@<SCITEGIC>MOL_PROPERTY
U
SciTegic.value.DoubleValue
9.781

@<SCITEGIC>MOL_PROPERTY
W
SciTegic.value.DoubleValue
-67.832

@<SCITEGIC>MOL_PROPERTY
W(PB)
SciTegic.value.DoubleValue
-69.535

@<SCITEGIC>MOL_PROPERTY
W(SA)
SciTegic.value.DoubleValue
1.703

@<SCITEGIC>MOL_PROPERTY
Valence
SciTegic.value.DoubleValue
6.123

@<SCITEGIC>MOL_PROPERTY
Coulomb
SciTegic.value.DoubleValue
3.449

@<SCITEGIC>MOL_PROPERTY
VdW
SciTegic.value.DoubleValue
0.209

@<SCITEGIC>MOL_PROPERTY
VdW6
SciTegic.value.DoubleValue
-3.762

@<SCITEGIC>MOL_PROPERTY
VdW12
SciTegic.value.DoubleValue
3.972

@<SCITEGIC>MOL_PROPERTY
Bond
SciTegic.value.DoubleValue
0.078

@<SCITEGIC>MOL_PROPERTY
Angle
SciTegic.value.DoubleValue
2.428

@<SCITEGIC>MOL_PROPERTY
Pdih
SciTegic.value.DoubleValue
3.616

@<SCITEGIC>MOL_PROPERTY
Idih
SciTegic.value.DoubleValue
0.002

@<SCITEGIC>MOL_PROPERTY
Tether
SciTegic.value.DoubleValue
0.000

@<TRIPOS>MOLECULE
guest-6_confgen4.mol2 : confsearch ligand conformer 496
          13          12           1
SMALL
USER_CHARGES
 
@<TRIPOS>ATOM
       1    C1      19.331521   20.471291   22.574392 C.2        1 MOL1         0.6021
       2    O1      19.318365   21.293547   21.680172 O.co2      1 MOL1        -0.6904
       3    O2      18.420181   20.326939   23.364783 O.co2      1 MOL1        -0.6904
       4    C2      20.572068   19.596613   22.737811 C.3        1 MOL1        -0.2102
       5    H1      20.852775   19.621958   23.797503 H          1 MOL1         0.0687
       6    H2      21.399383   20.052382   22.180037 H          1 MOL1         0.0687
       7    C3      20.374247   18.125084   22.291936 C.3        1 MOL1        -0.1974
       8    H3      21.257081   17.539270   22.582278 H          1 MOL1         0.0689
       9    H4      19.517553   17.690946   22.826277 H          1 MOL1         0.0689
      10    C4      20.160207   17.993077   20.769869 C.3        1 MOL1        -0.2987
      11    H5      21.015999   18.401302   20.216369 H          1 MOL1         0.0700
      12    H6      20.043383   16.939205   20.485611 H          1 MOL1         0.0700
      13    H7      19.258247   18.531562   20.449980 H          1 MOL1         0.0700
@<TRIPOS>BOND
    1     1     2    1
    2     1     3    2
    3     1     4    1
    4     4     5    1
    5     4     6    1
    6     4     7    1
    7     7     8    1
    8     7     9    1
    9     7    10    1
   10    10    11    1
   11    10    12    1
   12    10    13    1
@<TRIPOS>SUBSTRUCTURE
       1 MOL1            1 RESIDUE      1      MOL     
@<SCITEGIC>MOL_PROPERTY
VConf Rank
SciTegic.value.IntegerValue
496

@<SCITEGIC>MOL_PROPERTY
Conf_Id
SciTegic.value.IntegerValue
36

@<SCITEGIC>MOL_PROPERTY
Delta U+W
SciTegic.value.DoubleValue
0.272

@<SCITEGIC>MOL_PROPERTY
U+W
SciTegic.value.DoubleValue
-58.060

@<SCITEGIC>MOL_PROPERTY
Grad RMS
SciTegic.value.DoubleValue
0.000000

@<SCITEGIC>MOL_PROPERTY
U
SciTegic.value.DoubleValue
9.781

@<SCITEGIC>MOL_PROPERTY
W
SciTegic.value.DoubleValue
-67.841

@<SCITEGIC>MOL_PROPERTY
W(PB)
SciTegic.value.DoubleValue
-69.537

@<SCITEGIC>MOL_PROPERTY
W(SA)
SciTegic.value.DoubleValue
1.696

@<SCITEGIC>MOL_PROPERTY
Valence
SciTegic.value.DoubleValue
6.123

@<SCITEGIC>MOL_PROPERTY
Coulomb
SciTegic.value.DoubleValue
3.449

@<SCITEGIC>MOL_PROPERTY
VdW
SciTegic.value.DoubleValue
0.209

@<SCITEGIC>MOL_PROPERTY
VdW6
SciTegic.value.DoubleValue
-3.762

@<SCITEGIC>MOL_PROPERTY
VdW12
SciTegic.value.DoubleValue
3.972

@<SCITEGIC>MOL_PROPERTY
Bond
SciTegic.value.DoubleValue
0.078

@<SCITEGIC>MOL_PROPERTY
Angle
SciTegic.value.DoubleValue
2.428

@<SCITEGIC>MOL_PROPERTY
Pdih
SciTegic.value.DoubleValue
3.616

@<SCITEGIC>MOL_PROPERTY
Idih
SciTegic.value.DoubleValue
0.002

@<SCITEGIC>MOL_PROPERTY
Tether
SciTegic.value.DoubleValue
0.000

@<TRIPOS>MOLECULE
guest-6_confgen4.mol2 : confsearch ligand conformer 497
          13          12           1
SMALL
USER_CHARGES
 
@<TRIPOS>ATOM
       1    C1      18.039290   18.397023   22.320291 C.2        1 MOL1         0.6021
       2    O1      17.483379   19.477797   22.335105 O.co2      1 MOL1        -0.6904
       3    O2      17.462948   17.353622   22.552544 O.co2      1 MOL1        -0.6904
       4    C2      19.532619   18.314086   21.998153 C.3        1 MOL1        -0.2102
       5    H1      19.644848   17.649808   21.133008 H          1 MOL1         0.0687
       6    H2      20.023878   17.821674   22.845816 H          1 MOL1         0.0687
       7    C3      20.226243   19.670901   21.708508 C.3        1 MOL1        -0.1974
       8    H3      19.730610   20.164039   20.860618 H          1 MOL1         0.0689
       9    H4      20.110041   20.336152   22.575510 H          1 MOL1         0.0689
      10    C4      21.725075   19.488819   21.395163 C.3        1 MOL1        -0.2987
      11    H5      21.867356   18.851827   20.512259 H          1 MOL1         0.0700
      12    H6      22.198288   20.458624   21.193163 H          1 MOL1         0.0700
      13    H7      22.249816   19.025270   22.240913 H          1 MOL1         0.0700
@<TRIPOS>BOND
    1     1     2    1
    2     1     3    2
    3     1     4    1
    4     4     5    1
    5     4     6    1
    6     4     7    1
    7     7     8    1
    8     7     9    1
    9     7    10    1
   10    10    11    1
   11    10    12    1
   12    10    13    1
@<TRIPOS>SUBSTRUCTURE
       1 MOL1            1 RESIDUE      1      MOL     
@<SCITEGIC>MOL_PROPERTY
VConf Rank
SciTegic.value.IntegerValue
497

@<SCITEGIC>MOL_PROPERTY
Conf_Id
SciTegic.value.IntegerValue
0

@<SCITEGIC>MOL_PROPERTY
Delta U+W
SciTegic.value.DoubleValue
0.000

@<SCITEGIC>MOL_PROPERTY
U+W
SciTegic.value.DoubleValue
-58.332

@<SCITEGIC>MOL_PROPERTY
Grad RMS
SciTegic.value.DoubleValue
0.000000

@<SCITEGIC>MOL_PROPERTY
U
SciTegic.value.DoubleValue
8.390

@<SCITEGIC>MOL_PROPERTY
W
SciTegic.value.DoubleValue
-66.722

@<SCITEGIC>MOL_PROPERTY
W(PB)
SciTegic.value.DoubleValue
-68.455

@<SCITEGIC>MOL_PROPERTY
W(SA)
SciTegic.value.DoubleValue
1.733

@<SCITEGIC>MOL_PROPERTY
Valence
SciTegic.value.DoubleValue
6.333

@<SCITEGIC>MOL_PROPERTY
Coulomb
SciTegic.value.DoubleValue
1.215

@<SCITEGIC>MOL_PROPERTY
VdW
SciTegic.value.DoubleValue
0.842

@<SCITEGIC>MOL_PROPERTY
VdW6
SciTegic.value.DoubleValue
-3.344

@<SCITEGIC>MOL_PROPERTY
VdW12
SciTegic.value.DoubleValue
4.186

@<SCITEGIC>MOL_PROPERTY
Bond
SciTegic.value.DoubleValue
0.091

@<SCITEGIC>MOL_PROPERTY
Angle
SciTegic.value.DoubleValue
2.713

@<SCITEGIC>MOL_PROPERTY
Pdih
SciTegic.value.DoubleValue
3.529

@<SCITEGIC>MOL_PROPERTY
Idih
SciTegic.value.DoubleValue
0.000

@<SCITEGIC>MOL_PROPERTY
Tether
SciTegic.value.DoubleValue
0.000

@<TRIPOS>MOLECULE
guest-6_confgen4.mol2 : confsearch ligand conformer 498
          13          12           1
SMALL
USER_CHARGES
 
@<TRIPOS>ATOM
       1    C1      21.535162   17.604738   21.942843 C.2        1 MOL1         0.6021
       2    O1      21.722265   17.104899   23.033949 O.co2      1 MOL1        -0.6904
       3    O2      22.387346   17.670406   21.079807 O.co2      1 MOL1        -0.6904
       4    C2      20.162044   18.198667   21.647386 C.3        1 MOL1        -0.2102
       5    H1      19.411563   17.609059   22.187904 H          1 MOL1         0.0687
       6    H2      19.960022   18.075390   20.576401 H          1 MOL1         0.0687
       7    C3      20.051850   19.691358   22.041824 C.3        1 MOL1        -0.1974
       8    H3      20.265788   19.803880   23.113920 H          1 MOL1         0.0689
       9    H4      20.814255   20.270304   21.502025 H          1 MOL1         0.0689
      10    C4      18.653378   20.261364   21.730926 C.3        1 MOL1        -0.2987
      11    H5      18.594727   21.319611   22.017167 H          1 MOL1         0.0700
      12    H6      18.428465   20.187219   20.658791 H          1 MOL1         0.0700
      13    H7      17.875810   19.717241   22.283081 H          1 MOL1         0.0700
@<TRIPOS>BOND
    1     1     2    1
    2     1     3    2
    3     1     4    1
    4     4     5    1
    5     4     6    1
    6     4     7    1
    7     7     8    1
    8     7     9    1
    9     7    10    1
   10    10    11    1
   11    10    12    1
   12    10    13    1
@<TRIPOS>SUBSTRUCTURE
       1 MOL1            1 RESIDUE      1      MOL     
@<SCITEGIC>MOL_PROPERTY
VConf Rank
SciTegic.value.IntegerValue
498

@<SCITEGIC>MOL_PROPERTY
Conf_Id
SciTegic.value.IntegerValue
1

@<SCITEGIC>MOL_PROPERTY
Delta U+W
SciTegic.value.DoubleValue
-1.339

@<SCITEGIC>MOL_PROPERTY
U+W
SciTegic.value.DoubleValue
-59.672

@<SCITEGIC>MOL_PROPERTY
Grad RMS
SciTegic.value.DoubleValue
0.000000

@<SCITEGIC>MOL_PROPERTY
U
SciTegic.value.DoubleValue
7.389

@<SCITEGIC>MOL_PROPERTY
W
SciTegic.value.DoubleValue
-67.061

@<SCITEGIC>MOL_PROPERTY
W(PB)
SciTegic.value.DoubleValue
-68.767

@<SCITEGIC>MOL_PROPERTY
W(SA)
SciTegic.value.DoubleValue
1.707

@<SCITEGIC>MOL_PROPERTY
Valence
SciTegic.value.DoubleValue
5.822

@<SCITEGIC>MOL_PROPERTY
Coulomb
SciTegic.value.DoubleValue
1.255

@<SCITEGIC>MOL_PROPERTY
VdW
SciTegic.value.DoubleValue
0.312

@<SCITEGIC>MOL_PROPERTY
VdW6
SciTegic.value.DoubleValue
-3.061

@<SCITEGIC>MOL_PROPERTY
VdW12
SciTegic.value.DoubleValue
3.372

@<SCITEGIC>MOL_PROPERTY
Bond
SciTegic.value.DoubleValue
0.059

@<SCITEGIC>MOL_PROPERTY
Angle
SciTegic.value.DoubleValue
2.241

@<SCITEGIC>MOL_PROPERTY
Pdih
SciTegic.value.DoubleValue
3.522

@<SCITEGIC>MOL_PROPERTY
Idih
SciTegic.value.DoubleValue
0.000

@<SCITEGIC>MOL_PROPERTY
Tether
SciTegic.value.DoubleValue
0.000

@<TRIPOS>MOLECULE
guest-6_confgen4.mol2 : confsearch ligand conformer 499
          13          12           1
SMALL
USER_CHARGES
 
@<TRIPOS>ATOM
       1    C1      21.290413   19.298892   20.676590 C.2        1 MOL1         0.6021
       2    O1      21.931513   20.326099   20.776268 O.co2      1 MOL1        -0.6904
       3    O2      21.760227   18.252600   20.276024 O.co2      1 MOL1        -0.6904
       4    C2      19.808224   19.336705   21.040477 C.3        1 MOL1        -0.2102
       5    H1      19.316618   18.458735   20.603695 H          1 MOL1         0.0687
       6    H2      19.374193   20.217812   20.552980 H          1 MOL1         0.0687
       7    C3      19.530303   19.401284   22.564265 C.3        1 MOL1        -0.1974
       8    H3      20.060738   20.260240   22.998726 H          1 MOL1         0.0689
       9    H4      18.458214   19.576997   22.727432 H          1 MOL1         0.0689
      10    C4      19.945971   18.108067   23.295523 C.3        1 MOL1        -0.2987
      11    H5      21.023475   17.924234   23.190558 H          1 MOL1         0.0700
      12    H6      19.717989   18.179190   24.366999 H          1 MOL1         0.0700
      13    H7      19.410306   17.239154   22.891239 H          1 MOL1         0.0700
@<TRIPOS>BOND
    1     1     2    1
    2     1     3    2
    3     1     4    1
    4     4     5    1
    5     4     6    1
    6     4     7    1
    7     7     8    1
    8     7     9    1
    9     7    10    1
   10    10    11    1
   11    10    12    1
   12    10    13    1
@<TRIPOS>SUBSTRUCTURE
       1 MOL1            1 RESIDUE      1      MOL     
@<SCITEGIC>MOL_PROPERTY
VConf Rank
SciTegic.value.IntegerValue
499

@<SCITEGIC>MOL_PROPERTY
Conf_Id
SciTegic.value.IntegerValue
4

@<SCITEGIC>MOL_PROPERTY
Delta U+W
SciTegic.value.DoubleValue
0.281

@<SCITEGIC>MOL_PROPERTY
U+W
SciTegic.value.DoubleValue
-58.051

@<SCITEGIC>MOL_PROPERTY
Grad RMS
SciTegic.value.DoubleValue
0.000000

@<SCITEGIC>MOL_PROPERTY
U
SciTegic.value.DoubleValue
9.781

@<SCITEGIC>MOL_PROPERTY
W
SciTegic.value.DoubleValue
-67.832

@<SCITEGIC>MOL_PROPERTY
W(PB)
SciTegic.value.DoubleValue
-69.535

@<SCITEGIC>MOL_PROPERTY
W(SA)
SciTegic.value.DoubleValue
1.703

@<SCITEGIC>MOL_PROPERTY
Valence
SciTegic.value.DoubleValue
6.123

@<SCITEGIC>MOL_PROPERTY
Coulomb
SciTegic.value.DoubleValue
3.449

@<SCITEGIC>MOL_PROPERTY
VdW
SciTegic.value.DoubleValue
0.209

@<SCITEGIC>MOL_PROPERTY
VdW6
SciTegic.value.DoubleValue
-3.762

@<SCITEGIC>MOL_PROPERTY
VdW12
SciTegic.value.DoubleValue
3.972

@<SCITEGIC>MOL_PROPERTY
Bond
SciTegic.value.DoubleValue
0.078

@<SCITEGIC>MOL_PROPERTY
Angle
SciTegic.value.DoubleValue
2.428

@<SCITEGIC>MOL_PROPERTY
Pdih
SciTegic.value.DoubleValue
3.616

@<SCITEGIC>MOL_PROPERTY
Idih
SciTegic.value.DoubleValue
0.002

@<SCITEGIC>MOL_PROPERTY
Tether
SciTegic.value.DoubleValue
0.000

@<TRIPOS>MOLECULE
guest-6_confgen4.mol2 : confsearch ligand conformer 500
          13          12           1
SMALL
USER_CHARGES
 
@<TRIPOS>ATOM
       1    C1      21.562501   18.807378   23.043374 C.2        1 MOL1         0.6021
       2    O1      21.298067   19.192200   24.164932 O.co2      1 MOL1        -0.6904
       3    O2      22.283834   17.856975   22.814223 O.co2      1 MOL1        -0.6904
       4    C2      20.988454   19.578453   21.857357 C.3        1 MOL1        -0.2102
       5    H1      21.812596   19.764241   21.158316 H          1 MOL1         0.0687
       6    H2      20.644287   20.558864   22.208969 H          1 MOL1         0.0687
       7    C3      19.841062   18.843491   21.117993 C.3        1 MOL1        -0.1974
       8    H3      19.594149   19.393613   20.199695 H          1 MOL1         0.0689
       9    H4      20.183467   17.846676   20.806480 H          1 MOL1         0.0689
      10    C4      18.570644   18.711196   21.983131 C.3        1 MOL1        -0.2987
      11    H5      18.198407   19.698289   22.287234 H          1 MOL1         0.0700
      12    H6      17.772971   18.204863   21.424167 H          1 MOL1         0.0700
      13    H7      18.770571   18.126936   22.891148 H          1 MOL1         0.0700
@<TRIPOS>BOND
    1     1     2    1
    2     1     3    2
    3     1     4    1
    4     4     5    1
    5     4     6    1
    6     4     7    1
    7     7     8    1
    8     7     9    1
    9     7    10    1
   10    10    11    1
   11    10    12    1
   12    10    13    1
@<TRIPOS>SUBSTRUCTURE
       1 MOL1            1 RESIDUE      1      MOL     
@<SCITEGIC>MOL_PROPERTY
VConf Rank
SciTegic.value.IntegerValue
500

@<SCITEGIC>MOL_PROPERTY
Conf_Id
SciTegic.value.IntegerValue
36

@<SCITEGIC>MOL_PROPERTY
Delta U+W
SciTegic.value.DoubleValue
0.272

@<SCITEGIC>MOL_PROPERTY
U+W
SciTegic.value.DoubleValue
-58.060

@<SCITEGIC>MOL_PROPERTY
Grad RMS
SciTegic.value.DoubleValue
0.000000

@<SCITEGIC>MOL_PROPERTY
U
SciTegic.value.DoubleValue
9.781

@<SCITEGIC>MOL_PROPERTY
W
SciTegic.value.DoubleValue
-67.841

@<SCITEGIC>MOL_PROPERTY
W(PB)
SciTegic.value.DoubleValue
-69.537

@<SCITEGIC>MOL_PROPERTY
W(SA)
SciTegic.value.DoubleValue
1.696

@<SCITEGIC>MOL_PROPERTY
Valence
SciTegic.value.DoubleValue
6.123

@<SCITEGIC>MOL_PROPERTY
Coulomb
SciTegic.value.DoubleValue
3.449

@<SCITEGIC>MOL_PROPERTY
VdW
SciTegic.value.DoubleValue
0.209

@<SCITEGIC>MOL_PROPERTY
VdW6
SciTegic.value.DoubleValue
-3.762

@<SCITEGIC>MOL_PROPERTY
VdW12
SciTegic.value.DoubleValue
3.972

@<SCITEGIC>MOL_PROPERTY
Bond
SciTegic.value.DoubleValue
0.078

@<SCITEGIC>MOL_PROPERTY
Angle
SciTegic.value.DoubleValue
2.428

@<SCITEGIC>MOL_PROPERTY
Pdih
SciTegic.value.DoubleValue
3.616

@<SCITEGIC>MOL_PROPERTY
Idih
SciTegic.value.DoubleValue
0.002

@<SCITEGIC>MOL_PROPERTY
Tether
SciTegic.value.DoubleValue
0.000

@<TRIPOS>MOLECULE
guest-6_confgen4.mol2 : confsearch ligand conformer 501
          13          12           1
SMALL
USER_CHARGES
 
@<TRIPOS>ATOM
       1    C1      21.360103   17.492836   22.517300 C.2        1 MOL1         0.6021
       2    O1      21.002952   16.555580   21.830770 O.co2      1 MOL1        -0.6904
       3    O2      22.256958   17.411905   23.332100 O.co2      1 MOL1        -0.6904
       4    C2      20.667821   18.849432   22.372132 C.3        1 MOL1        -0.2102
       5    H1      21.439943   19.586070   22.120080 H          1 MOL1         0.0687
       6    H2      20.273581   19.123334   23.357977 H          1 MOL1         0.0687
       7    C3      19.529264   18.905218   21.320214 C.3        1 MOL1        -0.1974
       8    H3      19.925793   18.627594   20.333581 H          1 MOL1         0.0689
       9    H4      18.758023   18.164230   21.572958 H          1 MOL1         0.0689
      10    C4      18.892275   20.307472   21.244295 C.3        1 MOL1        -0.2987
      11    H5      19.637562   21.062849   20.962382 H          1 MOL1         0.0700
      12    H6      18.089652   20.327348   20.495525 H          1 MOL1         0.0700
      13    H7      18.460464   20.595777   22.211736 H          1 MOL1         0.0700
@<TRIPOS>BOND
    1     1     2    1
    2     1     3    2
    3     1     4    1
    4     4     5    1
    5     4     6    1
    6     4     7    1
    7     7     8    1
    8     7     9    1
    9     7    10    1
   10    10    11    1
   11    10    12    1
   12    10    13    1
@<TRIPOS>SUBSTRUCTURE
       1 MOL1            1 RESIDUE      1      MOL     
@<SCITEGIC>MOL_PROPERTY
VConf Rank
SciTegic.value.IntegerValue
501

@<SCITEGIC>MOL_PROPERTY
Conf_Id
SciTegic.value.IntegerValue
0

@<SCITEGIC>MOL_PROPERTY
Delta U+W
SciTegic.value.DoubleValue
0.000

@<SCITEGIC>MOL_PROPERTY
U+W
SciTegic.value.DoubleValue
-58.332

@<SCITEGIC>MOL_PROPERTY
Grad RMS
SciTegic.value.DoubleValue
0.000000

@<SCITEGIC>MOL_PROPERTY
U
SciTegic.value.DoubleValue
8.390

@<SCITEGIC>MOL_PROPERTY
W
SciTegic.value.DoubleValue
-66.722

@<SCITEGIC>MOL_PROPERTY
W(PB)
SciTegic.value.DoubleValue
-68.455

@<SCITEGIC>MOL_PROPERTY
W(SA)
SciTegic.value.DoubleValue
1.733

@<SCITEGIC>MOL_PROPERTY
Valence
SciTegic.value.DoubleValue
6.333

@<SCITEGIC>MOL_PROPERTY
Coulomb
SciTegic.value.DoubleValue
1.215

@<SCITEGIC>MOL_PROPERTY
VdW
SciTegic.value.DoubleValue
0.842

@<SCITEGIC>MOL_PROPERTY
VdW6
SciTegic.value.DoubleValue
-3.344

@<SCITEGIC>MOL_PROPERTY
VdW12
SciTegic.value.DoubleValue
4.186

@<SCITEGIC>MOL_PROPERTY
Bond
SciTegic.value.DoubleValue
0.091

@<SCITEGIC>MOL_PROPERTY
Angle
SciTegic.value.DoubleValue
2.713

@<SCITEGIC>MOL_PROPERTY
Pdih
SciTegic.value.DoubleValue
3.529

@<SCITEGIC>MOL_PROPERTY
Idih
SciTegic.value.DoubleValue
0.000

@<SCITEGIC>MOL_PROPERTY
Tether
SciTegic.value.DoubleValue
0.000

@<TRIPOS>MOLECULE
guest-6_confgen4.mol2 : confsearch ligand conformer 502
          13          12           1
SMALL
USER_CHARGES
 
@<TRIPOS>ATOM
       1    C1      17.888667   18.914741   22.009266 C.2        1 MOL1         0.6021
       2    O1      17.439473   17.817413   22.272815 O.co2      1 MOL1        -0.6904
       3    O2      17.252858   19.782187   21.444779 O.co2      1 MOL1        -0.6904
       4    C2      19.334712   19.212881   22.390795 C.3        1 MOL1        -0.2102
       5    H1      19.566042   18.660874   23.309922 H          1 MOL1         0.0687
       6    H2      19.412140   20.281144   22.627094 H          1 MOL1         0.0687
       7    C3      20.342700   18.839303   21.277131 C.3        1 MOL1        -0.1974
       8    H3      20.249266   17.769825   21.041953 H          1 MOL1         0.0689
       9    H4      20.095413   19.390488   20.359053 H          1 MOL1         0.0689
      10    C4      21.793911   19.152435   21.693332 C.3        1 MOL1        -0.2987
      11    H5      22.493220   18.881064   20.891717 H          1 MOL1         0.0700
      12    H6      21.919620   20.222452   21.905030 H          1 MOL1         0.0700
      13    H7      22.074654   18.589328   22.593138 H          1 MOL1         0.0700
@<TRIPOS>BOND
    1     1     2    1
    2     1     3    2
    3     1     4    1
    4     4     5    1
    5     4     6    1
    6     4     7    1
    7     7     8    1
    8     7     9    1
    9     7    10    1
   10    10    11    1
   11    10    12    1
   12    10    13    1
@<TRIPOS>SUBSTRUCTURE
       1 MOL1            1 RESIDUE      1      MOL     
@<SCITEGIC>MOL_PROPERTY
VConf Rank
SciTegic.value.IntegerValue
502

@<SCITEGIC>MOL_PROPERTY
Conf_Id
SciTegic.value.IntegerValue
1

@<SCITEGIC>MOL_PROPERTY
Delta U+W
SciTegic.value.DoubleValue
-1.339

@<SCITEGIC>MOL_PROPERTY
U+W
SciTegic.value.DoubleValue
-59.672

@<SCITEGIC>MOL_PROPERTY
Grad RMS
SciTegic.value.DoubleValue
0.000000

@<SCITEGIC>MOL_PROPERTY
U
SciTegic.value.DoubleValue
7.389

@<SCITEGIC>MOL_PROPERTY
W
SciTegic.value.DoubleValue
-67.061

@<SCITEGIC>MOL_PROPERTY
W(PB)
SciTegic.value.DoubleValue
-68.767

@<SCITEGIC>MOL_PROPERTY
W(SA)
SciTegic.value.DoubleValue
1.707

@<SCITEGIC>MOL_PROPERTY
Valence
SciTegic.value.DoubleValue
5.822

@<SCITEGIC>MOL_PROPERTY
Coulomb
SciTegic.value.DoubleValue
1.255

@<SCITEGIC>MOL_PROPERTY
VdW
SciTegic.value.DoubleValue
0.312

@<SCITEGIC>MOL_PROPERTY
VdW6
SciTegic.value.DoubleValue
-3.061

@<SCITEGIC>MOL_PROPERTY
VdW12
SciTegic.value.DoubleValue
3.372

@<SCITEGIC>MOL_PROPERTY
Bond
SciTegic.value.DoubleValue
0.059

@<SCITEGIC>MOL_PROPERTY
Angle
SciTegic.value.DoubleValue
2.241

@<SCITEGIC>MOL_PROPERTY
Pdih
SciTegic.value.DoubleValue
3.522

@<SCITEGIC>MOL_PROPERTY
Idih
SciTegic.value.DoubleValue
0.000

@<SCITEGIC>MOL_PROPERTY
Tether
SciTegic.value.DoubleValue
0.000

@<TRIPOS>MOLECULE
guest-6_confgen4.mol2 : confsearch ligand conformer 503
          13          12           1
SMALL
USER_CHARGES
 
@<TRIPOS>ATOM
       1    C1      21.327900   17.641572   21.921007 C.2        1 MOL1         0.6021
       2    O1      21.095023   16.755507   21.123037 O.co2      1 MOL1        -0.6904
       3    O2      22.439989   18.088422   22.119723 O.co2      1 MOL1        -0.6904
       4    C2      20.165791   18.195823   22.741394 C.3        1 MOL1        -0.2102
       5    H1      20.571600   18.730461   23.609017 H          1 MOL1         0.0687
       6    H2      19.603409   17.339329   23.131945 H          1 MOL1         0.0687
       7    C3      19.209933   19.119907   21.944059 C.3        1 MOL1        -0.1974
       8    H3      18.841633   18.588831   21.055106 H          1 MOL1         0.0689
       9    H4      18.330881   19.347825   22.562277 H          1 MOL1         0.0689
      10    C4      19.883772   20.441186   21.519687 C.3        1 MOL1        -0.2987
      11    H5      20.742939   20.252698   20.862319 H          1 MOL1         0.0700
      12    H6      19.175414   21.079349   20.975561 H          1 MOL1         0.0700
      13    H7      20.239900   20.999097   22.395643 H          1 MOL1         0.0700
@<TRIPOS>BOND
    1     1     2    1
    2     1     3    2
    3     1     4    1
    4     4     5    1
    5     4     6    1
    6     4     7    1
    7     7     8    1
    8     7     9    1
    9     7    10    1
   10    10    11    1
   11    10    12    1
   12    10    13    1
@<TRIPOS>SUBSTRUCTURE
       1 MOL1            1 RESIDUE      1      MOL     
@<SCITEGIC>MOL_PROPERTY
VConf Rank
SciTegic.value.IntegerValue
503

@<SCITEGIC>MOL_PROPERTY
Conf_Id
SciTegic.value.IntegerValue
4

@<SCITEGIC>MOL_PROPERTY
Delta U+W
SciTegic.value.DoubleValue
0.281

@<SCITEGIC>MOL_PROPERTY
U+W
SciTegic.value.DoubleValue
-58.051

@<SCITEGIC>MOL_PROPERTY
Grad RMS
SciTegic.value.DoubleValue
0.000000

@<SCITEGIC>MOL_PROPERTY
U
SciTegic.value.DoubleValue
9.781

@<SCITEGIC>MOL_PROPERTY
W
SciTegic.value.DoubleValue
-67.832

@<SCITEGIC>MOL_PROPERTY
W(PB)
SciTegic.value.DoubleValue
-69.535

@<SCITEGIC>MOL_PROPERTY
W(SA)
SciTegic.value.DoubleValue
1.703

@<SCITEGIC>MOL_PROPERTY
Valence
SciTegic.value.DoubleValue
6.123

@<SCITEGIC>MOL_PROPERTY
Coulomb
SciTegic.value.DoubleValue
3.449

@<SCITEGIC>MOL_PROPERTY
VdW
SciTegic.value.DoubleValue
0.209

@<SCITEGIC>MOL_PROPERTY
VdW6
SciTegic.value.DoubleValue
-3.762

@<SCITEGIC>MOL_PROPERTY
VdW12
SciTegic.value.DoubleValue
3.972

@<SCITEGIC>MOL_PROPERTY
Bond
SciTegic.value.DoubleValue
0.078

@<SCITEGIC>MOL_PROPERTY
Angle
SciTegic.value.DoubleValue
2.428

@<SCITEGIC>MOL_PROPERTY
Pdih
SciTegic.value.DoubleValue
3.616

@<SCITEGIC>MOL_PROPERTY
Idih
SciTegic.value.DoubleValue
0.002

@<SCITEGIC>MOL_PROPERTY
Tether
SciTegic.value.DoubleValue
0.000

@<TRIPOS>MOLECULE
guest-6_confgen4.mol2 : confsearch ligand conformer 504
          13          12           1
SMALL
USER_CHARGES
 
@<TRIPOS>ATOM
       1    C1      21.349567   20.057105   21.285860 C.2        1 MOL1         0.6021
       2    O1      20.952963   20.479055   20.217886 O.co2      1 MOL1        -0.6904
       3    O2      21.989064   20.724970   22.073957 O.co2      1 MOL1        -0.6904
       4    C2      21.061442   18.601060   21.643130 C.3        1 MOL1        -0.2102
       5    H1      22.002301   18.157003   21.989518 H          1 MOL1         0.0687
       6    H2      20.775607   18.065028   20.729754 H          1 MOL1         0.0687
       7    C3      19.973351   18.418190   22.732144 C.3        1 MOL1        -0.1974
       8    H3      19.938879   17.362087   23.032696 H          1 MOL1         0.0689
       9    H4      20.249227   18.992474   23.627695 H          1 MOL1         0.0689
      10    C4      18.574027   18.849927   22.246940 C.3        1 MOL1        -0.2987
      11    H5      18.269003   18.272024   21.364681 H          1 MOL1         0.0700
      12    H6      17.825289   18.689448   23.033536 H          1 MOL1         0.0700
      13    H7      18.560293   19.914804   21.979220 H          1 MOL1         0.0700
@<TRIPOS>BOND
    1     1     2    1
    2     1     3    2
    3     1     4    1
    4     4     5    1
    5     4     6    1
    6     4     7    1
    7     7     8    1
    8     7     9    1
    9     7    10    1
   10    10    11    1
   11    10    12    1
   12    10    13    1
@<TRIPOS>SUBSTRUCTURE
       1 MOL1            1 RESIDUE      1      MOL     
@<SCITEGIC>MOL_PROPERTY
VConf Rank
SciTegic.value.IntegerValue
504

@<SCITEGIC>MOL_PROPERTY
Conf_Id
SciTegic.value.IntegerValue
36

@<SCITEGIC>MOL_PROPERTY
Delta U+W
SciTegic.value.DoubleValue
0.272

@<SCITEGIC>MOL_PROPERTY
U+W
SciTegic.value.DoubleValue
-58.060

@<SCITEGIC>MOL_PROPERTY
Grad RMS
SciTegic.value.DoubleValue
0.000000

@<SCITEGIC>MOL_PROPERTY
U
SciTegic.value.DoubleValue
9.781

@<SCITEGIC>MOL_PROPERTY
W
SciTegic.value.DoubleValue
-67.841

@<SCITEGIC>MOL_PROPERTY
W(PB)
SciTegic.value.DoubleValue
-69.537

@<SCITEGIC>MOL_PROPERTY
W(SA)
SciTegic.value.DoubleValue
1.696

@<SCITEGIC>MOL_PROPERTY
Valence
SciTegic.value.DoubleValue
6.123

@<SCITEGIC>MOL_PROPERTY
Coulomb
SciTegic.value.DoubleValue
3.449

@<SCITEGIC>MOL_PROPERTY
VdW
SciTegic.value.DoubleValue
0.209

@<SCITEGIC>MOL_PROPERTY
VdW6
SciTegic.value.DoubleValue
-3.762

@<SCITEGIC>MOL_PROPERTY
VdW12
SciTegic.value.DoubleValue
3.972

@<SCITEGIC>MOL_PROPERTY
Bond
SciTegic.value.DoubleValue
0.078

@<SCITEGIC>MOL_PROPERTY
Angle
SciTegic.value.DoubleValue
2.428

@<SCITEGIC>MOL_PROPERTY
Pdih
SciTegic.value.DoubleValue
3.616

@<SCITEGIC>MOL_PROPERTY
Idih
SciTegic.value.DoubleValue
0.002

@<SCITEGIC>MOL_PROPERTY
Tether
SciTegic.value.DoubleValue
0.000

@<TRIPOS>MOLECULE
guest-6_confgen4.mol2 : confsearch ligand conformer 505
          13          12           1
SMALL
USER_CHARGES
 
@<TRIPOS>ATOM
       1    C1      21.320425   20.063725   20.504243 C.2        1 MOL1         0.6021
       2    O1      22.346917   20.046779   21.154902 O.co2      1 MOL1        -0.6904
       3    O2      21.237326   20.591462   19.413655 O.co2      1 MOL1        -0.6904
       4    C2      20.058299   19.398853   21.057112 C.3        1 MOL1        -0.2102
       5    H1      19.736597   18.647555   20.326087 H          1 MOL1         0.0687
       6    H2      19.274413   20.164618   21.095386 H          1 MOL1         0.0687
       7    C3      20.211905   18.738252   22.452092 C.3        1 MOL1        -0.1974
       8    H3      20.999894   17.973239   22.412301 H          1 MOL1         0.0689
       9    H4      20.537218   19.492157   23.182539 H          1 MOL1         0.0689
      10    C4      18.892712   18.095907   22.926390 C.3        1 MOL1        -0.2987
      11    H5      18.562090   17.315926   22.227934 H          1 MOL1         0.0700
      12    H6      19.020907   17.634128   23.914106 H          1 MOL1         0.0700
      13    H7      18.095689   18.847044   23.004302 H          1 MOL1         0.0700
@<TRIPOS>BOND
    1     1     2    1
    2     1     3    2
    3     1     4    1
    4     4     5    1
    5     4     6    1
    6     4     7    1
    7     7     8    1
    8     7     9    1
    9     7    10    1
   10    10    11    1
   11    10    12    1
   12    10    13    1
@<TRIPOS>SUBSTRUCTURE
       1 MOL1            1 RESIDUE      1      MOL     
@<SCITEGIC>MOL_PROPERTY
VConf Rank
SciTegic.value.IntegerValue
505

@<SCITEGIC>MOL_PROPERTY
Conf_Id
SciTegic.value.IntegerValue
0

@<SCITEGIC>MOL_PROPERTY
Delta U+W
SciTegic.value.DoubleValue
0.000

@<SCITEGIC>MOL_PROPERTY
U+W
SciTegic.value.DoubleValue
-58.332

@<SCITEGIC>MOL_PROPERTY
Grad RMS
SciTegic.value.DoubleValue
0.000000

@<SCITEGIC>MOL_PROPERTY
U
SciTegic.value.DoubleValue
8.390

@<SCITEGIC>MOL_PROPERTY
W
SciTegic.value.DoubleValue
-66.722

@<SCITEGIC>MOL_PROPERTY
W(PB)
SciTegic.value.DoubleValue
-68.455

@<SCITEGIC>MOL_PROPERTY
W(SA)
SciTegic.value.DoubleValue
1.733

@<SCITEGIC>MOL_PROPERTY
Valence
SciTegic.value.DoubleValue
6.333

@<SCITEGIC>MOL_PROPERTY
Coulomb
SciTegic.value.DoubleValue
1.215

@<SCITEGIC>MOL_PROPERTY
VdW
SciTegic.value.DoubleValue
0.842

@<SCITEGIC>MOL_PROPERTY
VdW6
SciTegic.value.DoubleValue
-3.344

@<SCITEGIC>MOL_PROPERTY
VdW12
SciTegic.value.DoubleValue
4.186

@<SCITEGIC>MOL_PROPERTY
Bond
SciTegic.value.DoubleValue
0.091

@<SCITEGIC>MOL_PROPERTY
Angle
SciTegic.value.DoubleValue
2.713

@<SCITEGIC>MOL_PROPERTY
Pdih
SciTegic.value.DoubleValue
3.529

@<SCITEGIC>MOL_PROPERTY
Idih
SciTegic.value.DoubleValue
0.000

@<SCITEGIC>MOL_PROPERTY
Tether
SciTegic.value.DoubleValue
0.000

@<TRIPOS>MOLECULE
guest-6_confgen4.mol2 : confsearch ligand conformer 506
          13          12           1
SMALL
USER_CHARGES
 
@<TRIPOS>ATOM
       1    C1      21.677881   18.363975   22.905775 C.2        1 MOL1         0.6021
       2    O1      22.741669   18.427657   22.322969 O.co2      1 MOL1        -0.6904
       3    O2      21.457121   17.591674   23.816915 O.co2      1 MOL1        -0.6904
       4    C2      20.552885   19.290479   22.456916 C.3        1 MOL1        -0.2102
       5    H1      21.002146   20.226204   22.102512 H          1 MOL1         0.0687
       6    H2      19.942843   19.536818   23.334518 H          1 MOL1         0.0687
       7    C3      19.666652   18.671956   21.348823 C.3        1 MOL1        -0.1974
       8    H3      20.289641   18.420260   20.479136 H          1 MOL1         0.0689
       9    H4      19.230046   17.730827   21.711416 H          1 MOL1         0.0689
      10    C4      18.540165   19.632296   20.917472 C.3        1 MOL1        -0.2987
      11    H5      17.923168   19.176616   20.132022 H          1 MOL1         0.0700
      12    H6      17.885364   19.875340   21.764656 H          1 MOL1         0.0700
      13    H7      18.953094   20.570034   20.522892 H          1 MOL1         0.0700
@<TRIPOS>BOND
    1     1     2    1
    2     1     3    2
    3     1     4    1
    4     4     5    1
    5     4     6    1
    6     4     7    1
    7     7     8    1
    8     7     9    1
    9     7    10    1
   10    10    11    1
   11    10    12    1
   12    10    13    1
@<TRIPOS>SUBSTRUCTURE
       1 MOL1            1 RESIDUE      1      MOL     
@<SCITEGIC>MOL_PROPERTY
VConf Rank
SciTegic.value.IntegerValue
506

@<SCITEGIC>MOL_PROPERTY
Conf_Id
SciTegic.value.IntegerValue
1

@<SCITEGIC>MOL_PROPERTY
Delta U+W
SciTegic.value.DoubleValue
-1.339

@<SCITEGIC>MOL_PROPERTY
U+W
SciTegic.value.DoubleValue
-59.672

@<SCITEGIC>MOL_PROPERTY
Grad RMS
SciTegic.value.DoubleValue
0.000000

@<SCITEGIC>MOL_PROPERTY
U
SciTegic.value.DoubleValue
7.389

@<SCITEGIC>MOL_PROPERTY
W
SciTegic.value.DoubleValue
-67.061

@<SCITEGIC>MOL_PROPERTY
W(PB)
SciTegic.value.DoubleValue
-68.767

@<SCITEGIC>MOL_PROPERTY
W(SA)
SciTegic.value.DoubleValue
1.707

@<SCITEGIC>MOL_PROPERTY
Valence
SciTegic.value.DoubleValue
5.822

@<SCITEGIC>MOL_PROPERTY
Coulomb
SciTegic.value.DoubleValue
1.255

@<SCITEGIC>MOL_PROPERTY
VdW
SciTegic.value.DoubleValue
0.312

@<SCITEGIC>MOL_PROPERTY
VdW6
SciTegic.value.DoubleValue
-3.061

@<SCITEGIC>MOL_PROPERTY
VdW12
SciTegic.value.DoubleValue
3.372

@<SCITEGIC>MOL_PROPERTY
Bond
SciTegic.value.DoubleValue
0.059

@<SCITEGIC>MOL_PROPERTY
Angle
SciTegic.value.DoubleValue
2.241

@<SCITEGIC>MOL_PROPERTY
Pdih
SciTegic.value.DoubleValue
3.522

@<SCITEGIC>MOL_PROPERTY
Idih
SciTegic.value.DoubleValue
0.000

@<SCITEGIC>MOL_PROPERTY
Tether
SciTegic.value.DoubleValue
0.000

@<TRIPOS>MOLECULE
guest-6_confgen4.mol2 : confsearch ligand conformer 507
          13          12           1
SMALL
USER_CHARGES
 
@<TRIPOS>ATOM
       1    C1      19.903320   17.229006   21.624873 C.2        1 MOL1         0.6021
       2    O1      20.369573   16.447597   22.429924 O.co2      1 MOL1        -0.6904
       3    O2      18.833345   17.063800   21.073724 O.co2      1 MOL1        -0.6904
       4    C2      20.723546   18.464410   21.261920 C.3        1 MOL1        -0.2102
       5    H1      20.336789   18.879674   20.323164 H          1 MOL1         0.0687
       6    H2      21.748207   18.129327   21.061485 H          1 MOL1         0.0687
       7    C3      20.744325   19.557712   22.360828 C.3        1 MOL1        -0.1974
       8    H3      21.093973   19.121426   23.307043 H          1 MOL1         0.0689
       9    H4      21.471223   20.333235   22.083235 H          1 MOL1         0.0689
      10    C4      19.363071   20.212773   22.568094 C.3        1 MOL1        -0.2987
      11    H5      18.619292   19.471970   22.890322 H          1 MOL1         0.0700
      12    H6      19.417022   20.994216   23.337205 H          1 MOL1         0.0700
      13    H7      19.004498   20.674861   21.638959 H          1 MOL1         0.0700
@<TRIPOS>BOND
    1     1     2    1
    2     1     3    2
    3     1     4    1
    4     4     5    1
    5     4     6    1
    6     4     7    1
    7     7     8    1
    8     7     9    1
    9     7    10    1
   10    10    11    1
   11    10    12    1
   12    10    13    1
@<TRIPOS>SUBSTRUCTURE
       1 MOL1            1 RESIDUE      1      MOL     
@<SCITEGIC>MOL_PROPERTY
VConf Rank
SciTegic.value.IntegerValue
507

@<SCITEGIC>MOL_PROPERTY
Conf_Id
SciTegic.value.IntegerValue
4

@<SCITEGIC>MOL_PROPERTY
Delta U+W
SciTegic.value.DoubleValue
0.281

@<SCITEGIC>MOL_PROPERTY
U+W
SciTegic.value.DoubleValue
-58.051

@<SCITEGIC>MOL_PROPERTY
Grad RMS
SciTegic.value.DoubleValue
0.000000

@<SCITEGIC>MOL_PROPERTY
U
SciTegic.value.DoubleValue
9.781

@<SCITEGIC>MOL_PROPERTY
W
SciTegic.value.DoubleValue
-67.832

@<SCITEGIC>MOL_PROPERTY
W(PB)
SciTegic.value.DoubleValue
-69.535

@<SCITEGIC>MOL_PROPERTY
W(SA)
SciTegic.value.DoubleValue
1.703

@<SCITEGIC>MOL_PROPERTY
Valence
SciTegic.value.DoubleValue
6.123

@<SCITEGIC>MOL_PROPERTY
Coulomb
SciTegic.value.DoubleValue
3.449

@<SCITEGIC>MOL_PROPERTY
VdW
SciTegic.value.DoubleValue
0.209

@<SCITEGIC>MOL_PROPERTY
VdW6
SciTegic.value.DoubleValue
-3.762

@<SCITEGIC>MOL_PROPERTY
VdW12
SciTegic.value.DoubleValue
3.972

@<SCITEGIC>MOL_PROPERTY
Bond
SciTegic.value.DoubleValue
0.078

@<SCITEGIC>MOL_PROPERTY
Angle
SciTegic.value.DoubleValue
2.428

@<SCITEGIC>MOL_PROPERTY
Pdih
SciTegic.value.DoubleValue
3.616

@<SCITEGIC>MOL_PROPERTY
Idih
SciTegic.value.DoubleValue
0.002

@<SCITEGIC>MOL_PROPERTY
Tether
SciTegic.value.DoubleValue
0.000

@<TRIPOS>MOLECULE
guest-6_confgen4.mol2 : confsearch ligand conformer 508
          13          12           1
SMALL
USER_CHARGES
 
@<TRIPOS>ATOM
       1    C1      19.981624   19.581416   23.674819 C.2        1 MOL1         0.6021
       2    O1      19.913017   20.794265   23.660839 O.co2      1 MOL1        -0.6904
       3    O2      19.356068   18.884224   24.448577 O.co2      1 MOL1        -0.6904
       4    C2      20.929918   18.896814   22.693604 C.3        1 MOL1        -0.2102
       5    H1      21.520801   18.169642   23.263222 H          1 MOL1         0.0687
       6    H2      21.634182   19.643446   22.306514 H          1 MOL1         0.0687
       7    C3      20.217425   18.176243   21.520373 C.3        1 MOL1        -0.1974
       8    H3      20.955956   17.590717   20.955925 H          1 MOL1         0.0689
       9    H4      19.484893   17.460405   21.918988 H          1 MOL1         0.0689
      10    C4      19.515706   19.160530   20.561887 C.3        1 MOL1        -0.2987
      11    H5      20.234548   19.871830   20.134440 H          1 MOL1         0.0700
      12    H6      19.038965   18.620386   19.733601 H          1 MOL1         0.0700
      13    H7      18.737907   19.733256   21.084229 H          1 MOL1         0.0700
@<TRIPOS>BOND
    1     1     2    1
    2     1     3    2
    3     1     4    1
    4     4     5    1
    5     4     6    1
    6     4     7    1
    7     7     8    1
    8     7     9    1
    9     7    10    1
   10    10    11    1
   11    10    12    1
   12    10    13    1
@<TRIPOS>SUBSTRUCTURE
       1 MOL1            1 RESIDUE      1      MOL     
@<SCITEGIC>MOL_PROPERTY
VConf Rank
SciTegic.value.IntegerValue
508

@<SCITEGIC>MOL_PROPERTY
Conf_Id
SciTegic.value.IntegerValue
36

@<SCITEGIC>MOL_PROPERTY
Delta U+W
SciTegic.value.DoubleValue
0.272

@<SCITEGIC>MOL_PROPERTY
U+W
SciTegic.value.DoubleValue
-58.060

@<SCITEGIC>MOL_PROPERTY
Grad RMS
SciTegic.value.DoubleValue
0.000000

@<SCITEGIC>MOL_PROPERTY
U
SciTegic.value.DoubleValue
9.781

@<SCITEGIC>MOL_PROPERTY
W
SciTegic.value.DoubleValue
-67.841

@<SCITEGIC>MOL_PROPERTY
W(PB)
SciTegic.value.DoubleValue
-69.537

@<SCITEGIC>MOL_PROPERTY
W(SA)
SciTegic.value.DoubleValue
1.696

@<SCITEGIC>MOL_PROPERTY
Valence
SciTegic.value.DoubleValue
6.123

@<SCITEGIC>MOL_PROPERTY
Coulomb
SciTegic.value.DoubleValue
3.449

@<SCITEGIC>MOL_PROPERTY
VdW
SciTegic.value.DoubleValue
0.209

@<SCITEGIC>MOL_PROPERTY
VdW6
SciTegic.value.DoubleValue
-3.762

@<SCITEGIC>MOL_PROPERTY
VdW12
SciTegic.value.DoubleValue
3.972

@<SCITEGIC>MOL_PROPERTY
Bond
SciTegic.value.DoubleValue
0.078

@<SCITEGIC>MOL_PROPERTY
Angle
SciTegic.value.DoubleValue
2.428

@<SCITEGIC>MOL_PROPERTY
Pdih
SciTegic.value.DoubleValue
3.616

@<SCITEGIC>MOL_PROPERTY
Idih
SciTegic.value.DoubleValue
0.002

@<SCITEGIC>MOL_PROPERTY
Tether
SciTegic.value.DoubleValue
0.000

@<TRIPOS>MOLECULE
guest-6_confgen4.mol2 : confsearch ligand conformer 509
          13          12           1
SMALL
USER_CHARGES
 
@<TRIPOS>ATOM
       1    C1      18.741246   17.529662   20.959714 C.2        1 MOL1         0.6021
       2    O1      18.625193   17.977670   19.835814 O.co2      1 MOL1        -0.6904
       3    O2      18.199889   16.504852   21.322333 O.co2      1 MOL1        -0.6904
       4    C2      19.601439   18.267366   21.987596 C.3        1 MOL1        -0.2102
       5    H1      20.370321   17.566871   22.334675 H          1 MOL1         0.0687
       6    H2      18.961528   18.493011   22.848953 H          1 MOL1         0.0687
       7    C3      20.272626   19.570295   21.479813 C.3        1 MOL1        -0.1974
       8    H3      20.911141   19.342447   20.614863 H          1 MOL1         0.0689
       9    H4      19.500615   20.269705   21.129700 H          1 MOL1         0.0689
      10    C4      21.116690   20.242716   22.581285 C.3        1 MOL1        -0.2987
      11    H5      21.916202   19.574196   22.926807 H          1 MOL1         0.0700
      12    H6      21.583158   21.162006   22.203699 H          1 MOL1         0.0700
      13    H7      20.494345   20.508848   23.445798 H          1 MOL1         0.0700
@<TRIPOS>BOND
    1     1     2    1
    2     1     3    2
    3     1     4    1
    4     4     5    1
    5     4     6    1
    6     4     7    1
    7     7     8    1
    8     7     9    1
    9     7    10    1
   10    10    11    1
   11    10    12    1
   12    10    13    1
@<TRIPOS>SUBSTRUCTURE
       1 MOL1            1 RESIDUE      1      MOL     
@<SCITEGIC>MOL_PROPERTY
VConf Rank
SciTegic.value.IntegerValue
509

@<SCITEGIC>MOL_PROPERTY
Conf_Id
SciTegic.value.IntegerValue
0

@<SCITEGIC>MOL_PROPERTY
Delta U+W
SciTegic.value.DoubleValue
0.000

@<SCITEGIC>MOL_PROPERTY
U+W
SciTegic.value.DoubleValue
-58.332

@<SCITEGIC>MOL_PROPERTY
Grad RMS
SciTegic.value.DoubleValue
0.000000

@<SCITEGIC>MOL_PROPERTY
U
SciTegic.value.DoubleValue
8.390

@<SCITEGIC>MOL_PROPERTY
W
SciTegic.value.DoubleValue
-66.722

@<SCITEGIC>MOL_PROPERTY
W(PB)
SciTegic.value.DoubleValue
-68.455

@<SCITEGIC>MOL_PROPERTY
W(SA)
SciTegic.value.DoubleValue
1.733

@<SCITEGIC>MOL_PROPERTY
Valence
SciTegic.value.DoubleValue
6.333

@<SCITEGIC>MOL_PROPERTY
Coulomb
SciTegic.value.DoubleValue
1.215

@<SCITEGIC>MOL_PROPERTY
VdW
SciTegic.value.DoubleValue
0.842

@<SCITEGIC>MOL_PROPERTY
VdW6
SciTegic.value.DoubleValue
-3.344

@<SCITEGIC>MOL_PROPERTY
VdW12
SciTegic.value.DoubleValue
4.186

@<SCITEGIC>MOL_PROPERTY
Bond
SciTegic.value.DoubleValue
0.091

@<SCITEGIC>MOL_PROPERTY
Angle
SciTegic.value.DoubleValue
2.713

@<SCITEGIC>MOL_PROPERTY
Pdih
SciTegic.value.DoubleValue
3.529

@<SCITEGIC>MOL_PROPERTY
Idih
SciTegic.value.DoubleValue
0.000

@<SCITEGIC>MOL_PROPERTY
Tether
SciTegic.value.DoubleValue
0.000

@<TRIPOS>MOLECULE
guest-6_confgen4.mol2 : confsearch ligand conformer 510
          13          12           1
SMALL
USER_CHARGES
 
@<TRIPOS>ATOM
       1    C1      18.967466   18.852752   19.993275 C.2        1 MOL1         0.6021
       2    O1      19.532528   19.309154   19.019744 O.co2      1 MOL1        -0.6904
       3    O2      17.763506   18.708384   20.063985 O.co2      1 MOL1        -0.6904
       4    C2      19.813428   18.457229   21.198849 C.3        1 MOL1        -0.2102
       5    H1      20.785133   18.103839   20.832893 H          1 MOL1         0.0687
       6    H2      19.326298   17.608392   21.694024 H          1 MOL1         0.0687
       7    C3      20.012663   19.617417   22.203895 C.3        1 MOL1        -0.1974
       8    H3      20.492046   20.465174   21.694658 H          1 MOL1         0.0689
       9    H4      19.032956   19.969540   22.556040 H          1 MOL1         0.0689
      10    C4      20.871143   19.185883   23.409748 C.3        1 MOL1        -0.2987
      11    H5      21.001146   20.020943   24.110487 H          1 MOL1         0.0700
      12    H6      20.397038   18.357976   23.953209 H          1 MOL1         0.0700
      13    H7      21.867321   18.857455   23.085217 H          1 MOL1         0.0700
@<TRIPOS>BOND
    1     1     2    1
    2     1     3    2
    3     1     4    1
    4     4     5    1
    5     4     6    1
    6     4     7    1
    7     7     8    1
    8     7     9    1
    9     7    10    1
   10    10    11    1
   11    10    12    1
   12    10    13    1
@<TRIPOS>SUBSTRUCTURE
       1 MOL1            1 RESIDUE      1      MOL     
@<SCITEGIC>MOL_PROPERTY
VConf Rank
SciTegic.value.IntegerValue
510

@<SCITEGIC>MOL_PROPERTY
Conf_Id
SciTegic.value.IntegerValue
1

@<SCITEGIC>MOL_PROPERTY
Delta U+W
SciTegic.value.DoubleValue
-1.339

@<SCITEGIC>MOL_PROPERTY
U+W
SciTegic.value.DoubleValue
-59.672

@<SCITEGIC>MOL_PROPERTY
Grad RMS
SciTegic.value.DoubleValue
0.000000

@<SCITEGIC>MOL_PROPERTY
U
SciTegic.value.DoubleValue
7.389

@<SCITEGIC>MOL_PROPERTY
W
SciTegic.value.DoubleValue
-67.061

@<SCITEGIC>MOL_PROPERTY
W(PB)
SciTegic.value.DoubleValue
-68.767

@<SCITEGIC>MOL_PROPERTY
W(SA)
SciTegic.value.DoubleValue
1.707

@<SCITEGIC>MOL_PROPERTY
Valence
SciTegic.value.DoubleValue
5.822

@<SCITEGIC>MOL_PROPERTY
Coulomb
SciTegic.value.DoubleValue
1.255

@<SCITEGIC>MOL_PROPERTY
VdW
SciTegic.value.DoubleValue
0.312

@<SCITEGIC>MOL_PROPERTY
VdW6
SciTegic.value.DoubleValue
-3.061

@<SCITEGIC>MOL_PROPERTY
VdW12
SciTegic.value.DoubleValue
3.372

@<SCITEGIC>MOL_PROPERTY
Bond
SciTegic.value.DoubleValue
0.059

@<SCITEGIC>MOL_PROPERTY
Angle
SciTegic.value.DoubleValue
2.241

@<SCITEGIC>MOL_PROPERTY
Pdih
SciTegic.value.DoubleValue
3.522

@<SCITEGIC>MOL_PROPERTY
Idih
SciTegic.value.DoubleValue
0.000

@<SCITEGIC>MOL_PROPERTY
Tether
SciTegic.value.DoubleValue
0.000

@<TRIPOS>MOLECULE
guest-6_confgen4.mol2 : confsearch ligand conformer 511
          13          12           1
SMALL
USER_CHARGES
 
@<TRIPOS>ATOM
       1    C1      19.821366   20.464143   21.059411 C.2        1 MOL1         0.6021
       2    O1      19.981656   21.509711   21.657067 O.co2      1 MOL1        -0.6904
       3    O2      20.155502   20.295540   19.903629 O.co2      1 MOL1        -0.6904
       4    C2      19.131196   19.315168   21.790334 C.3        1 MOL1        -0.2102
       5    H1      18.779853   18.587396   21.048584 H          1 MOL1         0.0687
       6    H2      18.239093   19.726467   22.277540 H          1 MOL1         0.0687
       7    C3      20.018991   18.612174   22.849088 C.3        1 MOL1        -0.1974
       8    H3      20.399087   19.356384   23.562951 H          1 MOL1         0.0689
       9    H4      19.403018   17.908160   23.425121 H          1 MOL1         0.0689
      10    C4      21.199565   17.847297   22.215733 C.3        1 MOL1        -0.2987
      11    H5      21.862842   18.529221   21.667217 H          1 MOL1         0.0700
      12    H6      21.795335   17.345891   22.989520 H          1 MOL1         0.0700
      13    H7      20.840681   17.082456   21.514582 H          1 MOL1         0.0700
@<TRIPOS>BOND
    1     1     2    1
    2     1     3    2
    3     1     4    1
    4     4     5    1
    5     4     6    1
    6     4     7    1
    7     7     8    1
    8     7     9    1
    9     7    10    1
   10    10    11    1
   11    10    12    1
   12    10    13    1
@<TRIPOS>SUBSTRUCTURE
       1 MOL1            1 RESIDUE      1      MOL     
@<SCITEGIC>MOL_PROPERTY
VConf Rank
SciTegic.value.IntegerValue
511

@<SCITEGIC>MOL_PROPERTY
Conf_Id
SciTegic.value.IntegerValue
4

@<SCITEGIC>MOL_PROPERTY
Delta U+W
SciTegic.value.DoubleValue
0.281

@<SCITEGIC>MOL_PROPERTY
U+W
SciTegic.value.DoubleValue
-58.051

@<SCITEGIC>MOL_PROPERTY
Grad RMS
SciTegic.value.DoubleValue
0.000000

@<SCITEGIC>MOL_PROPERTY
U
SciTegic.value.DoubleValue
9.781

@<SCITEGIC>MOL_PROPERTY
W
SciTegic.value.DoubleValue
-67.832

@<SCITEGIC>MOL_PROPERTY
W(PB)
SciTegic.value.DoubleValue
-69.535

@<SCITEGIC>MOL_PROPERTY
W(SA)
SciTegic.value.DoubleValue
1.703

@<SCITEGIC>MOL_PROPERTY
Valence
SciTegic.value.DoubleValue
6.123

@<SCITEGIC>MOL_PROPERTY
Coulomb
SciTegic.value.DoubleValue
3.449

@<SCITEGIC>MOL_PROPERTY
VdW
SciTegic.value.DoubleValue
0.209

@<SCITEGIC>MOL_PROPERTY
VdW6
SciTegic.value.DoubleValue
-3.762

@<SCITEGIC>MOL_PROPERTY
VdW12
SciTegic.value.DoubleValue
3.972

@<SCITEGIC>MOL_PROPERTY
Bond
SciTegic.value.DoubleValue
0.078

@<SCITEGIC>MOL_PROPERTY
Angle
SciTegic.value.DoubleValue
2.428

@<SCITEGIC>MOL_PROPERTY
Pdih
SciTegic.value.DoubleValue
3.616

@<SCITEGIC>MOL_PROPERTY
Idih
SciTegic.value.DoubleValue
0.002

@<SCITEGIC>MOL_PROPERTY
Tether
SciTegic.value.DoubleValue
0.000

@<TRIPOS>MOLECULE
guest-6_confgen4.mol2 : confsearch ligand conformer 512
          13          12           1
SMALL
USER_CHARGES
 
@<TRIPOS>ATOM
       1    C1      21.277044   18.870528   23.358898 C.2        1 MOL1         0.6021
       2    O1      20.669406   18.741469   24.402941 O.co2      1 MOL1        -0.6904
       3    O2      22.330098   18.312136   23.123584 O.co2      1 MOL1        -0.6904
       4    C2      20.707937   19.810969   22.299459 C.3        1 MOL1        -0.2102
       5    H1      21.526095   20.459729   21.964627 H          1 MOL1         0.0687
       6    H2      19.961050   20.461142   22.771394 H          1 MOL1         0.0687
       7    C3      20.089342   19.088021   21.075521 C.3        1 MOL1        -0.1974
       8    H3      19.845203   19.831127   20.304119 H          1 MOL1         0.0689
       9    H4      20.832689   18.408582   20.635384 H          1 MOL1         0.0689
      10    C4      18.813471   18.300157   21.437945 C.3        1 MOL1        -0.2987
      11    H5      18.048184   18.964989   21.859520 H          1 MOL1         0.0700
      12    H6      18.390720   17.817536   20.547185 H          1 MOL1         0.0700
      13    H7      19.029771   17.516790   22.176441 H          1 MOL1         0.0700
@<TRIPOS>BOND
    1     1     2    1
    2     1     3    2
    3     1     4    1
    4     4     5    1
    5     4     6    1
    6     4     7    1
    7     7     8    1
    8     7     9    1
    9     7    10    1
   10    10    11    1
   11    10    12    1
   12    10    13    1
@<TRIPOS>SUBSTRUCTURE
       1 MOL1            1 RESIDUE      1      MOL     
@<SCITEGIC>MOL_PROPERTY
VConf Rank
SciTegic.value.IntegerValue
512

@<SCITEGIC>MOL_PROPERTY
Conf_Id
SciTegic.value.IntegerValue
36

@<SCITEGIC>MOL_PROPERTY
Delta U+W
SciTegic.value.DoubleValue
0.272

@<SCITEGIC>MOL_PROPERTY
U+W
SciTegic.value.DoubleValue
-58.060

@<SCITEGIC>MOL_PROPERTY
Grad RMS
SciTegic.value.DoubleValue
0.000000

@<SCITEGIC>MOL_PROPERTY
U
SciTegic.value.DoubleValue
9.781

@<SCITEGIC>MOL_PROPERTY
W
SciTegic.value.DoubleValue
-67.841

@<SCITEGIC>MOL_PROPERTY
W(PB)
SciTegic.value.DoubleValue
-69.537

@<SCITEGIC>MOL_PROPERTY
W(SA)
SciTegic.value.DoubleValue
1.696

@<SCITEGIC>MOL_PROPERTY
Valence
SciTegic.value.DoubleValue
6.123

@<SCITEGIC>MOL_PROPERTY
Coulomb
SciTegic.value.DoubleValue
3.449

@<SCITEGIC>MOL_PROPERTY
VdW
SciTegic.value.DoubleValue
0.209

@<SCITEGIC>MOL_PROPERTY
VdW6
SciTegic.value.DoubleValue
-3.762

@<SCITEGIC>MOL_PROPERTY
VdW12
SciTegic.value.DoubleValue
3.972

@<SCITEGIC>MOL_PROPERTY
Bond
SciTegic.value.DoubleValue
0.078

@<SCITEGIC>MOL_PROPERTY
Angle
SciTegic.value.DoubleValue
2.428

@<SCITEGIC>MOL_PROPERTY
Pdih
SciTegic.value.DoubleValue
3.616

@<SCITEGIC>MOL_PROPERTY
Idih
SciTegic.value.DoubleValue
0.002

@<SCITEGIC>MOL_PROPERTY
Tether
SciTegic.value.DoubleValue
0.000

@<TRIPOS>MOLECULE
guest-6_confgen4.mol2 : confsearch ligand conformer 513
          13          12           1
SMALL
USER_CHARGES
 
@<TRIPOS>ATOM
       1    C1      20.392829   16.909118   22.009773 C.2        1 MOL1         0.6021
       2    O1      21.379034   16.801509   21.307529 O.co2      1 MOL1        -0.6904
       3    O2      19.887534   15.968870   22.588916 O.co2      1 MOL1        -0.6904
       4    C2      19.734609   18.278114   22.192202 C.3        1 MOL1        -0.2102
       5    H1      19.719368   18.493779   23.267187 H          1 MOL1         0.0687
       6    H2      18.690803   18.185512   21.869354 H          1 MOL1         0.0687
       7    C3      20.414096   19.448410   21.434137 C.3        1 MOL1        -0.1974
       8    H3      21.460788   19.537637   21.756981 H          1 MOL1         0.0689
       9    H4      20.431027   19.228958   20.357425 H          1 MOL1         0.0689
      10    C4      19.683628   20.784569   21.676893 C.3        1 MOL1        -0.2987
      11    H5      19.680190   21.042241   22.744187 H          1 MOL1         0.0700
      12    H6      20.178345   21.599876   21.133030 H          1 MOL1         0.0700
      13    H7      18.642141   20.731053   21.333436 H          1 MOL1         0.0700
@<TRIPOS>BOND
    1     1     2    1
    2     1     3    2
    3     1     4    1
    4     4     5    1
    5     4     6    1
    6     4     7    1
    7     7     8    1
    8     7     9    1
    9     7    10    1
   10    10    11    1
   11    10    12    1
   12    10    13    1
@<TRIPOS>SUBSTRUCTURE
       1 MOL1            1 RESIDUE      1      MOL     
@<SCITEGIC>MOL_PROPERTY
VConf Rank
SciTegic.value.IntegerValue
513

@<SCITEGIC>MOL_PROPERTY
Conf_Id
SciTegic.value.IntegerValue
0

@<SCITEGIC>MOL_PROPERTY
Delta U+W
SciTegic.value.DoubleValue
0.000

@<SCITEGIC>MOL_PROPERTY
U+W
SciTegic.value.DoubleValue
-58.332

@<SCITEGIC>MOL_PROPERTY
Grad RMS
SciTegic.value.DoubleValue
0.000000

@<SCITEGIC>MOL_PROPERTY
U
SciTegic.value.DoubleValue
8.390

@<SCITEGIC>MOL_PROPERTY
W
SciTegic.value.DoubleValue
-66.722

@<SCITEGIC>MOL_PROPERTY
W(PB)
SciTegic.value.DoubleValue
-68.455

@<SCITEGIC>MOL_PROPERTY
W(SA)
SciTegic.value.DoubleValue
1.733

@<SCITEGIC>MOL_PROPERTY
Valence
SciTegic.value.DoubleValue
6.333

@<SCITEGIC>MOL_PROPERTY
Coulomb
SciTegic.value.DoubleValue
1.215

@<SCITEGIC>MOL_PROPERTY
VdW
SciTegic.value.DoubleValue
0.842

@<SCITEGIC>MOL_PROPERTY
VdW6
SciTegic.value.DoubleValue
-3.344

@<SCITEGIC>MOL_PROPERTY
VdW12
SciTegic.value.DoubleValue
4.186

@<SCITEGIC>MOL_PROPERTY
Bond
SciTegic.value.DoubleValue
0.091

@<SCITEGIC>MOL_PROPERTY
Angle
SciTegic.value.DoubleValue
2.713

@<SCITEGIC>MOL_PROPERTY
Pdih
SciTegic.value.DoubleValue
3.529

@<SCITEGIC>MOL_PROPERTY
Idih
SciTegic.value.DoubleValue
0.000

@<SCITEGIC>MOL_PROPERTY
Tether
SciTegic.value.DoubleValue
0.000

@<TRIPOS>MOLECULE
guest-6_confgen4.mol2 : confsearch ligand conformer 514
          13          12           1
SMALL
USER_CHARGES
 
@<TRIPOS>ATOM
       1    C1      21.247161   20.395887   20.812831 C.2        1 MOL1         0.6021
       2    O1      20.692941   21.190152   20.079793 O.co2      1 MOL1        -0.6904
       3    O2      22.404357   20.052409   20.677622 O.co2      1 MOL1        -0.6904
       4    C2      20.441221   19.782661   21.952969 C.3        1 MOL1        -0.2102
       5    H1      19.713269   20.527985   22.295892 H          1 MOL1         0.0687
       6    H2      21.124607   19.589754   22.788905 H          1 MOL1         0.0687
       7    C3      19.715627   18.477363   21.546082 C.3        1 MOL1        -0.1974
       8    H3      19.041675   18.680510   20.702079 H          1 MOL1         0.0689
       9    H4      20.453281   17.742073   21.195313 H          1 MOL1         0.0689
      10    C4      18.910683   17.883174   22.719238 C.3        1 MOL1        -0.2987
      11    H5      18.403864   16.959147   22.411715 H          1 MOL1         0.0700
      12    H6      19.568220   17.643701   23.565319 H          1 MOL1         0.0700
      13    H7      18.145770   18.589322   23.068265 H          1 MOL1         0.0700
@<TRIPOS>BOND
    1     1     2    1
    2     1     3    2
    3     1     4    1
    4     4     5    1
    5     4     6    1
    6     4     7    1
    7     7     8    1
    8     7     9    1
    9     7    10    1
   10    10    11    1
   11    10    12    1
   12    10    13    1
@<TRIPOS>SUBSTRUCTURE
       1 MOL1            1 RESIDUE      1      MOL     
@<SCITEGIC>MOL_PROPERTY
VConf Rank
SciTegic.value.IntegerValue
514

@<SCITEGIC>MOL_PROPERTY
Conf_Id
SciTegic.value.IntegerValue
1

@<SCITEGIC>MOL_PROPERTY
Delta U+W
SciTegic.value.DoubleValue
-1.339

@<SCITEGIC>MOL_PROPERTY
U+W
SciTegic.value.DoubleValue
-59.672

@<SCITEGIC>MOL_PROPERTY
Grad RMS
SciTegic.value.DoubleValue
0.000000

@<SCITEGIC>MOL_PROPERTY
U
SciTegic.value.DoubleValue
7.389

@<SCITEGIC>MOL_PROPERTY
W
SciTegic.value.DoubleValue
-67.061

@<SCITEGIC>MOL_PROPERTY
W(PB)
SciTegic.value.DoubleValue
-68.767

@<SCITEGIC>MOL_PROPERTY
W(SA)
SciTegic.value.DoubleValue
1.707

@<SCITEGIC>MOL_PROPERTY
Valence
SciTegic.value.DoubleValue
5.822

@<SCITEGIC>MOL_PROPERTY
Coulomb
SciTegic.value.DoubleValue
1.255

@<SCITEGIC>MOL_PROPERTY
VdW
SciTegic.value.DoubleValue
0.312

@<SCITEGIC>MOL_PROPERTY
VdW6
SciTegic.value.DoubleValue
-3.061

@<SCITEGIC>MOL_PROPERTY
VdW12
SciTegic.value.DoubleValue
3.372

@<SCITEGIC>MOL_PROPERTY
Bond
SciTegic.value.DoubleValue
0.059

@<SCITEGIC>MOL_PROPERTY
Angle
SciTegic.value.DoubleValue
2.241

@<SCITEGIC>MOL_PROPERTY
Pdih
SciTegic.value.DoubleValue
3.522

@<SCITEGIC>MOL_PROPERTY
Idih
SciTegic.value.DoubleValue
0.000

@<SCITEGIC>MOL_PROPERTY
Tether
SciTegic.value.DoubleValue
0.000

@<TRIPOS>MOLECULE
guest-6_confgen4.mol2 : confsearch ligand conformer 515
          13          12           1
SMALL
USER_CHARGES
 
@<TRIPOS>ATOM
       1    C1      19.580210   17.262313   22.070210 C.2        1 MOL1         0.6021
       2    O1      18.980530   16.936798   23.075458 O.co2      1 MOL1        -0.6904
       3    O2      19.275539   16.883940   20.956696 O.co2      1 MOL1        -0.6904
       4    C2      20.801858   18.165420   22.220874 C.3        1 MOL1        -0.2102
       5    H1      21.400303   18.102986   21.303675 H          1 MOL1         0.0687
       6    H2      21.416813   17.751559   23.028919 H          1 MOL1         0.0687
       7    C3      20.462415   19.644626   22.537209 C.3        1 MOL1        -0.1974
       8    H3      19.828635   19.692836   23.433825 H          1 MOL1         0.0689
       9    H4      21.389419   20.183332   22.776655 H          1 MOL1         0.0689
      10    C4      19.757250   20.352867   21.362021 C.3        1 MOL1        -0.2987
      11    H5      18.802240   19.866097   21.123613 H          1 MOL1         0.0700
      12    H6      19.549232   21.401586   21.611046 H          1 MOL1         0.0700
      13    H7      20.383740   20.335651   20.460574 H          1 MOL1         0.0700
@<TRIPOS>BOND
    1     1     2    1
    2     1     3    2
    3     1     4    1
    4     4     5    1
    5     4     6    1
    6     4     7    1
    7     7     8    1
    8     7     9    1
    9     7    10    1
   10    10    11    1
   11    10    12    1
   12    10    13    1
@<TRIPOS>SUBSTRUCTURE
       1 MOL1            1 RESIDUE      1      MOL     
@<SCITEGIC>MOL_PROPERTY
VConf Rank
SciTegic.value.IntegerValue
515

@<SCITEGIC>MOL_PROPERTY
Conf_Id
SciTegic.value.IntegerValue
4

@<SCITEGIC>MOL_PROPERTY
Delta U+W
SciTegic.value.DoubleValue
0.281

@<SCITEGIC>MOL_PROPERTY
U+W
SciTegic.value.DoubleValue
-58.051

@<SCITEGIC>MOL_PROPERTY
Grad RMS
SciTegic.value.DoubleValue
0.000000

@<SCITEGIC>MOL_PROPERTY
U
SciTegic.value.DoubleValue
9.781

@<SCITEGIC>MOL_PROPERTY
W
SciTegic.value.DoubleValue
-67.832

@<SCITEGIC>MOL_PROPERTY
W(PB)
SciTegic.value.DoubleValue
-69.535

@<SCITEGIC>MOL_PROPERTY
W(SA)
SciTegic.value.DoubleValue
1.703

@<SCITEGIC>MOL_PROPERTY
Valence
SciTegic.value.DoubleValue
6.123

@<SCITEGIC>MOL_PROPERTY
Coulomb
SciTegic.value.DoubleValue
3.449

@<SCITEGIC>MOL_PROPERTY
VdW
SciTegic.value.DoubleValue
0.209

@<SCITEGIC>MOL_PROPERTY
VdW6
SciTegic.value.DoubleValue
-3.762

@<SCITEGIC>MOL_PROPERTY
VdW12
SciTegic.value.DoubleValue
3.972

@<SCITEGIC>MOL_PROPERTY
Bond
SciTegic.value.DoubleValue
0.078

@<SCITEGIC>MOL_PROPERTY
Angle
SciTegic.value.DoubleValue
2.428

@<SCITEGIC>MOL_PROPERTY
Pdih
SciTegic.value.DoubleValue
3.616

@<SCITEGIC>MOL_PROPERTY
Idih
SciTegic.value.DoubleValue
0.002

@<SCITEGIC>MOL_PROPERTY
Tether
SciTegic.value.DoubleValue
0.000

@<TRIPOS>MOLECULE
guest-6_confgen4.mol2 : confsearch ligand conformer 516
          13          12           1
SMALL
USER_CHARGES
 
@<TRIPOS>ATOM
       1    C1      21.174046   19.044912   23.441519 C.2        1 MOL1         0.6021
       2    O1      20.573817   19.570267   24.357834 O.co2      1 MOL1        -0.6904
       3    O2      21.942716   18.115817   23.589934 O.co2      1 MOL1        -0.6904
       4    C2      20.981519   19.602626   22.033466 C.3        1 MOL1        -0.2102
       5    H1      21.977853   19.734668   21.594979 H          1 MOL1         0.0687
       6    H2      20.533929   20.601235   22.109167 H          1 MOL1         0.0687
       7    C3      20.125220   18.702671   21.106014 C.3        1 MOL1        -0.1974
       8    H3      20.164771   19.099846   20.082510 H          1 MOL1         0.0689
       9    H4      20.559050   17.693502   21.070053 H          1 MOL1         0.0689
      10    C4      18.652550   18.620897   21.558212 C.3        1 MOL1        -0.2987
      11    H5      18.192719   19.617634   21.579725 H          1 MOL1         0.0700
      12    H6      18.070966   17.993357   20.870427 H          1 MOL1         0.0700
      13    H7      18.571855   18.185744   22.563178 H          1 MOL1         0.0700
@<TRIPOS>BOND
    1     1     2    1
    2     1     3    2
    3     1     4    1
    4     4     5    1
    5     4     6    1
    6     4     7    1
    7     7     8    1
    8     7     9    1
    9     7    10    1
   10    10    11    1
   11    10    12    1
   12    10    13    1
@<TRIPOS>SUBSTRUCTURE
       1 MOL1            1 RESIDUE      1      MOL     
@<SCITEGIC>MOL_PROPERTY
VConf Rank
SciTegic.value.IntegerValue
516

@<SCITEGIC>MOL_PROPERTY
Conf_Id
SciTegic.value.IntegerValue
36

@<SCITEGIC>MOL_PROPERTY
Delta U+W
SciTegic.value.DoubleValue
0.272

@<SCITEGIC>MOL_PROPERTY
U+W
SciTegic.value.DoubleValue
-58.060

@<SCITEGIC>MOL_PROPERTY
Grad RMS
SciTegic.value.DoubleValue
0.000000

@<SCITEGIC>MOL_PROPERTY
U
SciTegic.value.DoubleValue
9.781

@<SCITEGIC>MOL_PROPERTY
W
SciTegic.value.DoubleValue
-67.841

@<SCITEGIC>MOL_PROPERTY
W(PB)
SciTegic.value.DoubleValue
-69.537

@<SCITEGIC>MOL_PROPERTY
W(SA)
SciTegic.value.DoubleValue
1.696

@<SCITEGIC>MOL_PROPERTY
Valence
SciTegic.value.DoubleValue
6.123

@<SCITEGIC>MOL_PROPERTY
Coulomb
SciTegic.value.DoubleValue
3.449

@<SCITEGIC>MOL_PROPERTY
VdW
SciTegic.value.DoubleValue
0.209

@<SCITEGIC>MOL_PROPERTY
VdW6
SciTegic.value.DoubleValue
-3.762

@<SCITEGIC>MOL_PROPERTY
VdW12
SciTegic.value.DoubleValue
3.972

@<SCITEGIC>MOL_PROPERTY
Bond
SciTegic.value.DoubleValue
0.078

@<SCITEGIC>MOL_PROPERTY
Angle
SciTegic.value.DoubleValue
2.428

@<SCITEGIC>MOL_PROPERTY
Pdih
SciTegic.value.DoubleValue
3.616

@<SCITEGIC>MOL_PROPERTY
Idih
SciTegic.value.DoubleValue
0.002

@<SCITEGIC>MOL_PROPERTY
Tether
SciTegic.value.DoubleValue
0.000

@<TRIPOS>MOLECULE
guest-6_confgen4.mol2 : confsearch ligand conformer 517
          13          12           1
SMALL
USER_CHARGES
 
@<TRIPOS>ATOM
       1    C1      21.849347   19.578066   20.884114 C.2        1 MOL1         0.6021
       2    O1      21.895377   20.748915   21.207105 O.co2      1 MOL1        -0.6904
       3    O2      22.703670   19.045236   20.205129 O.co2      1 MOL1        -0.6904
       4    C2      20.674313   18.709520   21.337550 C.3        1 MOL1        -0.2102
       5    H1      21.089522   17.861852   21.895580 H          1 MOL1         0.0687
       6    H2      20.202878   18.299591   20.436415 H          1 MOL1         0.0687
       7    C3      19.608456   19.432378   22.202064 C.3        1 MOL1        -0.1974
       8    H3      20.083472   19.844931   23.103128 H          1 MOL1         0.0689
       9    H4      19.195786   20.283262   21.642194 H          1 MOL1         0.0689
      10    C4      18.465915   18.480868   22.610796 C.3        1 MOL1        -0.2987
      11    H5      18.849069   17.636774   23.199202 H          1 MOL1         0.0700
      12    H6      17.722290   19.009664   23.221251 H          1 MOL1         0.0700
      13    H7      17.954295   18.078588   21.726523 H          1 MOL1         0.0700
@<TRIPOS>BOND
    1     1     2    1
    2     1     3    2
    3     1     4    1
    4     4     5    1
    5     4     6    1
    6     4     7    1
    7     7     8    1
    8     7     9    1
    9     7    10    1
   10    10    11    1
   11    10    12    1
   12    10    13    1
@<TRIPOS>SUBSTRUCTURE
       1 MOL1            1 RESIDUE      1      MOL     
@<SCITEGIC>MOL_PROPERTY
VConf Rank
SciTegic.value.IntegerValue
517

@<SCITEGIC>MOL_PROPERTY
Conf_Id
SciTegic.value.IntegerValue
0

@<SCITEGIC>MOL_PROPERTY
Delta U+W
SciTegic.value.DoubleValue
0.000

@<SCITEGIC>MOL_PROPERTY
U+W
SciTegic.value.DoubleValue
-58.332

@<SCITEGIC>MOL_PROPERTY
Grad RMS
SciTegic.value.DoubleValue
0.000000

@<SCITEGIC>MOL_PROPERTY
U
SciTegic.value.DoubleValue
8.390

@<SCITEGIC>MOL_PROPERTY
W
SciTegic.value.DoubleValue
-66.722

@<SCITEGIC>MOL_PROPERTY
W(PB)
SciTegic.value.DoubleValue
-68.455

@<SCITEGIC>MOL_PROPERTY
W(SA)
SciTegic.value.DoubleValue
1.733

@<SCITEGIC>MOL_PROPERTY
Valence
SciTegic.value.DoubleValue
6.333

@<SCITEGIC>MOL_PROPERTY
Coulomb
SciTegic.value.DoubleValue
1.215

@<SCITEGIC>MOL_PROPERTY
VdW
SciTegic.value.DoubleValue
0.842

@<SCITEGIC>MOL_PROPERTY
VdW6
SciTegic.value.DoubleValue
-3.344

@<SCITEGIC>MOL_PROPERTY
VdW12
SciTegic.value.DoubleValue
4.186

@<SCITEGIC>MOL_PROPERTY
Bond
SciTegic.value.DoubleValue
0.091

@<SCITEGIC>MOL_PROPERTY
Angle
SciTegic.value.DoubleValue
2.713

@<SCITEGIC>MOL_PROPERTY
Pdih
SciTegic.value.DoubleValue
3.529

@<SCITEGIC>MOL_PROPERTY
Idih
SciTegic.value.DoubleValue
0.000

@<SCITEGIC>MOL_PROPERTY
Tether
SciTegic.value.DoubleValue
0.000

@<TRIPOS>MOLECULE
guest-6_confgen4.mol2 : confsearch ligand conformer 518
          13          12           1
SMALL
USER_CHARGES
 
@<TRIPOS>ATOM
       1    C1      20.215436   16.987801   22.278642 C.2        1 MOL1         0.6021
       2    O1      21.045777   16.387760   21.626072 O.co2      1 MOL1        -0.6904
       3    O2      19.267191   16.450640   22.814971 O.co2      1 MOL1        -0.6904
       4    C2      20.360889   18.499554   22.416285 C.3        1 MOL1        -0.2102
       5    H1      21.430789   18.741074   22.415372 H          1 MOL1         0.0687
       6    H2      19.964077   18.792923   23.395822 H          1 MOL1         0.0687
       7    C3      19.637518   19.280879   21.292847 C.3        1 MOL1        -0.1974
       8    H3      20.036008   18.971803   20.316374 H          1 MOL1         0.0689
       9    H4      18.569017   19.023761   21.297094 H          1 MOL1         0.0689
      10    C4      19.803464   20.804592   21.460332 C.3        1 MOL1        -0.2987
      11    H5      19.284269   21.340928   20.655322 H          1 MOL1         0.0700
      12    H6      19.385003   21.142393   22.417587 H          1 MOL1         0.0700
      13    H7      20.863238   21.090028   21.429304 H          1 MOL1         0.0700
@<TRIPOS>BOND
    1     1     2    1
    2     1     3    2
    3     1     4    1
    4     4     5    1
    5     4     6    1
    6     4     7    1
    7     7     8    1
    8     7     9    1
    9     7    10    1
   10    10    11    1
   11    10    12    1
   12    10    13    1
@<TRIPOS>SUBSTRUCTURE
       1 MOL1            1 RESIDUE      1      MOL     
@<SCITEGIC>MOL_PROPERTY
VConf Rank
SciTegic.value.IntegerValue
518

@<SCITEGIC>MOL_PROPERTY
Conf_Id
SciTegic.value.IntegerValue
1

@<SCITEGIC>MOL_PROPERTY
Delta U+W
SciTegic.value.DoubleValue
-1.339

@<SCITEGIC>MOL_PROPERTY
U+W
SciTegic.value.DoubleValue
-59.672

@<SCITEGIC>MOL_PROPERTY
Grad RMS
SciTegic.value.DoubleValue
0.000000

@<SCITEGIC>MOL_PROPERTY
U
SciTegic.value.DoubleValue
7.389

@<SCITEGIC>MOL_PROPERTY
W
SciTegic.value.DoubleValue
-67.061

@<SCITEGIC>MOL_PROPERTY
W(PB)
SciTegic.value.DoubleValue
-68.767

@<SCITEGIC>MOL_PROPERTY
W(SA)
SciTegic.value.DoubleValue
1.707

@<SCITEGIC>MOL_PROPERTY
Valence
SciTegic.value.DoubleValue
5.822

@<SCITEGIC>MOL_PROPERTY
Coulomb
SciTegic.value.DoubleValue
1.255

@<SCITEGIC>MOL_PROPERTY
VdW
SciTegic.value.DoubleValue
0.312

@<SCITEGIC>MOL_PROPERTY
VdW6
SciTegic.value.DoubleValue
-3.061

@<SCITEGIC>MOL_PROPERTY
VdW12
SciTegic.value.DoubleValue
3.372

@<SCITEGIC>MOL_PROPERTY
Bond
SciTegic.value.DoubleValue
0.059

@<SCITEGIC>MOL_PROPERTY
Angle
SciTegic.value.DoubleValue
2.241

@<SCITEGIC>MOL_PROPERTY
Pdih
SciTegic.value.DoubleValue
3.522

@<SCITEGIC>MOL_PROPERTY
Idih
SciTegic.value.DoubleValue
0.000

@<SCITEGIC>MOL_PROPERTY
Tether
SciTegic.value.DoubleValue
0.000

@<TRIPOS>MOLECULE
guest-6_confgen4.mol2 : confsearch ligand conformer 519
          13          12           1
SMALL
USER_CHARGES
 
@<TRIPOS>ATOM
       1    C1      21.604353   19.391074   22.915533 C.2        1 MOL1         0.6021
       2    O1      22.467791   19.978562   22.294701 O.co2      1 MOL1        -0.6904
       3    O2      21.309073   19.654235   24.064211 O.co2      1 MOL1        -0.6904
       4    C2      20.878792   18.238633   22.225484 C.3        1 MOL1        -0.2102
       5    H1      20.385458   17.625913   22.990000 H          1 MOL1         0.0687
       6    H2      21.641739   17.605922   21.756470 H          1 MOL1         0.0687
       7    C3      19.850823   18.686201   21.154830 C.3        1 MOL1        -0.1974
       8    H3      20.346217   19.332899   20.417071 H          1 MOL1         0.0689
       9    H4      19.491537   17.802855   20.609406 H          1 MOL1         0.0689
      10    C4      18.643497   19.425237   21.768117 C.3        1 MOL1        -0.2987
      11    H5      18.961883   20.340219   22.285094 H          1 MOL1         0.0700
      12    H6      17.926867   19.710306   20.986917 H          1 MOL1         0.0700
      13    H7      18.120152   18.787953   22.492942 H          1 MOL1         0.0700
@<TRIPOS>BOND
    1     1     2    1
    2     1     3    2
    3     1     4    1
    4     4     5    1
    5     4     6    1
    6     4     7    1
    7     7     8    1
    8     7     9    1
    9     7    10    1
   10    10    11    1
   11    10    12    1
   12    10    13    1
@<TRIPOS>SUBSTRUCTURE
       1 MOL1            1 RESIDUE      1      MOL     
@<SCITEGIC>MOL_PROPERTY
VConf Rank
SciTegic.value.IntegerValue
519

@<SCITEGIC>MOL_PROPERTY
Conf_Id
SciTegic.value.IntegerValue
4

@<SCITEGIC>MOL_PROPERTY
Delta U+W
SciTegic.value.DoubleValue
0.281

@<SCITEGIC>MOL_PROPERTY
U+W
SciTegic.value.DoubleValue
-58.051

@<SCITEGIC>MOL_PROPERTY
Grad RMS
SciTegic.value.DoubleValue
0.000000

@<SCITEGIC>MOL_PROPERTY
U
SciTegic.value.DoubleValue
9.781

@<SCITEGIC>MOL_PROPERTY
W
SciTegic.value.DoubleValue
-67.832

@<SCITEGIC>MOL_PROPERTY
W(PB)
SciTegic.value.DoubleValue
-69.535

@<SCITEGIC>MOL_PROPERTY
W(SA)
SciTegic.value.DoubleValue
1.703

@<SCITEGIC>MOL_PROPERTY
Valence
SciTegic.value.DoubleValue
6.123

@<SCITEGIC>MOL_PROPERTY
Coulomb
SciTegic.value.DoubleValue
3.449

@<SCITEGIC>MOL_PROPERTY
VdW
SciTegic.value.DoubleValue
0.209

@<SCITEGIC>MOL_PROPERTY
VdW6
SciTegic.value.DoubleValue
-3.762

@<SCITEGIC>MOL_PROPERTY
VdW12
SciTegic.value.DoubleValue
3.972

@<SCITEGIC>MOL_PROPERTY
Bond
SciTegic.value.DoubleValue
0.078

@<SCITEGIC>MOL_PROPERTY
Angle
SciTegic.value.DoubleValue
2.428

@<SCITEGIC>MOL_PROPERTY
Pdih
SciTegic.value.DoubleValue
3.616

@<SCITEGIC>MOL_PROPERTY
Idih
SciTegic.value.DoubleValue
0.002

@<SCITEGIC>MOL_PROPERTY
Tether
SciTegic.value.DoubleValue
0.000

@<TRIPOS>MOLECULE
guest-6_confgen4.mol2 : confsearch ligand conformer 520
          13          12           1
SMALL
USER_CHARGES
 
@<TRIPOS>ATOM
       1    C1      19.472752   18.951472   20.324730 C.2        1 MOL1         0.6021
       2    O1      18.871399   17.913972   20.130119 O.co2      1 MOL1        -0.6904
       3    O2      19.117929   20.024745   19.879439 O.co2      1 MOL1        -0.6904
       4    C2      20.761642   18.901016   21.141395 C.3        1 MOL1        -0.2102
       5    H1      21.523192   19.460725   20.585380 H          1 MOL1         0.0687
       6    H2      21.106064   17.860705   21.190508 H          1 MOL1         0.0687
       7    C3      20.630988   19.488162   22.570215 C.3        1 MOL1        -0.1974
       8    H3      21.628430   19.550169   23.026434 H          1 MOL1         0.0689
       9    H4      20.246139   20.515967   22.511647 H          1 MOL1         0.0689
      10    C4      19.714607   18.639499   23.475722 C.3        1 MOL1        -0.2987
      11    H5      20.093717   17.613088   23.565984 H          1 MOL1         0.0700
      12    H6      19.659599   19.071076   24.483597 H          1 MOL1         0.0700
      13    H7      18.694553   18.592579   23.071847 H          1 MOL1         0.0700
@<TRIPOS>BOND
    1     1     2    1
    2     1     3    2
    3     1     4    1
    4     4     5    1
    5     4     6    1
    6     4     7    1
    7     7     8    1
    8     7     9    1
    9     7    10    1
   10    10    11    1
   11    10    12    1
   12    10    13    1
@<TRIPOS>SUBSTRUCTURE
       1 MOL1            1 RESIDUE      1      MOL     
@<SCITEGIC>MOL_PROPERTY
VConf Rank
SciTegic.value.IntegerValue
520

@<SCITEGIC>MOL_PROPERTY
Conf_Id
SciTegic.value.IntegerValue
36

@<SCITEGIC>MOL_PROPERTY
Delta U+W
SciTegic.value.DoubleValue
0.272

@<SCITEGIC>MOL_PROPERTY
U+W
SciTegic.value.DoubleValue
-58.060

@<SCITEGIC>MOL_PROPERTY
Grad RMS
SciTegic.value.DoubleValue
0.000000

@<SCITEGIC>MOL_PROPERTY
U
SciTegic.value.DoubleValue
9.781

@<SCITEGIC>MOL_PROPERTY
W
SciTegic.value.DoubleValue
-67.841

@<SCITEGIC>MOL_PROPERTY
W(PB)
SciTegic.value.DoubleValue
-69.537

@<SCITEGIC>MOL_PROPERTY
W(SA)
SciTegic.value.DoubleValue
1.696

@<SCITEGIC>MOL_PROPERTY
Valence
SciTegic.value.DoubleValue
6.123

@<SCITEGIC>MOL_PROPERTY
Coulomb
SciTegic.value.DoubleValue
3.449

@<SCITEGIC>MOL_PROPERTY
VdW
SciTegic.value.DoubleValue
0.209

@<SCITEGIC>MOL_PROPERTY
VdW6
SciTegic.value.DoubleValue
-3.762

@<SCITEGIC>MOL_PROPERTY
VdW12
SciTegic.value.DoubleValue
3.972

@<SCITEGIC>MOL_PROPERTY
Bond
SciTegic.value.DoubleValue
0.078

@<SCITEGIC>MOL_PROPERTY
Angle
SciTegic.value.DoubleValue
2.428

@<SCITEGIC>MOL_PROPERTY
Pdih
SciTegic.value.DoubleValue
3.616

@<SCITEGIC>MOL_PROPERTY
Idih
SciTegic.value.DoubleValue
0.002

@<SCITEGIC>MOL_PROPERTY
Tether
SciTegic.value.DoubleValue
0.000

@<TRIPOS>MOLECULE
guest-6_confgen4.mol2 : confsearch ligand conformer 521
          13          12           1
SMALL
USER_CHARGES
 
@<TRIPOS>ATOM
       1    C1      19.526184   21.069949   21.960574 C.2        1 MOL1         0.6021
       2    O1      20.495457   21.560415   21.415339 O.co2      1 MOL1        -0.6904
       3    O2      18.612326   21.733447   22.407151 O.co2      1 MOL1        -0.6904
       4    C2      19.423393   19.550491   22.106736 C.3        1 MOL1        -0.2102
       5    H1      18.491122   19.236961   21.622063 H          1 MOL1         0.0687
       6    H2      19.318237   19.330463   23.175785 H          1 MOL1         0.0687
       7    C3      20.612853   18.744734   21.522016 C.3        1 MOL1        -0.1974
       8    H3      20.718316   18.968873   20.451318 H          1 MOL1         0.0689
       9    H4      21.546469   19.062545   22.006900 H          1 MOL1         0.0689
      10    C4      20.422068   17.226777   21.714998 C.3        1 MOL1        -0.2987
      11    H5      19.510254   16.878319   21.212310 H          1 MOL1         0.0700
      12    H6      21.272709   16.673909   21.295469 H          1 MOL1         0.0700
      13    H7      20.345004   16.972760   22.780390 H          1 MOL1         0.0700
@<TRIPOS>BOND
    1     1     2    1
    2     1     3    2
    3     1     4    1
    4     4     5    1
    5     4     6    1
    6     4     7    1
    7     7     8    1
    8     7     9    1
    9     7    10    1
   10    10    11    1
   11    10    12    1
   12    10    13    1
@<TRIPOS>SUBSTRUCTURE
       1 MOL1            1 RESIDUE      1      MOL     
@<SCITEGIC>MOL_PROPERTY
VConf Rank
SciTegic.value.IntegerValue
521

@<SCITEGIC>MOL_PROPERTY
Conf_Id
SciTegic.value.IntegerValue
0

@<SCITEGIC>MOL_PROPERTY
Delta U+W
SciTegic.value.DoubleValue
0.000

@<SCITEGIC>MOL_PROPERTY
U+W
SciTegic.value.DoubleValue
-58.332

@<SCITEGIC>MOL_PROPERTY
Grad RMS
SciTegic.value.DoubleValue
0.000000

@<SCITEGIC>MOL_PROPERTY
U
SciTegic.value.DoubleValue
8.390

@<SCITEGIC>MOL_PROPERTY
W
SciTegic.value.DoubleValue
-66.722

@<SCITEGIC>MOL_PROPERTY
W(PB)
SciTegic.value.DoubleValue
-68.455

@<SCITEGIC>MOL_PROPERTY
W(SA)
SciTegic.value.DoubleValue
1.733

@<SCITEGIC>MOL_PROPERTY
Valence
SciTegic.value.DoubleValue
6.333

@<SCITEGIC>MOL_PROPERTY
Coulomb
SciTegic.value.DoubleValue
1.215

@<SCITEGIC>MOL_PROPERTY
VdW
SciTegic.value.DoubleValue
0.842

@<SCITEGIC>MOL_PROPERTY
VdW6
SciTegic.value.DoubleValue
-3.344

@<SCITEGIC>MOL_PROPERTY
VdW12
SciTegic.value.DoubleValue
4.186

@<SCITEGIC>MOL_PROPERTY
Bond
SciTegic.value.DoubleValue
0.091

@<SCITEGIC>MOL_PROPERTY
Angle
SciTegic.value.DoubleValue
2.713

@<SCITEGIC>MOL_PROPERTY
Pdih
SciTegic.value.DoubleValue
3.529

@<SCITEGIC>MOL_PROPERTY
Idih
SciTegic.value.DoubleValue
0.000

@<SCITEGIC>MOL_PROPERTY
Tether
SciTegic.value.DoubleValue
0.000

@<TRIPOS>MOLECULE
guest-6_confgen4.mol2 : confsearch ligand conformer 522
          13          12           1
SMALL
USER_CHARGES
 
@<TRIPOS>ATOM
       1    C1      19.006237   17.304170   22.526274 C.2        1 MOL1         0.6021
       2    O1      17.872754   17.135635   22.123568 O.co2      1 MOL1        -0.6904
       3    O2      19.427771   16.830114   23.562102 O.co2      1 MOL1        -0.6904
       4    C2      19.944927   18.173223   21.696148 C.3        1 MOL1        -0.2102
       5    H1      19.683246   18.044903   20.638757 H          1 MOL1         0.0687
       6    H2      20.965606   17.792935   21.825045 H          1 MOL1         0.0687
       7    C3      19.881722   19.670735   22.082555 C.3        1 MOL1        -0.1974
       8    H3      18.853284   20.037999   21.959052 H          1 MOL1         0.0689
       9    H4      20.136006   19.785991   23.145512 H          1 MOL1         0.0689
      10    C4      20.840992   20.521396   21.226127 C.3        1 MOL1        -0.2987
      11    H5      20.782084   21.579053   21.514491 H          1 MOL1         0.0700
      12    H6      21.880318   20.192008   21.355969 H          1 MOL1         0.0700
      13    H7      20.587726   20.445974   20.160423 H          1 MOL1         0.0700
@<TRIPOS>BOND
    1     1     2    1
    2     1     3    2
    3     1     4    1
    4     4     5    1
    5     4     6    1
    6     4     7    1
    7     7     8    1
    8     7     9    1
    9     7    10    1
   10    10    11    1
   11    10    12    1
   12    10    13    1
@<TRIPOS>SUBSTRUCTURE
       1 MOL1            1 RESIDUE      1      MOL     
@<SCITEGIC>MOL_PROPERTY
VConf Rank
SciTegic.value.IntegerValue
522

@<SCITEGIC>MOL_PROPERTY
Conf_Id
SciTegic.value.IntegerValue
1

@<SCITEGIC>MOL_PROPERTY
Delta U+W
SciTegic.value.DoubleValue
-1.339

@<SCITEGIC>MOL_PROPERTY
U+W
SciTegic.value.DoubleValue
-59.672

@<SCITEGIC>MOL_PROPERTY
Grad RMS
SciTegic.value.DoubleValue
0.000000

@<SCITEGIC>MOL_PROPERTY
U
SciTegic.value.DoubleValue
7.389

@<SCITEGIC>MOL_PROPERTY
W
SciTegic.value.DoubleValue
-67.061

@<SCITEGIC>MOL_PROPERTY
W(PB)
SciTegic.value.DoubleValue
-68.767

@<SCITEGIC>MOL_PROPERTY
W(SA)
SciTegic.value.DoubleValue
1.707

@<SCITEGIC>MOL_PROPERTY
Valence
SciTegic.value.DoubleValue
5.822

@<SCITEGIC>MOL_PROPERTY
Coulomb
SciTegic.value.DoubleValue
1.255

@<SCITEGIC>MOL_PROPERTY
VdW
SciTegic.value.DoubleValue
0.312

@<SCITEGIC>MOL_PROPERTY
VdW6
SciTegic.value.DoubleValue
-3.061

@<SCITEGIC>MOL_PROPERTY
VdW12
SciTegic.value.DoubleValue
3.372

@<SCITEGIC>MOL_PROPERTY
Bond
SciTegic.value.DoubleValue
0.059

@<SCITEGIC>MOL_PROPERTY
Angle
SciTegic.value.DoubleValue
2.241

@<SCITEGIC>MOL_PROPERTY
Pdih
SciTegic.value.DoubleValue
3.522

@<SCITEGIC>MOL_PROPERTY
Idih
SciTegic.value.DoubleValue
0.000

@<SCITEGIC>MOL_PROPERTY
Tether
SciTegic.value.DoubleValue
0.000

@<TRIPOS>MOLECULE
guest-6_confgen4.mol2 : confsearch ligand conformer 523
          13          12           1
SMALL
USER_CHARGES
 
@<TRIPOS>ATOM
       1    C1      21.270126   20.101265   21.212757 C.2        1 MOL1         0.6021
       2    O1      22.062446   20.653821   21.949649 O.co2      1 MOL1        -0.6904
       3    O2      21.559401   19.688245   20.107480 O.co2      1 MOL1        -0.6904
       4    C2      19.827328   19.951487   21.688812 C.3        1 MOL1        -0.2102
       5    H1      19.190903   19.740567   20.820616 H          1 MOL1         0.0687
       6    H2      19.510914   20.923954   22.084509 H          1 MOL1         0.0687
       7    C3      19.627034   18.863203   22.774565 C.3        1 MOL1        -0.1974
       8    H3      20.298843   19.060835   23.621641 H          1 MOL1         0.0689
       9    H4      18.601581   18.927222   23.163435 H          1 MOL1         0.0689
      10    C4      19.873471   17.438947   22.235408 C.3        1 MOL1        -0.2987
      11    H5      20.905511   17.325363   21.877888 H          1 MOL1         0.0700
      12    H6      19.704354   16.692694   23.022556 H          1 MOL1         0.0700
      13    H7      19.196272   17.212404   21.401458 H          1 MOL1         0.0700
@<TRIPOS>BOND
    1     1     2    1
    2     1     3    2
    3     1     4    1
    4     4     5    1
    5     4     6    1
    6     4     7    1
    7     7     8    1
    8     7     9    1
    9     7    10    1
   10    10    11    1
   11    10    12    1
   12    10    13    1
@<TRIPOS>SUBSTRUCTURE
       1 MOL1            1 RESIDUE      1      MOL     
@<SCITEGIC>MOL_PROPERTY
VConf Rank
SciTegic.value.IntegerValue
523

@<SCITEGIC>MOL_PROPERTY
Conf_Id
SciTegic.value.IntegerValue
4

@<SCITEGIC>MOL_PROPERTY
Delta U+W
SciTegic.value.DoubleValue
0.281

@<SCITEGIC>MOL_PROPERTY
U+W
SciTegic.value.DoubleValue
-58.051

@<SCITEGIC>MOL_PROPERTY
Grad RMS
SciTegic.value.DoubleValue
0.000000

@<SCITEGIC>MOL_PROPERTY
U
SciTegic.value.DoubleValue
9.781

@<SCITEGIC>MOL_PROPERTY
W
SciTegic.value.DoubleValue
-67.832

@<SCITEGIC>MOL_PROPERTY
W(PB)
SciTegic.value.DoubleValue
-69.535

@<SCITEGIC>MOL_PROPERTY
W(SA)
SciTegic.value.DoubleValue
1.703

@<SCITEGIC>MOL_PROPERTY
Valence
SciTegic.value.DoubleValue
6.123

@<SCITEGIC>MOL_PROPERTY
Coulomb
SciTegic.value.DoubleValue
3.449

@<SCITEGIC>MOL_PROPERTY
VdW
SciTegic.value.DoubleValue
0.209

@<SCITEGIC>MOL_PROPERTY
VdW6
SciTegic.value.DoubleValue
-3.762

@<SCITEGIC>MOL_PROPERTY
VdW12
SciTegic.value.DoubleValue
3.972

@<SCITEGIC>MOL_PROPERTY
Bond
SciTegic.value.DoubleValue
0.078

@<SCITEGIC>MOL_PROPERTY
Angle
SciTegic.value.DoubleValue
2.428

@<SCITEGIC>MOL_PROPERTY
Pdih
SciTegic.value.DoubleValue
3.616

@<SCITEGIC>MOL_PROPERTY
Idih
SciTegic.value.DoubleValue
0.002

@<SCITEGIC>MOL_PROPERTY
Tether
SciTegic.value.DoubleValue
0.000

@<TRIPOS>MOLECULE
guest-6_confgen4.mol2 : confsearch ligand conformer 524
          13          12           1
SMALL
USER_CHARGES
 
@<TRIPOS>ATOM
       1    C1      20.636845   19.052067   23.709433 C.2        1 MOL1         0.6021
       2    O1      21.771687   19.481443   23.770050 O.co2      1 MOL1        -0.6904
       3    O2      19.771870   19.329724   24.516168 O.co2      1 MOL1        -0.6904
       4    C2      20.286282   18.084443   22.581809 C.3        1 MOL1        -0.2102
       5    H1      19.764922   17.231737   23.032875 H          1 MOL1         0.0687
       6    H2      21.216837   17.694873   22.151007 H          1 MOL1         0.0687
       7    C3      19.399922   18.700824   21.469254 C.3        1 MOL1        -0.1974
       8    H3      19.074224   17.904542   20.786079 H          1 MOL1         0.0689
       9    H4      18.489961   19.124743   21.916674 H          1 MOL1         0.0689
      10    C4      20.138034   19.787757   20.660741 C.3        1 MOL1        -0.2987
      11    H5      21.039918   19.379316   20.186218 H          1 MOL1         0.0700
      12    H6      19.490307   20.188702   19.870305 H          1 MOL1         0.0700
      13    H7      20.440205   20.623003   21.306406 H          1 MOL1         0.0700
@<TRIPOS>BOND
    1     1     2    1
    2     1     3    2
    3     1     4    1
    4     4     5    1
    5     4     6    1
    6     4     7    1
    7     7     8    1
    8     7     9    1
    9     7    10    1
   10    10    11    1
   11    10    12    1
   12    10    13    1
@<TRIPOS>SUBSTRUCTURE
       1 MOL1            1 RESIDUE      1      MOL     
@<SCITEGIC>MOL_PROPERTY
VConf Rank
SciTegic.value.IntegerValue
524

@<SCITEGIC>MOL_PROPERTY
Conf_Id
SciTegic.value.IntegerValue
36

@<SCITEGIC>MOL_PROPERTY
Delta U+W
SciTegic.value.DoubleValue
0.272

@<SCITEGIC>MOL_PROPERTY
U+W
SciTegic.value.DoubleValue
-58.060

@<SCITEGIC>MOL_PROPERTY
Grad RMS
SciTegic.value.DoubleValue
0.000000

@<SCITEGIC>MOL_PROPERTY
U
SciTegic.value.DoubleValue
9.781

@<SCITEGIC>MOL_PROPERTY
W
SciTegic.value.DoubleValue
-67.841

@<SCITEGIC>MOL_PROPERTY
W(PB)
SciTegic.value.DoubleValue
-69.537

@<SCITEGIC>MOL_PROPERTY
W(SA)
SciTegic.value.DoubleValue
1.696

@<SCITEGIC>MOL_PROPERTY
Valence
SciTegic.value.DoubleValue
6.123

@<SCITEGIC>MOL_PROPERTY
Coulomb
SciTegic.value.DoubleValue
3.449

@<SCITEGIC>MOL_PROPERTY
VdW
SciTegic.value.DoubleValue
0.209

@<SCITEGIC>MOL_PROPERTY
VdW6
SciTegic.value.DoubleValue
-3.762

@<SCITEGIC>MOL_PROPERTY
VdW12
SciTegic.value.DoubleValue
3.972

@<SCITEGIC>MOL_PROPERTY
Bond
SciTegic.value.DoubleValue
0.078

@<SCITEGIC>MOL_PROPERTY
Angle
SciTegic.value.DoubleValue
2.428

@<SCITEGIC>MOL_PROPERTY
Pdih
SciTegic.value.DoubleValue
3.616

@<SCITEGIC>MOL_PROPERTY
Idih
SciTegic.value.DoubleValue
0.002

@<SCITEGIC>MOL_PROPERTY
Tether
SciTegic.value.DoubleValue
0.000

@<TRIPOS>MOLECULE
guest-6_confgen4.mol2 : confsearch ligand conformer 525
          13          12           1
SMALL
USER_CHARGES
 
@<TRIPOS>ATOM
       1    C1      20.601757   17.726659   23.429875 C.2        1 MOL1         0.6021
       2    O1      21.471203   17.074938   22.885217 O.co2      1 MOL1        -0.6904
       3    O2      20.278898   17.560837   24.588780 O.co2      1 MOL1        -0.6904
       4    C2      19.861610   18.812573   22.646513 C.3        1 MOL1        -0.2102
       5    H1      19.996135   19.756555   23.187936 H          1 MOL1         0.0687
       6    H2      18.792447   18.571979   22.683132 H          1 MOL1         0.0687
       7    C3      20.307358   18.988319   21.171257 C.3        1 MOL1        -0.1974
       8    H3      21.379659   19.226495   21.136643 H          1 MOL1         0.0689
       9    H4      20.174561   18.040433   20.631228 H          1 MOL1         0.0689
      10    C4      19.508520   20.101467   20.463730 C.3        1 MOL1        -0.2987
      11    H5      19.649725   21.067010   20.967029 H          1 MOL1         0.0700
      12    H6      19.837579   20.210943   19.422101 H          1 MOL1         0.0700
      13    H7      18.434941   19.871438   20.457610 H          1 MOL1         0.0700
@<TRIPOS>BOND
    1     1     2    1
    2     1     3    2
    3     1     4    1
    4     4     5    1
    5     4     6    1
    6     4     7    1
    7     7     8    1
    8     7     9    1
    9     7    10    1
   10    10    11    1
   11    10    12    1
   12    10    13    1
@<TRIPOS>SUBSTRUCTURE
       1 MOL1            1 RESIDUE      1      MOL     
@<SCITEGIC>MOL_PROPERTY
VConf Rank
SciTegic.value.IntegerValue
525

@<SCITEGIC>MOL_PROPERTY
Conf_Id
SciTegic.value.IntegerValue
0

@<SCITEGIC>MOL_PROPERTY
Delta U+W
SciTegic.value.DoubleValue
0.000

@<SCITEGIC>MOL_PROPERTY
U+W
SciTegic.value.DoubleValue
-58.332

@<SCITEGIC>MOL_PROPERTY
Grad RMS
SciTegic.value.DoubleValue
0.000000

@<SCITEGIC>MOL_PROPERTY
U
SciTegic.value.DoubleValue
8.390

@<SCITEGIC>MOL_PROPERTY
W
SciTegic.value.DoubleValue
-66.722

@<SCITEGIC>MOL_PROPERTY
W(PB)
SciTegic.value.DoubleValue
-68.455

@<SCITEGIC>MOL_PROPERTY
W(SA)
SciTegic.value.DoubleValue
1.733

@<SCITEGIC>MOL_PROPERTY
Valence
SciTegic.value.DoubleValue
6.333

@<SCITEGIC>MOL_PROPERTY
Coulomb
SciTegic.value.DoubleValue
1.215

@<SCITEGIC>MOL_PROPERTY
VdW
SciTegic.value.DoubleValue
0.842

@<SCITEGIC>MOL_PROPERTY
VdW6
SciTegic.value.DoubleValue
-3.344

@<SCITEGIC>MOL_PROPERTY
VdW12
SciTegic.value.DoubleValue
4.186

@<SCITEGIC>MOL_PROPERTY
Bond
SciTegic.value.DoubleValue
0.091

@<SCITEGIC>MOL_PROPERTY
Angle
SciTegic.value.DoubleValue
2.713

@<SCITEGIC>MOL_PROPERTY
Pdih
SciTegic.value.DoubleValue
3.529

@<SCITEGIC>MOL_PROPERTY
Idih
SciTegic.value.DoubleValue
0.000

@<SCITEGIC>MOL_PROPERTY
Tether
SciTegic.value.DoubleValue
0.000

@<TRIPOS>MOLECULE
guest-6_confgen4.mol2 : confsearch ligand conformer 526
          13          12           1
SMALL
USER_CHARGES
 
@<TRIPOS>ATOM
       1    C1      18.179700   18.157205   21.194383 C.2        1 MOL1         0.6021
       2    O1      17.673934   18.636036   20.199253 O.co2      1 MOL1        -0.6904
       3    O2      17.552733   17.553308   22.041484 O.co2      1 MOL1        -0.6904
       4    C2      19.679497   18.340355   21.400697 C.3        1 MOL1        -0.2102
       5    H1      20.160535   18.354003   20.415084 H          1 MOL1         0.0687
       6    H2      20.060588   17.461107   21.934281 H          1 MOL1         0.0687
       7    C3      20.028835   19.630204   22.181787 C.3        1 MOL1        -0.1974
       8    H3      19.633807   20.503045   21.643342 H          1 MOL1         0.0689
       9    H4      19.533951   19.609920   23.162858 H          1 MOL1         0.0689
      10    C4      21.550774   19.786030   22.373381 C.3        1 MOL1        -0.2987
      11    H5      21.778509   20.705290   22.928682 H          1 MOL1         0.0700
      12    H6      21.964604   18.938809   22.935979 H          1 MOL1         0.0700
      13    H7      22.065208   19.838824   21.404811 H          1 MOL1         0.0700
@<TRIPOS>BOND
    1     1     2    1
    2     1     3    2
    3     1     4    1
    4     4     5    1
    5     4     6    1
    6     4     7    1
    7     7     8    1
    8     7     9    1
    9     7    10    1
   10    10    11    1
   11    10    12    1
   12    10    13    1
@<TRIPOS>SUBSTRUCTURE
       1 MOL1            1 RESIDUE      1      MOL     
@<SCITEGIC>MOL_PROPERTY
VConf Rank
SciTegic.value.IntegerValue
526

@<SCITEGIC>MOL_PROPERTY
Conf_Id
SciTegic.value.IntegerValue
1

@<SCITEGIC>MOL_PROPERTY
Delta U+W
SciTegic.value.DoubleValue
-1.339

@<SCITEGIC>MOL_PROPERTY
U+W
SciTegic.value.DoubleValue
-59.672

@<SCITEGIC>MOL_PROPERTY
Grad RMS
SciTegic.value.DoubleValue
0.000000

@<SCITEGIC>MOL_PROPERTY
U
SciTegic.value.DoubleValue
7.389

@<SCITEGIC>MOL_PROPERTY
W
SciTegic.value.DoubleValue
-67.061

@<SCITEGIC>MOL_PROPERTY
W(PB)
SciTegic.value.DoubleValue
-68.767

@<SCITEGIC>MOL_PROPERTY
W(SA)
SciTegic.value.DoubleValue
1.707

@<SCITEGIC>MOL_PROPERTY
Valence
SciTegic.value.DoubleValue
5.822

@<SCITEGIC>MOL_PROPERTY
Coulomb
SciTegic.value.DoubleValue
1.255

@<SCITEGIC>MOL_PROPERTY
VdW
SciTegic.value.DoubleValue
0.312

@<SCITEGIC>MOL_PROPERTY
VdW6
SciTegic.value.DoubleValue
-3.061

@<SCITEGIC>MOL_PROPERTY
VdW12
SciTegic.value.DoubleValue
3.372

@<SCITEGIC>MOL_PROPERTY
Bond
SciTegic.value.DoubleValue
0.059

@<SCITEGIC>MOL_PROPERTY
Angle
SciTegic.value.DoubleValue
2.241

@<SCITEGIC>MOL_PROPERTY
Pdih
SciTegic.value.DoubleValue
3.522

@<SCITEGIC>MOL_PROPERTY
Idih
SciTegic.value.DoubleValue
0.000

@<SCITEGIC>MOL_PROPERTY
Tether
SciTegic.value.DoubleValue
0.000

@<TRIPOS>MOLECULE
guest-6_confgen4.mol2 : confsearch ligand conformer 527
          13          12           1
SMALL
USER_CHARGES
 
@<TRIPOS>ATOM
       1    C1      19.522695   17.284029   22.110815 C.2        1 MOL1         0.6021
       2    O1      19.183459   16.767161   21.064935 O.co2      1 MOL1        -0.6904
       3    O2      20.125937   16.693771   22.984656 O.co2      1 MOL1        -0.6904
       4    C2      19.138086   18.741651   22.351944 C.3        1 MOL1        -0.2102
       5    H1      19.222219   18.954454   23.424755 H          1 MOL1         0.0687
       6    H2      18.078549   18.847874   22.090252 H          1 MOL1         0.0687
       7    C3      19.974923   19.761781   21.538077 C.3        1 MOL1        -0.1974
       8    H3      19.917171   19.514816   20.468687 H          1 MOL1         0.0689
       9    H4      19.536079   20.762076   21.655117 H          1 MOL1         0.0689
      10    C4      21.451138   19.803842   21.984113 C.3        1 MOL1        -0.2987
      11    H5      21.935224   18.828948   21.838955 H          1 MOL1         0.0700
      12    H6      22.009891   20.548633   21.402583 H          1 MOL1         0.0700
      13    H7      21.532815   20.070973   23.045886 H          1 MOL1         0.0700
@<TRIPOS>BOND
    1     1     2    1
    2     1     3    2
    3     1     4    1
    4     4     5    1
    5     4     6    1
    6     4     7    1
    7     7     8    1
    8     7     9    1
    9     7    10    1
   10    10    11    1
   11    10    12    1
   12    10    13    1
@<TRIPOS>SUBSTRUCTURE
       1 MOL1            1 RESIDUE      1      MOL     
@<SCITEGIC>MOL_PROPERTY
VConf Rank
SciTegic.value.IntegerValue
527

@<SCITEGIC>MOL_PROPERTY
Conf_Id
SciTegic.value.IntegerValue
4

@<SCITEGIC>MOL_PROPERTY
Delta U+W
SciTegic.value.DoubleValue
0.281

@<SCITEGIC>MOL_PROPERTY
U+W
SciTegic.value.DoubleValue
-58.051

@<SCITEGIC>MOL_PROPERTY
Grad RMS
SciTegic.value.DoubleValue
0.000000

@<SCITEGIC>MOL_PROPERTY
U
SciTegic.value.DoubleValue
9.781

@<SCITEGIC>MOL_PROPERTY
W
SciTegic.value.DoubleValue
-67.832

@<SCITEGIC>MOL_PROPERTY
W(PB)
SciTegic.value.DoubleValue
-69.535

@<SCITEGIC>MOL_PROPERTY
W(SA)
SciTegic.value.DoubleValue
1.703

@<SCITEGIC>MOL_PROPERTY
Valence
SciTegic.value.DoubleValue
6.123

@<SCITEGIC>MOL_PROPERTY
Coulomb
SciTegic.value.DoubleValue
3.449

@<SCITEGIC>MOL_PROPERTY
VdW
SciTegic.value.DoubleValue
0.209

@<SCITEGIC>MOL_PROPERTY
VdW6
SciTegic.value.DoubleValue
-3.762

@<SCITEGIC>MOL_PROPERTY
VdW12
SciTegic.value.DoubleValue
3.972

@<SCITEGIC>MOL_PROPERTY
Bond
SciTegic.value.DoubleValue
0.078

@<SCITEGIC>MOL_PROPERTY
Angle
SciTegic.value.DoubleValue
2.428

@<SCITEGIC>MOL_PROPERTY
Pdih
SciTegic.value.DoubleValue
3.616

@<SCITEGIC>MOL_PROPERTY
Idih
SciTegic.value.DoubleValue
0.002

@<SCITEGIC>MOL_PROPERTY
Tether
SciTegic.value.DoubleValue
0.000

@<TRIPOS>MOLECULE
guest-6_confgen4.mol2 : confsearch ligand conformer 528
          13          12           1
SMALL
USER_CHARGES
 
@<TRIPOS>ATOM
       1    C1      18.421692   19.361731   22.422889 C.2        1 MOL1         0.6021
       2    O1      17.681855   18.994231   21.532108 O.co2      1 MOL1        -0.6904
       3    O2      18.137674   19.289178   23.601943 O.co2      1 MOL1        -0.6904
       4    C2      19.764434   19.980460   22.042176 C.3        1 MOL1        -0.2102
       5    H1      19.870728   20.909269   22.615239 H          1 MOL1         0.0687
       6    H2      19.733147   20.263701   20.982892 H          1 MOL1         0.0687
       7    C3      20.985182   19.064379   22.314034 C.3        1 MOL1        -0.1974
       8    H3      21.908325   19.638498   22.155711 H          1 MOL1         0.0689
       9    H4      20.983826   18.753081   23.368080 H          1 MOL1         0.0689
      10    C4      21.003559   17.819456   21.403124 C.3        1 MOL1        -0.2987
      11    H5      21.027568   18.108343   20.344181 H          1 MOL1         0.0700
      12    H6      21.889157   17.203736   21.607333 H          1 MOL1         0.0700
      13    H7      20.113864   17.197111   21.567307 H          1 MOL1         0.0700
@<TRIPOS>BOND
    1     1     2    1
    2     1     3    2
    3     1     4    1
    4     4     5    1
    5     4     6    1
    6     4     7    1
    7     7     8    1
    8     7     9    1
    9     7    10    1
   10    10    11    1
   11    10    12    1
   12    10    13    1
@<TRIPOS>SUBSTRUCTURE
       1 MOL1            1 RESIDUE      1      MOL     
@<SCITEGIC>MOL_PROPERTY
VConf Rank
SciTegic.value.IntegerValue
528

@<SCITEGIC>MOL_PROPERTY
Conf_Id
SciTegic.value.IntegerValue
36

@<SCITEGIC>MOL_PROPERTY
Delta U+W
SciTegic.value.DoubleValue
0.272

@<SCITEGIC>MOL_PROPERTY
U+W
SciTegic.value.DoubleValue
-58.060

@<SCITEGIC>MOL_PROPERTY
Grad RMS
SciTegic.value.DoubleValue
0.000000

@<SCITEGIC>MOL_PROPERTY
U
SciTegic.value.DoubleValue
9.781

@<SCITEGIC>MOL_PROPERTY
W
SciTegic.value.DoubleValue
-67.841

@<SCITEGIC>MOL_PROPERTY
W(PB)
SciTegic.value.DoubleValue
-69.537

@<SCITEGIC>MOL_PROPERTY
W(SA)
SciTegic.value.DoubleValue
1.696

@<SCITEGIC>MOL_PROPERTY
Valence
SciTegic.value.DoubleValue
6.123

@<SCITEGIC>MOL_PROPERTY
Coulomb
SciTegic.value.DoubleValue
3.449

@<SCITEGIC>MOL_PROPERTY
VdW
SciTegic.value.DoubleValue
0.209

@<SCITEGIC>MOL_PROPERTY
VdW6
SciTegic.value.DoubleValue
-3.762

@<SCITEGIC>MOL_PROPERTY
VdW12
SciTegic.value.DoubleValue
3.972

@<SCITEGIC>MOL_PROPERTY
Bond
SciTegic.value.DoubleValue
0.078

@<SCITEGIC>MOL_PROPERTY
Angle
SciTegic.value.DoubleValue
2.428

@<SCITEGIC>MOL_PROPERTY
Pdih
SciTegic.value.DoubleValue
3.616

@<SCITEGIC>MOL_PROPERTY
Idih
SciTegic.value.DoubleValue
0.002

@<SCITEGIC>MOL_PROPERTY
Tether
SciTegic.value.DoubleValue
0.000

@<TRIPOS>MOLECULE
guest-6_confgen4.mol2 : confsearch ligand conformer 529
          13          12           1
SMALL
USER_CHARGES
 
@<TRIPOS>ATOM
       1    C1      21.584292   18.249914   20.577815 C.2        1 MOL1         0.6021
       2    O1      20.950255   17.979046   19.576837 O.co2      1 MOL1        -0.6904
       3    O2      22.782295   18.073487   20.669781 O.co2      1 MOL1        -0.6904
       4    C2      20.869335   18.841135   21.794358 C.3        1 MOL1        -0.2102
       5    H1      21.349821   19.799898   22.022932 H          1 MOL1         0.0687
       6    H2      21.062941   18.175368   22.643833 H          1 MOL1         0.0687
       7    C3      19.340870   19.048584   21.630903 C.3        1 MOL1        -0.1974
       8    H3      19.148907   19.713689   20.777357 H          1 MOL1         0.0689
       9    H4      18.861677   18.087167   21.398945 H          1 MOL1         0.0689
      10    C4      18.708027   19.646683   22.903547 C.3        1 MOL1        -0.2987
      11    H5      19.149021   20.624095   23.139581 H          1 MOL1         0.0700
      12    H6      17.627412   19.786053   22.768995 H          1 MOL1         0.0700
      13    H7      18.859539   18.984525   23.766168 H          1 MOL1         0.0700
@<TRIPOS>BOND
    1     1     2    1
    2     1     3    2
    3     1     4    1
    4     4     5    1
    5     4     6    1
    6     4     7    1
    7     7     8    1
    8     7     9    1
    9     7    10    1
   10    10    11    1
   11    10    12    1
   12    10    13    1
@<TRIPOS>SUBSTRUCTURE
       1 MOL1            1 RESIDUE      1      MOL     
@<SCITEGIC>MOL_PROPERTY
VConf Rank
SciTegic.value.IntegerValue
529

@<SCITEGIC>MOL_PROPERTY
Conf_Id
SciTegic.value.IntegerValue
0

@<SCITEGIC>MOL_PROPERTY
Delta U+W
SciTegic.value.DoubleValue
0.000

@<SCITEGIC>MOL_PROPERTY
U+W
SciTegic.value.DoubleValue
-58.332

@<SCITEGIC>MOL_PROPERTY
Grad RMS
SciTegic.value.DoubleValue
0.000000

@<SCITEGIC>MOL_PROPERTY
U
SciTegic.value.DoubleValue
8.390

@<SCITEGIC>MOL_PROPERTY
W
SciTegic.value.DoubleValue
-66.722

@<SCITEGIC>MOL_PROPERTY
W(PB)
SciTegic.value.DoubleValue
-68.455

@<SCITEGIC>MOL_PROPERTY
W(SA)
SciTegic.value.DoubleValue
1.733

@<SCITEGIC>MOL_PROPERTY
Valence
SciTegic.value.DoubleValue
6.333

@<SCITEGIC>MOL_PROPERTY
Coulomb
SciTegic.value.DoubleValue
1.215

@<SCITEGIC>MOL_PROPERTY
VdW
SciTegic.value.DoubleValue
0.842

@<SCITEGIC>MOL_PROPERTY
VdW6
SciTegic.value.DoubleValue
-3.344

@<SCITEGIC>MOL_PROPERTY
VdW12
SciTegic.value.DoubleValue
4.186

@<SCITEGIC>MOL_PROPERTY
Bond
SciTegic.value.DoubleValue
0.091

@<SCITEGIC>MOL_PROPERTY
Angle
SciTegic.value.DoubleValue
2.713

@<SCITEGIC>MOL_PROPERTY
Pdih
SciTegic.value.DoubleValue
3.529

@<SCITEGIC>MOL_PROPERTY
Idih
SciTegic.value.DoubleValue
0.000

@<SCITEGIC>MOL_PROPERTY
Tether
SciTegic.value.DoubleValue
0.000

@<TRIPOS>MOLECULE
guest-6_confgen4.mol2 : confsearch ligand conformer 530
          13          12           1
SMALL
USER_CHARGES
 
@<TRIPOS>ATOM
       1    C1      20.600218   19.699605   23.742893 C.2        1 MOL1         0.6021
       2    O1      20.445894   18.911680   24.654331 O.co2      1 MOL1        -0.6904
       3    O2      20.658370   20.902815   23.898662 O.co2      1 MOL1        -0.6904
       4    C2      20.707892   19.149837   22.324563 C.3        1 MOL1        -0.2102
       5    H1      21.194921   18.168365   22.374911 H          1 MOL1         0.0687
       6    H2      21.370161   19.810368   21.751748 H          1 MOL1         0.0687
       7    C3      19.336093   19.028105   21.618025 C.3        1 MOL1        -0.1974
       8    H3      18.678163   18.372519   22.205525 H          1 MOL1         0.0689
       9    H4      18.853503   20.014839   21.582133 H          1 MOL1         0.0689
      10    C4      19.479035   18.469976   20.187867 C.3        1 MOL1        -0.2987
      11    H5      18.496931   18.391035   19.703612 H          1 MOL1         0.0700
      12    H6      20.109110   19.124958   19.571784 H          1 MOL1         0.0700
      13    H7      19.932385   17.470034   20.199971 H          1 MOL1         0.0700
@<TRIPOS>BOND
    1     1     2    1
    2     1     3    2
    3     1     4    1
    4     4     5    1
    5     4     6    1
    6     4     7    1
    7     7     8    1
    8     7     9    1
    9     7    10    1
   10    10    11    1
   11    10    12    1
   12    10    13    1
@<TRIPOS>SUBSTRUCTURE
       1 MOL1            1 RESIDUE      1      MOL     
@<SCITEGIC>MOL_PROPERTY
VConf Rank
SciTegic.value.IntegerValue
530

@<SCITEGIC>MOL_PROPERTY
Conf_Id
SciTegic.value.IntegerValue
1

@<SCITEGIC>MOL_PROPERTY
Delta U+W
SciTegic.value.DoubleValue
-1.339

@<SCITEGIC>MOL_PROPERTY
U+W
SciTegic.value.DoubleValue
-59.672

@<SCITEGIC>MOL_PROPERTY
Grad RMS
SciTegic.value.DoubleValue
0.000000

@<SCITEGIC>MOL_PROPERTY
U
SciTegic.value.DoubleValue
7.389

@<SCITEGIC>MOL_PROPERTY
W
SciTegic.value.DoubleValue
-67.061

@<SCITEGIC>MOL_PROPERTY
W(PB)
SciTegic.value.DoubleValue
-68.767

@<SCITEGIC>MOL_PROPERTY
W(SA)
SciTegic.value.DoubleValue
1.707

@<SCITEGIC>MOL_PROPERTY
Valence
SciTegic.value.DoubleValue
5.822

@<SCITEGIC>MOL_PROPERTY
Coulomb
SciTegic.value.DoubleValue
1.255

@<SCITEGIC>MOL_PROPERTY
VdW
SciTegic.value.DoubleValue
0.312

@<SCITEGIC>MOL_PROPERTY
VdW6
SciTegic.value.DoubleValue
-3.061

@<SCITEGIC>MOL_PROPERTY
VdW12
SciTegic.value.DoubleValue
3.372

@<SCITEGIC>MOL_PROPERTY
Bond
SciTegic.value.DoubleValue
0.059

@<SCITEGIC>MOL_PROPERTY
Angle
SciTegic.value.DoubleValue
2.241

@<SCITEGIC>MOL_PROPERTY
Pdih
SciTegic.value.DoubleValue
3.522

@<SCITEGIC>MOL_PROPERTY
Idih
SciTegic.value.DoubleValue
0.000

@<SCITEGIC>MOL_PROPERTY
Tether
SciTegic.value.DoubleValue
0.000

@<TRIPOS>MOLECULE
guest-6_confgen4.mol2 : confsearch ligand conformer 531
          13          12           1
SMALL
USER_CHARGES
 
@<TRIPOS>ATOM
       1    C1      21.795499   19.300547   22.553946 C.2        1 MOL1         0.6021
       2    O1      22.579512   18.376137   22.470954 O.co2      1 MOL1        -0.6904
       3    O2      22.088150   20.451676   22.298678 O.co2      1 MOL1        -0.6904
       4    C2      20.379015   19.002317   23.039085 C.3        1 MOL1        -0.2102
       5    H1      19.912741   19.941600   23.360989 H          1 MOL1         0.0687
       6    H2      20.465095   18.369771   23.930636 H          1 MOL1         0.0687
       7    C3      19.484466   18.294559   21.989227 C.3        1 MOL1        -0.1974
       8    H3      19.979728   17.376483   21.643145 H          1 MOL1         0.0689
       9    H4      18.544754   17.985352   22.466935 H          1 MOL1         0.0689
      10    C4      19.162122   19.199446   20.782080 C.3        1 MOL1        -0.2987
      11    H5      20.078462   19.492465   20.252657 H          1 MOL1         0.0700
      12    H6      18.512332   18.675924   20.068783 H          1 MOL1         0.0700
      13    H7      18.646308   20.113729   21.103661 H          1 MOL1         0.0700
@<TRIPOS>BOND
    1     1     2    1
    2     1     3    2
    3     1     4    1
    4     4     5    1
    5     4     6    1
    6     4     7    1
    7     7     8    1
    8     7     9    1
    9     7    10    1
   10    10    11    1
   11    10    12    1
   12    10    13    1
@<TRIPOS>SUBSTRUCTURE
       1 MOL1            1 RESIDUE      1      MOL     
@<SCITEGIC>MOL_PROPERTY
VConf Rank
SciTegic.value.IntegerValue
531

@<SCITEGIC>MOL_PROPERTY
Conf_Id
SciTegic.value.IntegerValue
4

@<SCITEGIC>MOL_PROPERTY
Delta U+W
SciTegic.value.DoubleValue
0.281

@<SCITEGIC>MOL_PROPERTY
U+W
SciTegic.value.DoubleValue
-58.051

@<SCITEGIC>MOL_PROPERTY
Grad RMS
SciTegic.value.DoubleValue
0.000000

@<SCITEGIC>MOL_PROPERTY
U
SciTegic.value.DoubleValue
9.781

@<SCITEGIC>MOL_PROPERTY
W
SciTegic.value.DoubleValue
-67.832

@<SCITEGIC>MOL_PROPERTY
W(PB)
SciTegic.value.DoubleValue
-69.535

@<SCITEGIC>MOL_PROPERTY
W(SA)
SciTegic.value.DoubleValue
1.703

@<SCITEGIC>MOL_PROPERTY
Valence
SciTegic.value.DoubleValue
6.123

@<SCITEGIC>MOL_PROPERTY
Coulomb
SciTegic.value.DoubleValue
3.449

@<SCITEGIC>MOL_PROPERTY
VdW
SciTegic.value.DoubleValue
0.209

@<SCITEGIC>MOL_PROPERTY
VdW6
SciTegic.value.DoubleValue
-3.762

@<SCITEGIC>MOL_PROPERTY
VdW12
SciTegic.value.DoubleValue
3.972

@<SCITEGIC>MOL_PROPERTY
Bond
SciTegic.value.DoubleValue
0.078

@<SCITEGIC>MOL_PROPERTY
Angle
SciTegic.value.DoubleValue
2.428

@<SCITEGIC>MOL_PROPERTY
Pdih
SciTegic.value.DoubleValue
3.616

@<SCITEGIC>MOL_PROPERTY
Idih
SciTegic.value.DoubleValue
0.002

@<SCITEGIC>MOL_PROPERTY
Tether
SciTegic.value.DoubleValue
0.000

@<TRIPOS>MOLECULE
guest-6_confgen4.mol2 : confsearch ligand conformer 532
          13          12           1
SMALL
USER_CHARGES
 
@<TRIPOS>ATOM
       1    C1      21.853360   19.307215   22.280837 C.2        1 MOL1         0.6021
       2    O1      21.966048   20.182941   23.115290 O.co2      1 MOL1        -0.6904
       3    O2      22.602258   18.353481   22.205734 O.co2      1 MOL1        -0.6904
       4    C2      20.734568   19.427545   21.249067 C.3        1 MOL1        -0.2102
       5    H1      21.178631   19.247769   20.262722 H          1 MOL1         0.0687
       6    H2      20.367609   20.461288   21.247536 H          1 MOL1         0.0687
       7    C3      19.557502   18.443515   21.471634 C.3        1 MOL1        -0.1974
       8    H3      18.879021   18.492990   20.609029 H          1 MOL1         0.0689
       9    H4      19.941271   17.414465   21.512859 H          1 MOL1         0.0689
      10    C4      18.762514   18.754969   22.756515 C.3        1 MOL1        -0.2987
      11    H5      18.350819   19.772313   22.726358 H          1 MOL1         0.0700
      12    H6      17.926238   18.053518   22.873586 H          1 MOL1         0.0700
      13    H7      19.401172   18.671166   23.645851 H          1 MOL1         0.0700
@<TRIPOS>BOND
    1     1     2    1
    2     1     3    2
    3     1     4    1
    4     4     5    1
    5     4     6    1
    6     4     7    1
    7     7     8    1
    8     7     9    1
    9     7    10    1
   10    10    11    1
   11    10    12    1
   12    10    13    1
@<TRIPOS>SUBSTRUCTURE
       1 MOL1            1 RESIDUE      1      MOL     
@<SCITEGIC>MOL_PROPERTY
VConf Rank
SciTegic.value.IntegerValue
532

@<SCITEGIC>MOL_PROPERTY
Conf_Id
SciTegic.value.IntegerValue
36

@<SCITEGIC>MOL_PROPERTY
Delta U+W
SciTegic.value.DoubleValue
0.272

@<SCITEGIC>MOL_PROPERTY
U+W
SciTegic.value.DoubleValue
-58.060

@<SCITEGIC>MOL_PROPERTY
Grad RMS
SciTegic.value.DoubleValue
0.000000

@<SCITEGIC>MOL_PROPERTY
U
SciTegic.value.DoubleValue
9.781

@<SCITEGIC>MOL_PROPERTY
W
SciTegic.value.DoubleValue
-67.841

@<SCITEGIC>MOL_PROPERTY
W(PB)
SciTegic.value.DoubleValue
-69.537

@<SCITEGIC>MOL_PROPERTY
W(SA)
SciTegic.value.DoubleValue
1.696

@<SCITEGIC>MOL_PROPERTY
Valence
SciTegic.value.DoubleValue
6.123

@<SCITEGIC>MOL_PROPERTY
Coulomb
SciTegic.value.DoubleValue
3.449

@<SCITEGIC>MOL_PROPERTY
VdW
SciTegic.value.DoubleValue
0.209

@<SCITEGIC>MOL_PROPERTY
VdW6
SciTegic.value.DoubleValue
-3.762

@<SCITEGIC>MOL_PROPERTY
VdW12
SciTegic.value.DoubleValue
3.972

@<SCITEGIC>MOL_PROPERTY
Bond
SciTegic.value.DoubleValue
0.078

@<SCITEGIC>MOL_PROPERTY
Angle
SciTegic.value.DoubleValue
2.428

@<SCITEGIC>MOL_PROPERTY
Pdih
SciTegic.value.DoubleValue
3.616

@<SCITEGIC>MOL_PROPERTY
Idih
SciTegic.value.DoubleValue
0.002

@<SCITEGIC>MOL_PROPERTY
Tether
SciTegic.value.DoubleValue
0.000

@<TRIPOS>MOLECULE
guest-6_confgen4.mol2 : confsearch ligand conformer 533
          13          12           1
SMALL
USER_CHARGES
 
@<TRIPOS>ATOM
       1    C1      19.679661   19.284270   23.906417 C.2        1 MOL1         0.6021
       2    O1      18.611293   19.862798   23.871426 O.co2      1 MOL1        -0.6904
       3    O2      20.255185   19.020303   24.942704 O.co2      1 MOL1        -0.6904
       4    C2      20.356002   18.856270   22.602553 C.3        1 MOL1        -0.2102
       5    H1      20.509440   17.771748   22.653608 H          1 MOL1         0.0687
       6    H2      21.349588   19.319599   22.581318 H          1 MOL1         0.0687
       7    C3      19.584734   19.214307   21.305282 C.3        1 MOL1        -0.1974
       8    H3      18.588285   18.751448   21.329879 H          1 MOL1         0.0689
       9    H4      19.429397   20.301204   21.257533 H          1 MOL1         0.0689
      10    C4      20.340481   18.745339   20.045619 C.3        1 MOL1        -0.2987
      11    H5      20.481229   17.656470   20.054447 H          1 MOL1         0.0700
      12    H6      19.779975   19.007249   19.138705 H          1 MOL1         0.0700
      13    H7      21.329120   19.218639   19.981560 H          1 MOL1         0.0700
@<TRIPOS>BOND
    1     1     2    1
    2     1     3    2
    3     1     4    1
    4     4     5    1
    5     4     6    1
    6     4     7    1
    7     7     8    1
    8     7     9    1
    9     7    10    1
   10    10    11    1
   11    10    12    1
   12    10    13    1
@<TRIPOS>SUBSTRUCTURE
       1 MOL1            1 RESIDUE      1      MOL     
@<SCITEGIC>MOL_PROPERTY
VConf Rank
SciTegic.value.IntegerValue
533

@<SCITEGIC>MOL_PROPERTY
Conf_Id
SciTegic.value.IntegerValue
0

@<SCITEGIC>MOL_PROPERTY
Delta U+W
SciTegic.value.DoubleValue
0.000

@<SCITEGIC>MOL_PROPERTY
U+W
SciTegic.value.DoubleValue
-58.332

@<SCITEGIC>MOL_PROPERTY
Grad RMS
SciTegic.value.DoubleValue
0.000000

@<SCITEGIC>MOL_PROPERTY
U
SciTegic.value.DoubleValue
8.390

@<SCITEGIC>MOL_PROPERTY
W
SciTegic.value.DoubleValue
-66.722

@<SCITEGIC>MOL_PROPERTY
W(PB)
SciTegic.value.DoubleValue
-68.455

@<SCITEGIC>MOL_PROPERTY
W(SA)
SciTegic.value.DoubleValue
1.733

@<SCITEGIC>MOL_PROPERTY
Valence
SciTegic.value.DoubleValue
6.333

@<SCITEGIC>MOL_PROPERTY
Coulomb
SciTegic.value.DoubleValue
1.215

@<SCITEGIC>MOL_PROPERTY
VdW
SciTegic.value.DoubleValue
0.842

@<SCITEGIC>MOL_PROPERTY
VdW6
SciTegic.value.DoubleValue
-3.344

@<SCITEGIC>MOL_PROPERTY
VdW12
SciTegic.value.DoubleValue
4.186

@<SCITEGIC>MOL_PROPERTY
Bond
SciTegic.value.DoubleValue
0.091

@<SCITEGIC>MOL_PROPERTY
Angle
SciTegic.value.DoubleValue
2.713

@<SCITEGIC>MOL_PROPERTY
Pdih
SciTegic.value.DoubleValue
3.529

@<SCITEGIC>MOL_PROPERTY
Idih
SciTegic.value.DoubleValue
0.000

@<SCITEGIC>MOL_PROPERTY
Tether
SciTegic.value.DoubleValue
0.000

@<TRIPOS>MOLECULE
guest-6_confgen4.mol2 : confsearch ligand conformer 534
          13          12           1
SMALL
USER_CHARGES
 
@<TRIPOS>ATOM
       1    C1      19.156172   20.440800   20.489468 C.2        1 MOL1         0.6021
       2    O1      18.697856   21.449581   20.987130 O.co2      1 MOL1        -0.6904
       3    O2      18.803031   20.003642   19.412646 O.co2      1 MOL1        -0.6904
       4    C2      20.218667   19.671390   21.267034 C.3        1 MOL1        -0.2102
       5    H1      20.810105   20.393539   21.842987 H          1 MOL1         0.0687
       6    H2      20.896851   19.201148   20.544568 H          1 MOL1         0.0687
       7    C3      19.619769   18.600417   22.210530 C.3        1 MOL1        -0.1974
       8    H3      18.934942   19.081336   22.922957 H          1 MOL1         0.0689
       9    H4      19.021821   17.888661   21.624283 H          1 MOL1         0.0689
      10    C4      20.718354   17.841224   22.981262 C.3        1 MOL1        -0.2987
      11    H5      20.274718   17.086971   23.644248 H          1 MOL1         0.0700
      12    H6      21.398985   17.326803   22.290126 H          1 MOL1         0.0700
      13    H7      21.311403   18.528623   23.598783 H          1 MOL1         0.0700
@<TRIPOS>BOND
    1     1     2    1
    2     1     3    2
    3     1     4    1
    4     4     5    1
    5     4     6    1
    6     4     7    1
    7     7     8    1
    8     7     9    1
    9     7    10    1
   10    10    11    1
   11    10    12    1
   12    10    13    1
@<TRIPOS>SUBSTRUCTURE
       1 MOL1            1 RESIDUE      1      MOL     
@<SCITEGIC>MOL_PROPERTY
VConf Rank
SciTegic.value.IntegerValue
534

@<SCITEGIC>MOL_PROPERTY
Conf_Id
SciTegic.value.IntegerValue
1

@<SCITEGIC>MOL_PROPERTY
Delta U+W
SciTegic.value.DoubleValue
-1.339

@<SCITEGIC>MOL_PROPERTY
U+W
SciTegic.value.DoubleValue
-59.672

@<SCITEGIC>MOL_PROPERTY
Grad RMS
SciTegic.value.DoubleValue
0.000000

@<SCITEGIC>MOL_PROPERTY
U
SciTegic.value.DoubleValue
7.389

@<SCITEGIC>MOL_PROPERTY
W
SciTegic.value.DoubleValue
-67.061

@<SCITEGIC>MOL_PROPERTY
W(PB)
SciTegic.value.DoubleValue
-68.767

@<SCITEGIC>MOL_PROPERTY
W(SA)
SciTegic.value.DoubleValue
1.707

@<SCITEGIC>MOL_PROPERTY
Valence
SciTegic.value.DoubleValue
5.822

@<SCITEGIC>MOL_PROPERTY
Coulomb
SciTegic.value.DoubleValue
1.255

@<SCITEGIC>MOL_PROPERTY
VdW
SciTegic.value.DoubleValue
0.312

@<SCITEGIC>MOL_PROPERTY
VdW6
SciTegic.value.DoubleValue
-3.061

@<SCITEGIC>MOL_PROPERTY
VdW12
SciTegic.value.DoubleValue
3.372

@<SCITEGIC>MOL_PROPERTY
Bond
SciTegic.value.DoubleValue
0.059

@<SCITEGIC>MOL_PROPERTY
Angle
SciTegic.value.DoubleValue
2.241

@<SCITEGIC>MOL_PROPERTY
Pdih
SciTegic.value.DoubleValue
3.522

@<SCITEGIC>MOL_PROPERTY
Idih
SciTegic.value.DoubleValue
0.000

@<SCITEGIC>MOL_PROPERTY
Tether
SciTegic.value.DoubleValue
0.000

@<TRIPOS>MOLECULE
guest-6_confgen4.mol2 : confsearch ligand conformer 535
          13          12           1
SMALL
USER_CHARGES
 
@<TRIPOS>ATOM
       1    C1      20.803258   17.549824   21.136348 C.2        1 MOL1         0.6021
       2    O1      21.820890   17.078708   21.603868 O.co2      1 MOL1        -0.6904
       3    O2      19.898391   16.875512   20.686433 O.co2      1 MOL1        -0.6904
       4    C2      20.672971   19.069877   21.079852 C.3        1 MOL1        -0.2102
       5    H1      19.882645   19.328505   20.364461 H          1 MOL1         0.0687
       6    H2      21.611225   19.463539   20.671079 H          1 MOL1         0.0687
       7    C3      20.389507   19.733955   22.451707 C.3        1 MOL1        -0.1974
       8    H3      21.164121   19.435269   23.171902 H          1 MOL1         0.0689
       9    H4      20.461496   20.824981   22.345148 H          1 MOL1         0.0689
      10    C4      18.995806   19.372664   23.005778 C.3        1 MOL1        -0.2987
      11    H5      18.903629   18.290394   23.167097 H          1 MOL1         0.0700
      12    H6      18.819600   19.873841   23.966439 H          1 MOL1         0.0700
      13    H7      18.204645   19.682941   22.310663 H          1 MOL1         0.0700
@<TRIPOS>BOND
    1     1     2    1
    2     1     3    2
    3     1     4    1
    4     4     5    1
    5     4     6    1
    6     4     7    1
    7     7     8    1
    8     7     9    1
    9     7    10    1
   10    10    11    1
   11    10    12    1
   12    10    13    1
@<TRIPOS>SUBSTRUCTURE
       1 MOL1            1 RESIDUE      1      MOL     
@<SCITEGIC>MOL_PROPERTY
VConf Rank
SciTegic.value.IntegerValue
535

@<SCITEGIC>MOL_PROPERTY
Conf_Id
SciTegic.value.IntegerValue
4

@<SCITEGIC>MOL_PROPERTY
Delta U+W
SciTegic.value.DoubleValue
0.281

@<SCITEGIC>MOL_PROPERTY
U+W
SciTegic.value.DoubleValue
-58.051

@<SCITEGIC>MOL_PROPERTY
Grad RMS
SciTegic.value.DoubleValue
0.000000

@<SCITEGIC>MOL_PROPERTY
U
SciTegic.value.DoubleValue
9.781

@<SCITEGIC>MOL_PROPERTY
W
SciTegic.value.DoubleValue
-67.832

@<SCITEGIC>MOL_PROPERTY
W(PB)
SciTegic.value.DoubleValue
-69.535

@<SCITEGIC>MOL_PROPERTY
W(SA)
SciTegic.value.DoubleValue
1.703

@<SCITEGIC>MOL_PROPERTY
Valence
SciTegic.value.DoubleValue
6.123

@<SCITEGIC>MOL_PROPERTY
Coulomb
SciTegic.value.DoubleValue
3.449

@<SCITEGIC>MOL_PROPERTY
VdW
SciTegic.value.DoubleValue
0.209

@<SCITEGIC>MOL_PROPERTY
VdW6
SciTegic.value.DoubleValue
-3.762

@<SCITEGIC>MOL_PROPERTY
VdW12
SciTegic.value.DoubleValue
3.972

@<SCITEGIC>MOL_PROPERTY
Bond
SciTegic.value.DoubleValue
0.078

@<SCITEGIC>MOL_PROPERTY
Angle
SciTegic.value.DoubleValue
2.428

@<SCITEGIC>MOL_PROPERTY
Pdih
SciTegic.value.DoubleValue
3.616

@<SCITEGIC>MOL_PROPERTY
Idih
SciTegic.value.DoubleValue
0.002

@<SCITEGIC>MOL_PROPERTY
Tether
SciTegic.value.DoubleValue
0.000

@<TRIPOS>MOLECULE
guest-6_confgen4.mol2 : confsearch ligand conformer 536
          13          12           1
SMALL
USER_CHARGES
 
@<TRIPOS>ATOM
       1    C1      19.245703   19.925653   20.757981 C.2        1 MOL1         0.6021
       2    O1      19.677195   19.654075   19.655273 O.co2      1 MOL1        -0.6904
       3    O2      18.072081   20.145653   20.982277 O.co2      1 MOL1        -0.6904
       4    C2      20.232910   20.031842   21.917667 C.3        1 MOL1        -0.2102
       5    H1      20.016846   20.967880   22.446378 H          1 MOL1         0.0687
       6    H2      21.246502   20.125694   21.508875 H          1 MOL1         0.0687
       7    C3      20.167725   18.848413   22.916957 C.3        1 MOL1        -0.1974
       8    H3      20.795407   19.078486   23.788711 H          1 MOL1         0.0689
       9    H4      19.139460   18.737305   23.288775 H          1 MOL1         0.0689
      10    C4      20.641796   17.520446   22.291107 C.3        1 MOL1        -0.2987
      11    H5      21.676225   17.602823   21.932553 H          1 MOL1         0.0700
      12    H6      20.601840   16.708900   23.029275 H          1 MOL1         0.0700
      13    H7      20.007322   17.236004   21.441189 H          1 MOL1         0.0700
@<TRIPOS>BOND
    1     1     2    1
    2     1     3    2
    3     1     4    1
    4     4     5    1
    5     4     6    1
    6     4     7    1
    7     7     8    1
    8     7     9    1
    9     7    10    1
   10    10    11    1
   11    10    12    1
   12    10    13    1
@<TRIPOS>SUBSTRUCTURE
       1 MOL1            1 RESIDUE      1      MOL     
@<SCITEGIC>MOL_PROPERTY
VConf Rank
SciTegic.value.IntegerValue
536

@<SCITEGIC>MOL_PROPERTY
Conf_Id
SciTegic.value.IntegerValue
36

@<SCITEGIC>MOL_PROPERTY
Delta U+W
SciTegic.value.DoubleValue
0.272

@<SCITEGIC>MOL_PROPERTY
U+W
SciTegic.value.DoubleValue
-58.060

@<SCITEGIC>MOL_PROPERTY
Grad RMS
SciTegic.value.DoubleValue
0.000000

@<SCITEGIC>MOL_PROPERTY
U
SciTegic.value.DoubleValue
9.781

@<SCITEGIC>MOL_PROPERTY
W
SciTegic.value.DoubleValue
-67.841

@<SCITEGIC>MOL_PROPERTY
W(PB)
SciTegic.value.DoubleValue
-69.537

@<SCITEGIC>MOL_PROPERTY
W(SA)
SciTegic.value.DoubleValue
1.696

@<SCITEGIC>MOL_PROPERTY
Valence
SciTegic.value.DoubleValue
6.123

@<SCITEGIC>MOL_PROPERTY
Coulomb
SciTegic.value.DoubleValue
3.449

@<SCITEGIC>MOL_PROPERTY
VdW
SciTegic.value.DoubleValue
0.209

@<SCITEGIC>MOL_PROPERTY
VdW6
SciTegic.value.DoubleValue
-3.762

@<SCITEGIC>MOL_PROPERTY
VdW12
SciTegic.value.DoubleValue
3.972

@<SCITEGIC>MOL_PROPERTY
Bond
SciTegic.value.DoubleValue
0.078

@<SCITEGIC>MOL_PROPERTY
Angle
SciTegic.value.DoubleValue
2.428

@<SCITEGIC>MOL_PROPERTY
Pdih
SciTegic.value.DoubleValue
3.616

@<SCITEGIC>MOL_PROPERTY
Idih
SciTegic.value.DoubleValue
0.002

@<SCITEGIC>MOL_PROPERTY
Tether
SciTegic.value.DoubleValue
0.000

@<TRIPOS>MOLECULE
guest-6_confgen4.mol2 : confsearch ligand conformer 537
          13          12           1
SMALL
USER_CHARGES
 
@<TRIPOS>ATOM
       1    C1      21.923688   19.153461   20.866737 C.2        1 MOL1         0.6021
       2    O1      21.964804   18.080378   20.297411 O.co2      1 MOL1        -0.6904
       3    O2      22.817683   19.972616   20.799256 O.co2      1 MOL1        -0.6904
       4    C2      20.703829   19.518277   21.714991 C.3        1 MOL1        -0.2102
       5    H1      20.294654   20.453778   21.315303 H          1 MOL1         0.0687
       6    H2      21.062011   19.732802   22.728905 H          1 MOL1         0.0687
       7    C3      19.588140   18.442186   21.771786 C.3        1 MOL1        -0.1974
       8    H3      19.232628   18.226558   20.754501 H          1 MOL1         0.0689
       9    H4      20.000947   17.504663   22.169774 H          1 MOL1         0.0689
      10    C4      18.402719   18.896553   22.647094 C.3        1 MOL1        -0.2987
      11    H5      17.952281   19.816509   22.251734 H          1 MOL1         0.0700
      12    H6      17.624212   18.122995   22.675198 H          1 MOL1         0.0700
      13    H7      18.726796   19.088867   23.678361 H          1 MOL1         0.0700
@<TRIPOS>BOND
    1     1     2    1
    2     1     3    2
    3     1     4    1
    4     4     5    1
    5     4     6    1
    6     4     7    1
    7     7     8    1
    8     7     9    1
    9     7    10    1
   10    10    11    1
   11    10    12    1
   12    10    13    1
@<TRIPOS>SUBSTRUCTURE
       1 MOL1            1 RESIDUE      1      MOL     
@<SCITEGIC>MOL_PROPERTY
VConf Rank
SciTegic.value.IntegerValue
537

@<SCITEGIC>MOL_PROPERTY
Conf_Id
SciTegic.value.IntegerValue
0

@<SCITEGIC>MOL_PROPERTY
Delta U+W
SciTegic.value.DoubleValue
0.000

@<SCITEGIC>MOL_PROPERTY
U+W
SciTegic.value.DoubleValue
-58.332

@<SCITEGIC>MOL_PROPERTY
Grad RMS
SciTegic.value.DoubleValue
0.000000

@<SCITEGIC>MOL_PROPERTY
U
SciTegic.value.DoubleValue
8.390

@<SCITEGIC>MOL_PROPERTY
W
SciTegic.value.DoubleValue
-66.722

@<SCITEGIC>MOL_PROPERTY
W(PB)
SciTegic.value.DoubleValue
-68.455

@<SCITEGIC>MOL_PROPERTY
W(SA)
SciTegic.value.DoubleValue
1.733

@<SCITEGIC>MOL_PROPERTY
Valence
SciTegic.value.DoubleValue
6.333

@<SCITEGIC>MOL_PROPERTY
Coulomb
SciTegic.value.DoubleValue
1.215

@<SCITEGIC>MOL_PROPERTY
VdW
SciTegic.value.DoubleValue
0.842

@<SCITEGIC>MOL_PROPERTY
VdW6
SciTegic.value.DoubleValue
-3.344

@<SCITEGIC>MOL_PROPERTY
VdW12
SciTegic.value.DoubleValue
4.186

@<SCITEGIC>MOL_PROPERTY
Bond
SciTegic.value.DoubleValue
0.091

@<SCITEGIC>MOL_PROPERTY
Angle
SciTegic.value.DoubleValue
2.713

@<SCITEGIC>MOL_PROPERTY
Pdih
SciTegic.value.DoubleValue
3.529

@<SCITEGIC>MOL_PROPERTY
Idih
SciTegic.value.DoubleValue
0.000

@<SCITEGIC>MOL_PROPERTY
Tether
SciTegic.value.DoubleValue
0.000

@<TRIPOS>MOLECULE
guest-6_confgen4.mol2 : confsearch ligand conformer 538
          13          12           1
SMALL
USER_CHARGES
 
@<TRIPOS>ATOM
       1    C1      17.898355   18.761782   21.729732 C.2        1 MOL1         0.6021
       2    O1      17.463628   17.772036   22.283605 O.co2      1 MOL1        -0.6904
       3    O2      17.329325   19.323534   20.815402 O.co2      1 MOL1        -0.6904
       4    C2      19.239919   19.318026   22.194813 C.3        1 MOL1        -0.2102
       5    H1      19.334220   19.126942   23.270737 H          1 MOL1         0.0687
       6    H2      19.223454   20.406405   22.059986 H          1 MOL1         0.0687
       7    C3      20.443059   18.705675   21.437629 C.3        1 MOL1        -0.1974
       8    H3      20.443644   17.614856   21.571555 H          1 MOL1         0.0689
       9    H4      20.332921   18.894671   20.360609 H          1 MOL1         0.0689
      10    C4      21.782951   19.287949   21.930517 C.3        1 MOL1        -0.2987
      11    H5      22.623280   18.842125   21.382476 H          1 MOL1         0.0700
      12    H6      21.818169   20.374903   21.779372 H          1 MOL1         0.0700
      13    H7      21.929749   19.085234   22.999589 H          1 MOL1         0.0700
@<TRIPOS>BOND
    1     1     2    1
    2     1     3    2
    3     1     4    1
    4     4     5    1
    5     4     6    1
    6     4     7    1
    7     7     8    1
    8     7     9    1
    9     7    10    1
   10    10    11    1
   11    10    12    1
   12    10    13    1
@<TRIPOS>SUBSTRUCTURE
       1 MOL1            1 RESIDUE      1      MOL     
@<SCITEGIC>MOL_PROPERTY
VConf Rank
SciTegic.value.IntegerValue
538

@<SCITEGIC>MOL_PROPERTY
Conf_Id
SciTegic.value.IntegerValue
1

@<SCITEGIC>MOL_PROPERTY
Delta U+W
SciTegic.value.DoubleValue
-1.339

@<SCITEGIC>MOL_PROPERTY
U+W
SciTegic.value.DoubleValue
-59.672

@<SCITEGIC>MOL_PROPERTY
Grad RMS
SciTegic.value.DoubleValue
0.000000

@<SCITEGIC>MOL_PROPERTY
U
SciTegic.value.DoubleValue
7.389

@<SCITEGIC>MOL_PROPERTY
W
SciTegic.value.DoubleValue
-67.061

@<SCITEGIC>MOL_PROPERTY
W(PB)
SciTegic.value.DoubleValue
-68.767

@<SCITEGIC>MOL_PROPERTY
W(SA)
SciTegic.value.DoubleValue
1.707

@<SCITEGIC>MOL_PROPERTY
Valence
SciTegic.value.DoubleValue
5.822

@<SCITEGIC>MOL_PROPERTY
Coulomb
SciTegic.value.DoubleValue
1.255

@<SCITEGIC>MOL_PROPERTY
VdW
SciTegic.value.DoubleValue
0.312

@<SCITEGIC>MOL_PROPERTY
VdW6
SciTegic.value.DoubleValue
-3.061

@<SCITEGIC>MOL_PROPERTY
VdW12
SciTegic.value.DoubleValue
3.372

@<SCITEGIC>MOL_PROPERTY
Bond
SciTegic.value.DoubleValue
0.059

@<SCITEGIC>MOL_PROPERTY
Angle
SciTegic.value.DoubleValue
2.241

@<SCITEGIC>MOL_PROPERTY
Pdih
SciTegic.value.DoubleValue
3.522

@<SCITEGIC>MOL_PROPERTY
Idih
SciTegic.value.DoubleValue
0.000

@<SCITEGIC>MOL_PROPERTY
Tether
SciTegic.value.DoubleValue
0.000

@<TRIPOS>MOLECULE
guest-6_confgen4.mol2 : confsearch ligand conformer 539
          13          12           1
SMALL
USER_CHARGES
 
@<TRIPOS>ATOM
       1    C1      20.025858   18.166966   20.397075 C.2        1 MOL1         0.6021
       2    O1      19.375632   18.746577   19.550106 O.co2      1 MOL1        -0.6904
       3    O2      21.071098   17.593797   20.162863 O.co2      1 MOL1        -0.6904
       4    C2      19.480325   18.127943   21.822416 C.3        1 MOL1        -0.2102
       5    H1      19.988859   17.325957   22.371507 H          1 MOL1         0.0687
       6    H2      18.422163   17.847260   21.759993 H          1 MOL1         0.0687
       7    C3      19.613762   19.468267   22.589923 C.3        1 MOL1        -0.1974
       8    H3      19.137127   20.272199   22.011620 H          1 MOL1         0.0689
       9    H4      19.066219   19.395280   23.539524 H          1 MOL1         0.0689
      10    C4      21.082821   19.837370   22.882427 C.3        1 MOL1        -0.2987
      11    H5      21.651277   19.962370   21.951266 H          1 MOL1         0.0700
      12    H6      21.140748   20.779501   23.442900 H          1 MOL1         0.0700
      13    H7      21.572295   19.056522   23.479155 H          1 MOL1         0.0700
@<TRIPOS>BOND
    1     1     2    1
    2     1     3    2
    3     1     4    1
    4     4     5    1
    5     4     6    1
    6     4     7    1
    7     7     8    1
    8     7     9    1
    9     7    10    1
   10    10    11    1
   11    10    12    1
   12    10    13    1
@<TRIPOS>SUBSTRUCTURE
       1 MOL1            1 RESIDUE      1      MOL     
@<SCITEGIC>MOL_PROPERTY
VConf Rank
SciTegic.value.IntegerValue
539

@<SCITEGIC>MOL_PROPERTY
Conf_Id
SciTegic.value.IntegerValue
4

@<SCITEGIC>MOL_PROPERTY
Delta U+W
SciTegic.value.DoubleValue
0.281

@<SCITEGIC>MOL_PROPERTY
U+W
SciTegic.value.DoubleValue
-58.051

@<SCITEGIC>MOL_PROPERTY
Grad RMS
SciTegic.value.DoubleValue
0.000000

@<SCITEGIC>MOL_PROPERTY
U
SciTegic.value.DoubleValue
9.781

@<SCITEGIC>MOL_PROPERTY
W
SciTegic.value.DoubleValue
-67.832

@<SCITEGIC>MOL_PROPERTY
W(PB)
SciTegic.value.DoubleValue
-69.535

@<SCITEGIC>MOL_PROPERTY
W(SA)
SciTegic.value.DoubleValue
1.703

@<SCITEGIC>MOL_PROPERTY
Valence
SciTegic.value.DoubleValue
6.123

@<SCITEGIC>MOL_PROPERTY
Coulomb
SciTegic.value.DoubleValue
3.449

@<SCITEGIC>MOL_PROPERTY
VdW
SciTegic.value.DoubleValue
0.209

@<SCITEGIC>MOL_PROPERTY
VdW6
SciTegic.value.DoubleValue
-3.762

@<SCITEGIC>MOL_PROPERTY
VdW12
SciTegic.value.DoubleValue
3.972

@<SCITEGIC>MOL_PROPERTY
Bond
SciTegic.value.DoubleValue
0.078

@<SCITEGIC>MOL_PROPERTY
Angle
SciTegic.value.DoubleValue
2.428

@<SCITEGIC>MOL_PROPERTY
Pdih
SciTegic.value.DoubleValue
3.616

@<SCITEGIC>MOL_PROPERTY
Idih
SciTegic.value.DoubleValue
0.002

@<SCITEGIC>MOL_PROPERTY
Tether
SciTegic.value.DoubleValue
0.000

@<TRIPOS>MOLECULE
guest-6_confgen4.mol2 : confsearch ligand conformer 540
          13          12           1
SMALL
USER_CHARGES
 
@<TRIPOS>ATOM
       1    C1      18.999302   18.099700   23.095650 C.2        1 MOL1         0.6021
       2    O1      18.436218   17.212400   22.486108 O.co2      1 MOL1        -0.6904
       3    O2      19.362507   17.992950   24.250112 O.co2      1 MOL1        -0.6904
       4    C2      19.231952   19.432098   22.387615 C.3        1 MOL1        -0.2102
       5    H1      18.898484   20.225865   23.066672 H          1 MOL1         0.0687
       6    H2      18.583781   19.478322   21.503859 H          1 MOL1         0.0687
       7    C3      20.706500   19.686283   21.982107 C.3        1 MOL1        -0.1974
       8    H3      20.807555   20.718850   21.620907 H          1 MOL1         0.0689
       9    H4      21.351928   19.596806   22.867171 H          1 MOL1         0.0689
      10    C4      21.191879   18.718318   20.883300 C.3        1 MOL1        -0.2987
      11    H5      20.573413   18.807518   19.980563 H          1 MOL1         0.0700
      12    H6      22.231146   18.937696   20.606004 H          1 MOL1         0.0700
      13    H7      21.146347   17.676369   21.226951 H          1 MOL1         0.0700
@<TRIPOS>BOND
    1     1     2    1
    2     1     3    2
    3     1     4    1
    4     4     5    1
    5     4     6    1
    6     4     7    1
    7     7     8    1
    8     7     9    1
    9     7    10    1
   10    10    11    1
   11    10    12    1
   12    10    13    1
@<TRIPOS>SUBSTRUCTURE
       1 MOL1            1 RESIDUE      1      MOL     
@<SCITEGIC>MOL_PROPERTY
VConf Rank
SciTegic.value.IntegerValue
540

@<SCITEGIC>MOL_PROPERTY
Conf_Id
SciTegic.value.IntegerValue
36

@<SCITEGIC>MOL_PROPERTY
Delta U+W
SciTegic.value.DoubleValue
0.272

@<SCITEGIC>MOL_PROPERTY
U+W
SciTegic.value.DoubleValue
-58.060

@<SCITEGIC>MOL_PROPERTY
Grad RMS
SciTegic.value.DoubleValue
0.000000

@<SCITEGIC>MOL_PROPERTY
U
SciTegic.value.DoubleValue
9.781

@<SCITEGIC>MOL_PROPERTY
W
SciTegic.value.DoubleValue
-67.841

@<SCITEGIC>MOL_PROPERTY
W(PB)
SciTegic.value.DoubleValue
-69.537

@<SCITEGIC>MOL_PROPERTY
W(SA)
SciTegic.value.DoubleValue
1.696

@<SCITEGIC>MOL_PROPERTY
Valence
SciTegic.value.DoubleValue
6.123

@<SCITEGIC>MOL_PROPERTY
Coulomb
SciTegic.value.DoubleValue
3.449

@<SCITEGIC>MOL_PROPERTY
VdW
SciTegic.value.DoubleValue
0.209

@<SCITEGIC>MOL_PROPERTY
VdW6
SciTegic.value.DoubleValue
-3.762

@<SCITEGIC>MOL_PROPERTY
VdW12
SciTegic.value.DoubleValue
3.972

@<SCITEGIC>MOL_PROPERTY
Bond
SciTegic.value.DoubleValue
0.078

@<SCITEGIC>MOL_PROPERTY
Angle
SciTegic.value.DoubleValue
2.428

@<SCITEGIC>MOL_PROPERTY
Pdih
SciTegic.value.DoubleValue
3.616

@<SCITEGIC>MOL_PROPERTY
Idih
SciTegic.value.DoubleValue
0.002

@<SCITEGIC>MOL_PROPERTY
Tether
SciTegic.value.DoubleValue
0.000

@<TRIPOS>MOLECULE
guest-6_confgen4.mol2 : confsearch ligand conformer 541
          13          12           1
SMALL
USER_CHARGES
 
@<TRIPOS>ATOM
       1    C1      19.104637   17.077083   21.887302 C.2        1 MOL1         0.6021
       2    O1      19.371159   16.673553   20.772197 O.co2      1 MOL1        -0.6904
       3    O2      18.473947   16.423934   22.693789 O.co2      1 MOL1        -0.6904
       4    C2      19.570510   18.467150   22.324747 C.3        1 MOL1        -0.2102
       5    H1      20.179404   18.339620   23.227699 H          1 MOL1         0.0687
       6    H2      18.678990   19.034592   22.617218 H          1 MOL1         0.0687
       7    C3      20.371911   19.264182   21.262460 C.3        1 MOL1        -0.1974
       8    H3      21.263321   18.692522   20.968609 H          1 MOL1         0.0689
       9    H4      19.761087   19.388286   20.357338 H          1 MOL1         0.0689
      10    C4      20.798004   20.648659   21.791140 C.3        1 MOL1        -0.2987
      11    H5      21.436255   20.550762   22.679157 H          1 MOL1         0.0700
      12    H6      21.363220   21.197215   21.026369 H          1 MOL1         0.0700
      13    H7      19.921947   21.252086   22.063027 H          1 MOL1         0.0700
@<TRIPOS>BOND
    1     1     2    1
    2     1     3    2
    3     1     4    1
    4     4     5    1
    5     4     6    1
    6     4     7    1
    7     7     8    1
    8     7     9    1
    9     7    10    1
   10    10    11    1
   11    10    12    1
   12    10    13    1
@<TRIPOS>SUBSTRUCTURE
       1 MOL1            1 RESIDUE      1      MOL     
@<SCITEGIC>MOL_PROPERTY
VConf Rank
SciTegic.value.IntegerValue
541

@<SCITEGIC>MOL_PROPERTY
Conf_Id
SciTegic.value.IntegerValue
0

@<SCITEGIC>MOL_PROPERTY
Delta U+W
SciTegic.value.DoubleValue
0.000

@<SCITEGIC>MOL_PROPERTY
U+W
SciTegic.value.DoubleValue
-58.332

@<SCITEGIC>MOL_PROPERTY
Grad RMS
SciTegic.value.DoubleValue
0.000000

@<SCITEGIC>MOL_PROPERTY
U
SciTegic.value.DoubleValue
8.390

@<SCITEGIC>MOL_PROPERTY
W
SciTegic.value.DoubleValue
-66.722

@<SCITEGIC>MOL_PROPERTY
W(PB)
SciTegic.value.DoubleValue
-68.455

@<SCITEGIC>MOL_PROPERTY
W(SA)
SciTegic.value.DoubleValue
1.733

@<SCITEGIC>MOL_PROPERTY
Valence
SciTegic.value.DoubleValue
6.333

@<SCITEGIC>MOL_PROPERTY
Coulomb
SciTegic.value.DoubleValue
1.215

@<SCITEGIC>MOL_PROPERTY
VdW
SciTegic.value.DoubleValue
0.842

@<SCITEGIC>MOL_PROPERTY
VdW6
SciTegic.value.DoubleValue
-3.344

@<SCITEGIC>MOL_PROPERTY
VdW12
SciTegic.value.DoubleValue
4.186

@<SCITEGIC>MOL_PROPERTY
Bond
SciTegic.value.DoubleValue
0.091

@<SCITEGIC>MOL_PROPERTY
Angle
SciTegic.value.DoubleValue
2.713

@<SCITEGIC>MOL_PROPERTY
Pdih
SciTegic.value.DoubleValue
3.529

@<SCITEGIC>MOL_PROPERTY
Idih
SciTegic.value.DoubleValue
0.000

@<SCITEGIC>MOL_PROPERTY
Tether
SciTegic.value.DoubleValue
0.000

@<TRIPOS>MOLECULE
guest-6_confgen4.mol2 : confsearch ligand conformer 542
          13          12           1
SMALL
USER_CHARGES
 
@<TRIPOS>ATOM
       1    C1      20.641215   18.707811   23.813256 C.2        1 MOL1         0.6021
       2    O1      20.350580   17.632599   24.297831 O.co2      1 MOL1        -0.6904
       3    O2      20.870190   19.701419   24.473312 O.co2      1 MOL1        -0.6904
       4    C2      20.703557   18.821038   22.293785 C.3        1 MOL1        -0.2102
       5    H1      21.040855   17.857314   21.893182 H          1 MOL1         0.0687
       6    H2      21.469375   19.563374   22.037896 H          1 MOL1         0.0687
       7    C3      19.347050   19.215426   21.661175 C.3        1 MOL1        -0.1974
       8    H3      18.585871   18.470478   21.932248 H          1 MOL1         0.0689
       9    H4      19.014542   20.176905   22.076890 H          1 MOL1         0.0689
      10    C4      19.443353   19.321352   20.125989 C.3        1 MOL1        -0.2987
      11    H5      18.472847   19.601613   19.696066 H          1 MOL1         0.0700
      12    H6      20.177621   20.082165   19.830067 H          1 MOL1         0.0700
      13    H7      19.745621   18.362642   19.684327 H          1 MOL1         0.0700
@<TRIPOS>BOND
    1     1     2    1
    2     1     3    2
    3     1     4    1
    4     4     5    1
    5     4     6    1
    6     4     7    1
    7     7     8    1
    8     7     9    1
    9     7    10    1
   10    10    11    1
   11    10    12    1
   12    10    13    1
@<TRIPOS>SUBSTRUCTURE
       1 MOL1            1 RESIDUE      1      MOL     
@<SCITEGIC>MOL_PROPERTY
VConf Rank
SciTegic.value.IntegerValue
542

@<SCITEGIC>MOL_PROPERTY
Conf_Id
SciTegic.value.IntegerValue
1

@<SCITEGIC>MOL_PROPERTY
Delta U+W
SciTegic.value.DoubleValue
-1.339

@<SCITEGIC>MOL_PROPERTY
U+W
SciTegic.value.DoubleValue
-59.672

@<SCITEGIC>MOL_PROPERTY
Grad RMS
SciTegic.value.DoubleValue
0.000000

@<SCITEGIC>MOL_PROPERTY
U
SciTegic.value.DoubleValue
7.389

@<SCITEGIC>MOL_PROPERTY
W
SciTegic.value.DoubleValue
-67.061

@<SCITEGIC>MOL_PROPERTY
W(PB)
SciTegic.value.DoubleValue
-68.767

@<SCITEGIC>MOL_PROPERTY
W(SA)
SciTegic.value.DoubleValue
1.707

@<SCITEGIC>MOL_PROPERTY
Valence
SciTegic.value.DoubleValue
5.822

@<SCITEGIC>MOL_PROPERTY
Coulomb
SciTegic.value.DoubleValue
1.255

@<SCITEGIC>MOL_PROPERTY
VdW
SciTegic.value.DoubleValue
0.312

@<SCITEGIC>MOL_PROPERTY
VdW6
SciTegic.value.DoubleValue
-3.061

@<SCITEGIC>MOL_PROPERTY
VdW12
SciTegic.value.DoubleValue
3.372

@<SCITEGIC>MOL_PROPERTY
Bond
SciTegic.value.DoubleValue
0.059

@<SCITEGIC>MOL_PROPERTY
Angle
SciTegic.value.DoubleValue
2.241

@<SCITEGIC>MOL_PROPERTY
Pdih
SciTegic.value.DoubleValue
3.522

@<SCITEGIC>MOL_PROPERTY
Idih
SciTegic.value.DoubleValue
0.000

@<SCITEGIC>MOL_PROPERTY
Tether
SciTegic.value.DoubleValue
0.000

@<TRIPOS>MOLECULE
guest-6_confgen4.mol2 : confsearch ligand conformer 543
          13          12           1
SMALL
USER_CHARGES
 
@<TRIPOS>ATOM
       1    C1      20.970957   20.384795   21.298885 C.2        1 MOL1         0.6021
       2    O1      20.271402   21.336621   21.014724 O.co2      1 MOL1        -0.6904
       3    O2      22.072503   20.489460   21.800429 O.co2      1 MOL1        -0.6904
       4    C2      20.451031   18.986474   20.974688 C.3        1 MOL1        -0.2102
       5    H1      21.295223   18.286128   20.986642 H          1 MOL1         0.0687
       6    H2      20.072654   19.008692   19.945745 H          1 MOL1         0.0687
       7    C3      19.331566   18.489506   21.925036 C.3        1 MOL1        -0.1974
       8    H3      18.509111   19.218437   21.937267 H          1 MOL1         0.0689
       9    H4      18.916084   17.551471   21.532175 H          1 MOL1         0.0689
      10    C4      19.839333   18.252730   23.362407 C.3        1 MOL1        -0.2987
      11    H5      20.222355   19.182387   23.803837 H          1 MOL1         0.0700
      12    H6      19.028214   17.883325   24.003283 H          1 MOL1         0.0700
      13    H7      20.647752   17.509982   23.375657 H          1 MOL1         0.0700
@<TRIPOS>BOND
    1     1     2    1
    2     1     3    2
    3     1     4    1
    4     4     5    1
    5     4     6    1
    6     4     7    1
    7     7     8    1
    8     7     9    1
    9     7    10    1
   10    10    11    1
   11    10    12    1
   12    10    13    1
@<TRIPOS>SUBSTRUCTURE
       1 MOL1            1 RESIDUE      1      MOL     
@<SCITEGIC>MOL_PROPERTY
VConf Rank
SciTegic.value.IntegerValue
543

@<SCITEGIC>MOL_PROPERTY
Conf_Id
SciTegic.value.IntegerValue
4

@<SCITEGIC>MOL_PROPERTY
Delta U+W
SciTegic.value.DoubleValue
0.281

@<SCITEGIC>MOL_PROPERTY
U+W
SciTegic.value.DoubleValue
-58.051

@<SCITEGIC>MOL_PROPERTY
Grad RMS
SciTegic.value.DoubleValue
0.000000

@<SCITEGIC>MOL_PROPERTY
U
SciTegic.value.DoubleValue
9.781

@<SCITEGIC>MOL_PROPERTY
W
SciTegic.value.DoubleValue
-67.832

@<SCITEGIC>MOL_PROPERTY
W(PB)
SciTegic.value.DoubleValue
-69.535

@<SCITEGIC>MOL_PROPERTY
W(SA)
SciTegic.value.DoubleValue
1.703

@<SCITEGIC>MOL_PROPERTY
Valence
SciTegic.value.DoubleValue
6.123

@<SCITEGIC>MOL_PROPERTY
Coulomb
SciTegic.value.DoubleValue
3.449

@<SCITEGIC>MOL_PROPERTY
VdW
SciTegic.value.DoubleValue
0.209

@<SCITEGIC>MOL_PROPERTY
VdW6
SciTegic.value.DoubleValue
-3.762

@<SCITEGIC>MOL_PROPERTY
VdW12
SciTegic.value.DoubleValue
3.972

@<SCITEGIC>MOL_PROPERTY
Bond
SciTegic.value.DoubleValue
0.078

@<SCITEGIC>MOL_PROPERTY
Angle
SciTegic.value.DoubleValue
2.428

@<SCITEGIC>MOL_PROPERTY
Pdih
SciTegic.value.DoubleValue
3.616

@<SCITEGIC>MOL_PROPERTY
Idih
SciTegic.value.DoubleValue
0.002

@<SCITEGIC>MOL_PROPERTY
Tether
SciTegic.value.DoubleValue
0.000

@<TRIPOS>MOLECULE
guest-6_confgen4.mol2 : confsearch ligand conformer 544
          13          12           1
SMALL
USER_CHARGES
 
@<TRIPOS>ATOM
       1    C1      19.285523   20.392922   21.297514 C.2        1 MOL1         0.6021
       2    O1      20.106297   21.146584   20.813542 O.co2      1 MOL1        -0.6904
       3    O2      18.194651   20.185069   20.804672 O.co2      1 MOL1        -0.6904
       4    C2      19.626187   19.696704   22.612791 C.3        1 MOL1        -0.2102
       5    H1      18.768462   19.826886   23.283422 H          1 MOL1         0.0687
       6    H2      20.472945   20.217180   23.076896 H          1 MOL1         0.0687
       7    C3      19.942612   18.186013   22.467787 C.3        1 MOL1        -0.1974
       8    H3      20.025948   17.738184   23.467475 H          1 MOL1         0.0689
       9    H4      19.105713   17.681655   21.964654 H          1 MOL1         0.0689
      10    C4      21.249672   17.928616   21.689798 C.3        1 MOL1        -0.2987
      11    H5      22.103537   18.405964   22.188241 H          1 MOL1         0.0700
      12    H6      21.454142   16.852167   21.622377 H          1 MOL1         0.0700
      13    H7      21.185320   18.325231   20.667848 H          1 MOL1         0.0700
@<TRIPOS>BOND
    1     1     2    1
    2     1     3    2
    3     1     4    1
    4     4     5    1
    5     4     6    1
    6     4     7    1
    7     7     8    1
    8     7     9    1
    9     7    10    1
   10    10    11    1
   11    10    12    1
   12    10    13    1
@<TRIPOS>SUBSTRUCTURE
       1 MOL1            1 RESIDUE      1      MOL     
@<SCITEGIC>MOL_PROPERTY
VConf Rank
SciTegic.value.IntegerValue
544

@<SCITEGIC>MOL_PROPERTY
Conf_Id
SciTegic.value.IntegerValue
36

@<SCITEGIC>MOL_PROPERTY
Delta U+W
SciTegic.value.DoubleValue
0.272

@<SCITEGIC>MOL_PROPERTY
U+W
SciTegic.value.DoubleValue
-58.060

@<SCITEGIC>MOL_PROPERTY
Grad RMS
SciTegic.value.DoubleValue
0.000000

@<SCITEGIC>MOL_PROPERTY
U
SciTegic.value.DoubleValue
9.781

@<SCITEGIC>MOL_PROPERTY
W
SciTegic.value.DoubleValue
-67.841

@<SCITEGIC>MOL_PROPERTY
W(PB)
SciTegic.value.DoubleValue
-69.537

@<SCITEGIC>MOL_PROPERTY
W(SA)
SciTegic.value.DoubleValue
1.696

@<SCITEGIC>MOL_PROPERTY
Valence
SciTegic.value.DoubleValue
6.123

@<SCITEGIC>MOL_PROPERTY
Coulomb
SciTegic.value.DoubleValue
3.449

@<SCITEGIC>MOL_PROPERTY
VdW
SciTegic.value.DoubleValue
0.209

@<SCITEGIC>MOL_PROPERTY
VdW6
SciTegic.value.DoubleValue
-3.762

@<SCITEGIC>MOL_PROPERTY
VdW12
SciTegic.value.DoubleValue
3.972

@<SCITEGIC>MOL_PROPERTY
Bond
SciTegic.value.DoubleValue
0.078

@<SCITEGIC>MOL_PROPERTY
Angle
SciTegic.value.DoubleValue
2.428

@<SCITEGIC>MOL_PROPERTY
Pdih
SciTegic.value.DoubleValue
3.616

@<SCITEGIC>MOL_PROPERTY
Idih
SciTegic.value.DoubleValue
0.002

@<SCITEGIC>MOL_PROPERTY
Tether
SciTegic.value.DoubleValue
0.000

@<TRIPOS>MOLECULE
guest-6_confgen4.mol2 : confsearch ligand conformer 545
          13          12           1
SMALL
USER_CHARGES
 
@<TRIPOS>ATOM
       1    C1      20.373226   17.452259   20.397154 C.2        1 MOL1         0.6021
       2    O1      19.871809   17.951788   19.409033 O.co2      1 MOL1        -0.6904
       3    O2      20.891343   16.353929   20.392503 O.co2      1 MOL1        -0.6904
       4    C2      20.367060   18.216684   21.722408 C.3        1 MOL1        -0.2102
       5    H1      21.409454   18.317818   22.047253 H          1 MOL1         0.0687
       6    H2      19.860833   17.585500   22.462460 H          1 MOL1         0.0687
       7    C3      19.695017   19.614020   21.680365 C.3        1 MOL1        -0.1974
       8    H3      20.201930   20.243988   20.936098 H          1 MOL1         0.0689
       9    H4      18.651416   19.510780   21.351741 H          1 MOL1         0.0689
      10    C4      19.736181   20.307395   23.057090 C.3        1 MOL1        -0.2987
      11    H5      20.771276   20.450481   23.394176 H          1 MOL1         0.0700
      12    H6      19.256494   21.293656   23.007607 H          1 MOL1         0.0700
      13    H7      19.208352   19.711346   23.813162 H          1 MOL1         0.0700
@<TRIPOS>BOND
    1     1     2    1
    2     1     3    2
    3     1     4    1
    4     4     5    1
    5     4     6    1
    6     4     7    1
    7     7     8    1
    8     7     9    1
    9     7    10    1
   10    10    11    1
   11    10    12    1
   12    10    13    1
@<TRIPOS>SUBSTRUCTURE
       1 MOL1            1 RESIDUE      1      MOL     
@<SCITEGIC>MOL_PROPERTY
VConf Rank
SciTegic.value.IntegerValue
545

@<SCITEGIC>MOL_PROPERTY
Conf_Id
SciTegic.value.IntegerValue
0

@<SCITEGIC>MOL_PROPERTY
Delta U+W
SciTegic.value.DoubleValue
0.000

@<SCITEGIC>MOL_PROPERTY
U+W
SciTegic.value.DoubleValue
-58.332

@<SCITEGIC>MOL_PROPERTY
Grad RMS
SciTegic.value.DoubleValue
0.000000

@<SCITEGIC>MOL_PROPERTY
U
SciTegic.value.DoubleValue
8.390

@<SCITEGIC>MOL_PROPERTY
W
SciTegic.value.DoubleValue
-66.722

@<SCITEGIC>MOL_PROPERTY
W(PB)
SciTegic.value.DoubleValue
-68.455

@<SCITEGIC>MOL_PROPERTY
W(SA)
SciTegic.value.DoubleValue
1.733

@<SCITEGIC>MOL_PROPERTY
Valence
SciTegic.value.DoubleValue
6.333

@<SCITEGIC>MOL_PROPERTY
Coulomb
SciTegic.value.DoubleValue
1.215

@<SCITEGIC>MOL_PROPERTY
VdW
SciTegic.value.DoubleValue
0.842

@<SCITEGIC>MOL_PROPERTY
VdW6
SciTegic.value.DoubleValue
-3.344

@<SCITEGIC>MOL_PROPERTY
VdW12
SciTegic.value.DoubleValue
4.186

@<SCITEGIC>MOL_PROPERTY
Bond
SciTegic.value.DoubleValue
0.091

@<SCITEGIC>MOL_PROPERTY
Angle
SciTegic.value.DoubleValue
2.713

@<SCITEGIC>MOL_PROPERTY
Pdih
SciTegic.value.DoubleValue
3.529

@<SCITEGIC>MOL_PROPERTY
Idih
SciTegic.value.DoubleValue
0.000

@<SCITEGIC>MOL_PROPERTY
Tether
SciTegic.value.DoubleValue
0.000

@<TRIPOS>MOLECULE
guest-6_confgen4.mol2 : confsearch ligand conformer 546
          13          12           1
SMALL
USER_CHARGES
 
@<TRIPOS>ATOM
       1    C1      18.232711   20.165700   21.506530 C.2        1 MOL1         0.6021
       2    O1      18.357406   21.164972   20.827364 O.co2      1 MOL1        -0.6904
       3    O2      17.342767   20.013339   22.319025 O.co2      1 MOL1        -0.6904
       4    C2      19.259675   19.050183   21.343849 C.3        1 MOL1        -0.2102
       5    H1      19.593332   19.043024   20.299033 H          1 MOL1         0.0687
       6    H2      18.756590   18.093315   21.529126 H          1 MOL1         0.0687
       7    C3      20.474863   19.205010   22.289997 C.3        1 MOL1        -0.1974
       8    H3      20.964729   20.170744   22.102353 H          1 MOL1         0.0689
       9    H4      20.127844   19.220727   23.332664 H          1 MOL1         0.0689
      10    C4      21.493495   18.063082   22.101112 C.3        1 MOL1        -0.2987
      11    H5      22.347034   18.190072   22.779792 H          1 MOL1         0.0700
      12    H6      21.034452   17.088316   22.312455 H          1 MOL1         0.0700
      13    H7      21.877776   18.045653   21.072724 H          1 MOL1         0.0700
@<TRIPOS>BOND
    1     1     2    1
    2     1     3    2
    3     1     4    1
    4     4     5    1
    5     4     6    1
    6     4     7    1
    7     7     8    1
    8     7     9    1
    9     7    10    1
   10    10    11    1
   11    10    12    1
   12    10    13    1
@<TRIPOS>SUBSTRUCTURE
       1 MOL1            1 RESIDUE      1      MOL     
@<SCITEGIC>MOL_PROPERTY
VConf Rank
SciTegic.value.IntegerValue
546

@<SCITEGIC>MOL_PROPERTY
Conf_Id
SciTegic.value.IntegerValue
1

@<SCITEGIC>MOL_PROPERTY
Delta U+W
SciTegic.value.DoubleValue
-1.339

@<SCITEGIC>MOL_PROPERTY
U+W
SciTegic.value.DoubleValue
-59.672

@<SCITEGIC>MOL_PROPERTY
Grad RMS
SciTegic.value.DoubleValue
0.000000

@<SCITEGIC>MOL_PROPERTY
U
SciTegic.value.DoubleValue
7.389

@<SCITEGIC>MOL_PROPERTY
W
SciTegic.value.DoubleValue
-67.061

@<SCITEGIC>MOL_PROPERTY
W(PB)
SciTegic.value.DoubleValue
-68.767

@<SCITEGIC>MOL_PROPERTY
W(SA)
SciTegic.value.DoubleValue
1.707

@<SCITEGIC>MOL_PROPERTY
Valence
SciTegic.value.DoubleValue
5.822

@<SCITEGIC>MOL_PROPERTY
Coulomb
SciTegic.value.DoubleValue
1.255

@<SCITEGIC>MOL_PROPERTY
VdW
SciTegic.value.DoubleValue
0.312

@<SCITEGIC>MOL_PROPERTY
VdW6
SciTegic.value.DoubleValue
-3.061

@<SCITEGIC>MOL_PROPERTY
VdW12
SciTegic.value.DoubleValue
3.372

@<SCITEGIC>MOL_PROPERTY
Bond
SciTegic.value.DoubleValue
0.059

@<SCITEGIC>MOL_PROPERTY
Angle
SciTegic.value.DoubleValue
2.241

@<SCITEGIC>MOL_PROPERTY
Pdih
SciTegic.value.DoubleValue
3.522

@<SCITEGIC>MOL_PROPERTY
Idih
SciTegic.value.DoubleValue
0.000

@<SCITEGIC>MOL_PROPERTY
Tether
SciTegic.value.DoubleValue
0.000

@<TRIPOS>MOLECULE
guest-6_confgen4.mol2 : confsearch ligand conformer 547
          13          12           1
SMALL
USER_CHARGES
 
@<TRIPOS>ATOM
       1    C1      18.545094   19.188974   22.812401 C.2        1 MOL1         0.6021
       2    O1      18.588756   19.448021   23.998608 O.co2      1 MOL1        -0.6904
       3    O2      17.758379   19.703928   22.043111 O.co2      1 MOL1        -0.6904
       4    C2      19.506374   18.134462   22.269561 C.3        1 MOL1        -0.2102
       5    H1      19.137137   17.790469   21.295590 H          1 MOL1         0.0687
       6    H2      19.463195   17.273081   22.946721 H          1 MOL1         0.0687
       7    C3      20.973843   18.618220   22.143664 C.3        1 MOL1        -0.1974
       8    H3      21.320163   18.998838   23.114805 H          1 MOL1         0.0689
       9    H4      21.614892   17.761853   21.893532 H          1 MOL1         0.0689
      10    C4      21.145726   19.708185   21.065536 C.3        1 MOL1        -0.2987
      11    H5      20.551491   20.599451   21.307110 H          1 MOL1         0.0700
      12    H6      22.197307   20.013702   20.988522 H          1 MOL1         0.0700
      13    H7      20.825827   19.340824   20.081614 H          1 MOL1         0.0700
@<TRIPOS>BOND
    1     1     2    1
    2     1     3    2
    3     1     4    1
    4     4     5    1
    5     4     6    1
    6     4     7    1
    7     7     8    1
    8     7     9    1
    9     7    10    1
   10    10    11    1
   11    10    12    1
   12    10    13    1
@<TRIPOS>SUBSTRUCTURE
       1 MOL1            1 RESIDUE      1      MOL     
@<SCITEGIC>MOL_PROPERTY
VConf Rank
SciTegic.value.IntegerValue
547

@<SCITEGIC>MOL_PROPERTY
Conf_Id
SciTegic.value.IntegerValue
4

@<SCITEGIC>MOL_PROPERTY
Delta U+W
SciTegic.value.DoubleValue
0.281

@<SCITEGIC>MOL_PROPERTY
U+W
SciTegic.value.DoubleValue
-58.051

@<SCITEGIC>MOL_PROPERTY
Grad RMS
SciTegic.value.DoubleValue
0.000000

@<SCITEGIC>MOL_PROPERTY
U
SciTegic.value.DoubleValue
9.781

@<SCITEGIC>MOL_PROPERTY
W
SciTegic.value.DoubleValue
-67.832

@<SCITEGIC>MOL_PROPERTY
W(PB)
SciTegic.value.DoubleValue
-69.535

@<SCITEGIC>MOL_PROPERTY
W(SA)
SciTegic.value.DoubleValue
1.703

@<SCITEGIC>MOL_PROPERTY
Valence
SciTegic.value.DoubleValue
6.123

@<SCITEGIC>MOL_PROPERTY
Coulomb
SciTegic.value.DoubleValue
3.449

@<SCITEGIC>MOL_PROPERTY
VdW
SciTegic.value.DoubleValue
0.209

@<SCITEGIC>MOL_PROPERTY
VdW6
SciTegic.value.DoubleValue
-3.762

@<SCITEGIC>MOL_PROPERTY
VdW12
SciTegic.value.DoubleValue
3.972

@<SCITEGIC>MOL_PROPERTY
Bond
SciTegic.value.DoubleValue
0.078

@<SCITEGIC>MOL_PROPERTY
Angle
SciTegic.value.DoubleValue
2.428

@<SCITEGIC>MOL_PROPERTY
Pdih
SciTegic.value.DoubleValue
3.616

@<SCITEGIC>MOL_PROPERTY
Idih
SciTegic.value.DoubleValue
0.002

@<SCITEGIC>MOL_PROPERTY
Tether
SciTegic.value.DoubleValue
0.000

@<TRIPOS>MOLECULE
guest-6_confgen4.mol2 : confsearch ligand conformer 548
          13          12           1
SMALL
USER_CHARGES
 
@<TRIPOS>ATOM
       1    C1      21.366809   18.529474   23.203557 C.2        1 MOL1         0.6021
       2    O1      20.863470   18.468933   24.307591 O.co2      1 MOL1        -0.6904
       3    O2      22.234589   17.770205   22.820718 O.co2      1 MOL1        -0.6904
       4    C2      20.912317   19.639089   22.258615 C.3        1 MOL1        -0.2102
       5    H1      21.814147   20.112953   21.852978 H          1 MOL1         0.0687
       6    H2      20.387478   20.405039   22.842697 H          1 MOL1         0.0687
       7    C3      20.016715   19.151128   21.091085 C.3        1 MOL1        -0.1974
       8    H3      19.863758   19.978503   20.384737 H          1 MOL1         0.0689
       9    H4      20.534997   18.355387   20.537819 H          1 MOL1         0.0689
      10    C4      18.643414   18.640500   21.574027 C.3        1 MOL1        -0.2987
      11    H5      18.098569   19.428051   22.110962 H          1 MOL1         0.0700
      12    H6      18.028005   18.321718   20.722708 H          1 MOL1         0.0700
      13    H7      18.756744   17.782195   22.249523 H          1 MOL1         0.0700
@<TRIPOS>BOND
    1     1     2    1
    2     1     3    2
    3     1     4    1
    4     4     5    1
    5     4     6    1
    6     4     7    1
    7     7     8    1
    8     7     9    1
    9     7    10    1
   10    10    11    1
   11    10    12    1
   12    10    13    1
@<TRIPOS>SUBSTRUCTURE
       1 MOL1            1 RESIDUE      1      MOL     
@<SCITEGIC>MOL_PROPERTY
VConf Rank
SciTegic.value.IntegerValue
548

@<SCITEGIC>MOL_PROPERTY
Conf_Id
SciTegic.value.IntegerValue
36

@<SCITEGIC>MOL_PROPERTY
Delta U+W
SciTegic.value.DoubleValue
0.272

@<SCITEGIC>MOL_PROPERTY
U+W
SciTegic.value.DoubleValue
-58.060

@<SCITEGIC>MOL_PROPERTY
Grad RMS
SciTegic.value.DoubleValue
0.000000

@<SCITEGIC>MOL_PROPERTY
U
SciTegic.value.DoubleValue
9.781

@<SCITEGIC>MOL_PROPERTY
W
SciTegic.value.DoubleValue
-67.841

@<SCITEGIC>MOL_PROPERTY
W(PB)
SciTegic.value.DoubleValue
-69.537

@<SCITEGIC>MOL_PROPERTY
W(SA)
SciTegic.value.DoubleValue
1.696

@<SCITEGIC>MOL_PROPERTY
Valence
SciTegic.value.DoubleValue
6.123

@<SCITEGIC>MOL_PROPERTY
Coulomb
SciTegic.value.DoubleValue
3.449

@<SCITEGIC>MOL_PROPERTY
VdW
SciTegic.value.DoubleValue
0.209

@<SCITEGIC>MOL_PROPERTY
VdW6
SciTegic.value.DoubleValue
-3.762

@<SCITEGIC>MOL_PROPERTY
VdW12
SciTegic.value.DoubleValue
3.972

@<SCITEGIC>MOL_PROPERTY
Bond
SciTegic.value.DoubleValue
0.078

@<SCITEGIC>MOL_PROPERTY
Angle
SciTegic.value.DoubleValue
2.428

@<SCITEGIC>MOL_PROPERTY
Pdih
SciTegic.value.DoubleValue
3.616

@<SCITEGIC>MOL_PROPERTY
Idih
SciTegic.value.DoubleValue
0.002

@<SCITEGIC>MOL_PROPERTY
Tether
SciTegic.value.DoubleValue
0.000

@<TRIPOS>MOLECULE
guest-6_confgen4.mol2 : confsearch ligand conformer 549
          13          12           1
SMALL
USER_CHARGES
 
@<TRIPOS>ATOM
       1    C1      19.610741   20.161560   20.080030 C.2        1 MOL1         0.6021
       2    O1      19.581704   21.275006   20.566573 O.co2      1 MOL1        -0.6904
       3    O2      19.430836   19.951654   18.897503 O.co2      1 MOL1        -0.6904
       4    C2      19.883636   18.948670   20.971719 C.3        1 MOL1        -0.2102
       5    H1      20.764512   18.436081   20.567187 H          1 MOL1         0.0687
       6    H2      19.035167   18.262976   20.860983 H          1 MOL1         0.0687
       7    C3      20.107144   19.265023   22.473692 C.3        1 MOL1        -0.1974
       8    H3      20.955967   19.954566   22.582244 H          1 MOL1         0.0689
       9    H4      19.224519   19.781320   22.876389 H          1 MOL1         0.0689
      10    C4      20.374130   17.985349   23.291608 C.3        1 MOL1        -0.2987
      11    H5      21.270867   17.466546   22.927976 H          1 MOL1         0.0700
      12    H6      20.529641   18.229005   24.350714 H          1 MOL1         0.0700
      13    H7      19.525527   17.291891   23.224432 H          1 MOL1         0.0700
@<TRIPOS>BOND
    1     1     2    1
    2     1     3    2
    3     1     4    1
    4     4     5    1
    5     4     6    1
    6     4     7    1
    7     7     8    1
    8     7     9    1
    9     7    10    1
   10    10    11    1
   11    10    12    1
   12    10    13    1
@<TRIPOS>SUBSTRUCTURE
       1 MOL1            1 RESIDUE      1      MOL     
@<SCITEGIC>MOL_PROPERTY
VConf Rank
SciTegic.value.IntegerValue
549

@<SCITEGIC>MOL_PROPERTY
Conf_Id
SciTegic.value.IntegerValue
0

@<SCITEGIC>MOL_PROPERTY
Delta U+W
SciTegic.value.DoubleValue
0.000

@<SCITEGIC>MOL_PROPERTY
U+W
SciTegic.value.DoubleValue
-58.332

@<SCITEGIC>MOL_PROPERTY
Grad RMS
SciTegic.value.DoubleValue
0.000000

@<SCITEGIC>MOL_PROPERTY
U
SciTegic.value.DoubleValue
8.390

@<SCITEGIC>MOL_PROPERTY
W
SciTegic.value.DoubleValue
-66.722

@<SCITEGIC>MOL_PROPERTY
W(PB)
SciTegic.value.DoubleValue
-68.455

@<SCITEGIC>MOL_PROPERTY
W(SA)
SciTegic.value.DoubleValue
1.733

@<SCITEGIC>MOL_PROPERTY
Valence
SciTegic.value.DoubleValue
6.333

@<SCITEGIC>MOL_PROPERTY
Coulomb
SciTegic.value.DoubleValue
1.215

@<SCITEGIC>MOL_PROPERTY
VdW
SciTegic.value.DoubleValue
0.842

@<SCITEGIC>MOL_PROPERTY
VdW6
SciTegic.value.DoubleValue
-3.344

@<SCITEGIC>MOL_PROPERTY
VdW12
SciTegic.value.DoubleValue
4.186

@<SCITEGIC>MOL_PROPERTY
Bond
SciTegic.value.DoubleValue
0.091

@<SCITEGIC>MOL_PROPERTY
Angle
SciTegic.value.DoubleValue
2.713

@<SCITEGIC>MOL_PROPERTY
Pdih
SciTegic.value.DoubleValue
3.529

@<SCITEGIC>MOL_PROPERTY
Idih
SciTegic.value.DoubleValue
0.000

@<SCITEGIC>MOL_PROPERTY
Tether
SciTegic.value.DoubleValue
0.000

@<TRIPOS>MOLECULE
guest-6_confgen4.mol2 : confsearch ligand conformer 550
          13          12           1
SMALL
USER_CHARGES
 
@<TRIPOS>ATOM
       1    C1      19.361424   17.184839   21.040874 C.2        1 MOL1         0.6021
       2    O1      19.104470   17.170371   19.853807 O.co2      1 MOL1        -0.6904
       3    O2      18.896956   16.394408   21.837647 O.co2      1 MOL1        -0.6904
       4    C2      20.303131   18.265193   21.561951 C.3        1 MOL1        -0.2102
       5    H1      21.032461   18.491146   20.774524 H          1 MOL1         0.0687
       6    H2      20.861347   17.851228   22.410507 H          1 MOL1         0.0687
       7    C3      19.563875   19.556115   21.989584 C.3        1 MOL1        -0.1974
       8    H3      19.000592   19.956106   21.134866 H          1 MOL1         0.0689
       9    H4      18.829550   19.316090   22.771234 H          1 MOL1         0.0689
      10    C4      20.542610   20.627388   22.510873 C.3        1 MOL1        -0.2987
      11    H5      20.000416   21.534281   22.808923 H          1 MOL1         0.0700
      12    H6      21.096762   20.261013   23.385082 H          1 MOL1         0.0700
      13    H7      21.269080   20.905958   21.736150 H          1 MOL1         0.0700
@<TRIPOS>BOND
    1     1     2    1
    2     1     3    2
    3     1     4    1
    4     4     5    1
    5     4     6    1
    6     4     7    1
    7     7     8    1
    8     7     9    1
    9     7    10    1
   10    10    11    1
   11    10    12    1
   12    10    13    1
@<TRIPOS>SUBSTRUCTURE
       1 MOL1            1 RESIDUE      1      MOL     
@<SCITEGIC>MOL_PROPERTY
VConf Rank
SciTegic.value.IntegerValue
550

@<SCITEGIC>MOL_PROPERTY
Conf_Id
SciTegic.value.IntegerValue
1

@<SCITEGIC>MOL_PROPERTY
Delta U+W
SciTegic.value.DoubleValue
-1.339

@<SCITEGIC>MOL_PROPERTY
U+W
SciTegic.value.DoubleValue
-59.672

@<SCITEGIC>MOL_PROPERTY
Grad RMS
SciTegic.value.DoubleValue
0.000000

@<SCITEGIC>MOL_PROPERTY
U
SciTegic.value.DoubleValue
7.389

@<SCITEGIC>MOL_PROPERTY
W
SciTegic.value.DoubleValue
-67.061

@<SCITEGIC>MOL_PROPERTY
W(PB)
SciTegic.value.DoubleValue
-68.767

@<SCITEGIC>MOL_PROPERTY
W(SA)
SciTegic.value.DoubleValue
1.707

@<SCITEGIC>MOL_PROPERTY
Valence
SciTegic.value.DoubleValue
5.822

@<SCITEGIC>MOL_PROPERTY
Coulomb
SciTegic.value.DoubleValue
1.255

@<SCITEGIC>MOL_PROPERTY
VdW
SciTegic.value.DoubleValue
0.312

@<SCITEGIC>MOL_PROPERTY
VdW6
SciTegic.value.DoubleValue
-3.061

@<SCITEGIC>MOL_PROPERTY
VdW12
SciTegic.value.DoubleValue
3.372

@<SCITEGIC>MOL_PROPERTY
Bond
SciTegic.value.DoubleValue
0.059

@<SCITEGIC>MOL_PROPERTY
Angle
SciTegic.value.DoubleValue
2.241

@<SCITEGIC>MOL_PROPERTY
Pdih
SciTegic.value.DoubleValue
3.522

@<SCITEGIC>MOL_PROPERTY
Idih
SciTegic.value.DoubleValue
0.000

@<SCITEGIC>MOL_PROPERTY
Tether
SciTegic.value.DoubleValue
0.000

@<TRIPOS>MOLECULE
guest-6_confgen4.mol2 : confsearch ligand conformer 551
          13          12           1
SMALL
USER_CHARGES
 
@<TRIPOS>ATOM
       1    C1      19.614972   20.213170   20.814124 C.2        1 MOL1         0.6021
       2    O1      20.357424   21.166842   20.690134 O.co2      1 MOL1        -0.6904
       3    O2      19.047539   19.680631   19.881210 O.co2      1 MOL1        -0.6904
       4    C2      19.355214   19.680698   22.221151 C.3        1 MOL1        -0.2102
       5    H1      18.450715   19.060415   22.200740 H          1 MOL1         0.0687
       6    H2      19.133442   20.542899   22.861317 H          1 MOL1         0.0687
       7    C3      20.537706   18.880642   22.825273 C.3        1 MOL1        -0.1974
       8    H3      21.447799   19.496398   22.802989 H          1 MOL1         0.0689
       9    H4      20.326021   18.668464   23.882176 H          1 MOL1         0.0689
      10    C4      20.790115   17.550836   22.085114 C.3        1 MOL1        -0.2987
      11    H5      21.048978   17.727852   21.032744 H          1 MOL1         0.0700
      12    H6      21.619199   17.001067   22.549301 H          1 MOL1         0.0700
      13    H7      19.899059   16.910096   22.114504 H          1 MOL1         0.0700
@<TRIPOS>BOND
    1     1     2    1
    2     1     3    2
    3     1     4    1
    4     4     5    1
    5     4     6    1
    6     4     7    1
    7     7     8    1
    8     7     9    1
    9     7    10    1
   10    10    11    1
   11    10    12    1
   12    10    13    1
@<TRIPOS>SUBSTRUCTURE
       1 MOL1            1 RESIDUE      1      MOL     
@<SCITEGIC>MOL_PROPERTY
VConf Rank
SciTegic.value.IntegerValue
551

@<SCITEGIC>MOL_PROPERTY
Conf_Id
SciTegic.value.IntegerValue
4

@<SCITEGIC>MOL_PROPERTY
Delta U+W
SciTegic.value.DoubleValue
0.281

@<SCITEGIC>MOL_PROPERTY
U+W
SciTegic.value.DoubleValue
-58.051

@<SCITEGIC>MOL_PROPERTY
Grad RMS
SciTegic.value.DoubleValue
0.000000

@<SCITEGIC>MOL_PROPERTY
U
SciTegic.value.DoubleValue
9.781

@<SCITEGIC>MOL_PROPERTY
W
SciTegic.value.DoubleValue
-67.832

@<SCITEGIC>MOL_PROPERTY
W(PB)
SciTegic.value.DoubleValue
-69.535

@<SCITEGIC>MOL_PROPERTY
W(SA)
SciTegic.value.DoubleValue
1.703

@<SCITEGIC>MOL_PROPERTY
Valence
SciTegic.value.DoubleValue
6.123

@<SCITEGIC>MOL_PROPERTY
Coulomb
SciTegic.value.DoubleValue
3.449

@<SCITEGIC>MOL_PROPERTY
VdW
SciTegic.value.DoubleValue
0.209

@<SCITEGIC>MOL_PROPERTY
VdW6
SciTegic.value.DoubleValue
-3.762

@<SCITEGIC>MOL_PROPERTY
VdW12
SciTegic.value.DoubleValue
3.972

@<SCITEGIC>MOL_PROPERTY
Bond
SciTegic.value.DoubleValue
0.078

@<SCITEGIC>MOL_PROPERTY
Angle
SciTegic.value.DoubleValue
2.428

@<SCITEGIC>MOL_PROPERTY
Pdih
SciTegic.value.DoubleValue
3.616

@<SCITEGIC>MOL_PROPERTY
Idih
SciTegic.value.DoubleValue
0.002

@<SCITEGIC>MOL_PROPERTY
Tether
SciTegic.value.DoubleValue
0.000

@<TRIPOS>MOLECULE
guest-6_confgen4.mol2 : confsearch ligand conformer 552
          13          12           1
SMALL
USER_CHARGES
 
@<TRIPOS>ATOM
       1    C1      21.427272   18.466534   23.111402 C.2        1 MOL1         0.6021
       2    O1      21.354160   19.107874   24.140597 O.co2      1 MOL1        -0.6904
       3    O2      21.738630   17.292738   23.074556 O.co2      1 MOL1        -0.6904
       4    C2      21.148637   19.179645   21.790584 C.3        1 MOL1        -0.2102
       5    H1      21.964081   18.925027   21.103119 H          1 MOL1         0.0687
       6    H2      21.201813   20.262467   21.957779 H          1 MOL1         0.0687
       7    C3      19.791378   18.805677   21.141483 C.3        1 MOL1        -0.1974
       8    H3      19.741668   19.241989   20.134491 H          1 MOL1         0.0689
       9    H4      19.731551   17.715394   21.016480 H          1 MOL1         0.0689
      10    C4      18.585846   19.302508   21.965969 C.3        1 MOL1        -0.2987
      11    H5      18.614177   20.393665   22.084145 H          1 MOL1         0.0700
      12    H6      17.642790   19.039038   21.469658 H          1 MOL1         0.0700
      13    H7      18.579009   18.850618   22.966756 H          1 MOL1         0.0700
@<TRIPOS>BOND
    1     1     2    1
    2     1     3    2
    3     1     4    1
    4     4     5    1
    5     4     6    1
    6     4     7    1
    7     7     8    1
    8     7     9    1
    9     7    10    1
   10    10    11    1
   11    10    12    1
   12    10    13    1
@<TRIPOS>SUBSTRUCTURE
       1 MOL1            1 RESIDUE      1      MOL     
@<SCITEGIC>MOL_PROPERTY
VConf Rank
SciTegic.value.IntegerValue
552

@<SCITEGIC>MOL_PROPERTY
Conf_Id
SciTegic.value.IntegerValue
36

@<SCITEGIC>MOL_PROPERTY
Delta U+W
SciTegic.value.DoubleValue
0.272

@<SCITEGIC>MOL_PROPERTY
U+W
SciTegic.value.DoubleValue
-58.060

@<SCITEGIC>MOL_PROPERTY
Grad RMS
SciTegic.value.DoubleValue
0.000000

@<SCITEGIC>MOL_PROPERTY
U
SciTegic.value.DoubleValue
9.781

@<SCITEGIC>MOL_PROPERTY
W
SciTegic.value.DoubleValue
-67.841

@<SCITEGIC>MOL_PROPERTY
W(PB)
SciTegic.value.DoubleValue
-69.537

@<SCITEGIC>MOL_PROPERTY
W(SA)
SciTegic.value.DoubleValue
1.696

@<SCITEGIC>MOL_PROPERTY
Valence
SciTegic.value.DoubleValue
6.123

@<SCITEGIC>MOL_PROPERTY
Coulomb
SciTegic.value.DoubleValue
3.449

@<SCITEGIC>MOL_PROPERTY
VdW
SciTegic.value.DoubleValue
0.209

@<SCITEGIC>MOL_PROPERTY
VdW6
SciTegic.value.DoubleValue
-3.762

@<SCITEGIC>MOL_PROPERTY
VdW12
SciTegic.value.DoubleValue
3.972

@<SCITEGIC>MOL_PROPERTY
Bond
SciTegic.value.DoubleValue
0.078

@<SCITEGIC>MOL_PROPERTY
Angle
SciTegic.value.DoubleValue
2.428

@<SCITEGIC>MOL_PROPERTY
Pdih
SciTegic.value.DoubleValue
3.616

@<SCITEGIC>MOL_PROPERTY
Idih
SciTegic.value.DoubleValue
0.002

@<SCITEGIC>MOL_PROPERTY
Tether
SciTegic.value.DoubleValue
0.000

@<TRIPOS>MOLECULE
guest-6_confgen4.mol2 : confsearch ligand conformer 553
          13          12           1
SMALL
USER_CHARGES
 
@<TRIPOS>ATOM
       1    C1      20.657100   17.033039   21.298135 C.2        1 MOL1         0.6021
       2    O1      19.938657   16.375673   22.025486 O.co2      1 MOL1        -0.6904
       3    O2      21.463975   16.534706   20.539575 O.co2      1 MOL1        -0.6904
       4    C2      20.564860   18.560080   21.315994 C.3        1 MOL1        -0.2102
       5    H1      20.335999   18.886539   20.294532 H          1 MOL1         0.0687
       6    H2      21.561961   18.945799   21.559609 H          1 MOL1         0.0687
       7    C3      19.521303   19.151264   22.299583 C.3        1 MOL1        -0.1974
       8    H3      18.523267   18.761225   22.055557 H          1 MOL1         0.0689
       9    H4      19.750693   18.820494   23.322191 H          1 MOL1         0.0689
      10    C4      19.499656   20.692288   22.248460 C.3        1 MOL1        -0.2987
      11    H5      19.241769   21.048466   21.242401 H          1 MOL1         0.0700
      12    H6      18.756077   21.091871   22.950372 H          1 MOL1         0.0700
      13    H7      20.479076   21.108200   22.519157 H          1 MOL1         0.0700
@<TRIPOS>BOND
    1     1     2    1
    2     1     3    2
    3     1     4    1
    4     4     5    1
    5     4     6    1
    6     4     7    1
    7     7     8    1
    8     7     9    1
    9     7    10    1
   10    10    11    1
   11    10    12    1
   12    10    13    1
@<TRIPOS>SUBSTRUCTURE
       1 MOL1            1 RESIDUE      1      MOL     
@<SCITEGIC>MOL_PROPERTY
VConf Rank
SciTegic.value.IntegerValue
553

@<SCITEGIC>MOL_PROPERTY
Conf_Id
SciTegic.value.IntegerValue
0

@<SCITEGIC>MOL_PROPERTY
Delta U+W
SciTegic.value.DoubleValue
0.000

@<SCITEGIC>MOL_PROPERTY
U+W
SciTegic.value.DoubleValue
-58.332

@<SCITEGIC>MOL_PROPERTY
Grad RMS
SciTegic.value.DoubleValue
0.000000

@<SCITEGIC>MOL_PROPERTY
U
SciTegic.value.DoubleValue
8.390

@<SCITEGIC>MOL_PROPERTY
W
SciTegic.value.DoubleValue
-66.722

@<SCITEGIC>MOL_PROPERTY
W(PB)
SciTegic.value.DoubleValue
-68.455

@<SCITEGIC>MOL_PROPERTY
W(SA)
SciTegic.value.DoubleValue
1.733

@<SCITEGIC>MOL_PROPERTY
Valence
SciTegic.value.DoubleValue
6.333

@<SCITEGIC>MOL_PROPERTY
Coulomb
SciTegic.value.DoubleValue
1.215

@<SCITEGIC>MOL_PROPERTY
VdW
SciTegic.value.DoubleValue
0.842

@<SCITEGIC>MOL_PROPERTY
VdW6
SciTegic.value.DoubleValue
-3.344

@<SCITEGIC>MOL_PROPERTY
VdW12
SciTegic.value.DoubleValue
4.186

@<SCITEGIC>MOL_PROPERTY
Bond
SciTegic.value.DoubleValue
0.091

@<SCITEGIC>MOL_PROPERTY
Angle
SciTegic.value.DoubleValue
2.713

@<SCITEGIC>MOL_PROPERTY
Pdih
SciTegic.value.DoubleValue
3.529

@<SCITEGIC>MOL_PROPERTY
Idih
SciTegic.value.DoubleValue
0.000

@<SCITEGIC>MOL_PROPERTY
Tether
SciTegic.value.DoubleValue
0.000

@<TRIPOS>MOLECULE
guest-6_confgen4.mol2 : confsearch ligand conformer 554
          13          12           1
SMALL
USER_CHARGES
 
@<TRIPOS>ATOM
       1    C1      20.760818   19.640980   23.703762 C.2        1 MOL1         0.6021
       2    O1      20.095899   20.449052   24.320417 O.co2      1 MOL1        -0.6904
       3    O2      21.957014   19.498200   23.858969 O.co2      1 MOL1        -0.6904
       4    C2      20.059373   18.771972   22.665350 C.3        1 MOL1        -0.2102
       5    H1      19.035294   18.586052   23.011348 H          1 MOL1         0.0687
       6    H2      20.570072   17.801913   22.630827 H          1 MOL1         0.0687
       7    C3      20.037519   19.412825   21.256564 C.3        1 MOL1        -0.1974
       8    H3      19.532666   20.387800   21.305250 H          1 MOL1         0.0689
       9    H4      21.067721   19.603391   20.924613 H          1 MOL1         0.0689
      10    C4      19.322220   18.510698   20.230990 C.3        1 MOL1        -0.2987
      11    H5      19.316888   18.981480   19.239225 H          1 MOL1         0.0700
      12    H6      19.827011   17.539654   20.142583 H          1 MOL1         0.0700
      13    H7      18.280181   18.330120   20.526125 H          1 MOL1         0.0700
@<TRIPOS>BOND
    1     1     2    1
    2     1     3    2
    3     1     4    1
    4     4     5    1
    5     4     6    1
    6     4     7    1
    7     7     8    1
    8     7     9    1
    9     7    10    1
   10    10    11    1
   11    10    12    1
   12    10    13    1
@<TRIPOS>SUBSTRUCTURE
       1 MOL1            1 RESIDUE      1      MOL     
@<SCITEGIC>MOL_PROPERTY
VConf Rank
SciTegic.value.IntegerValue
554

@<SCITEGIC>MOL_PROPERTY
Conf_Id
SciTegic.value.IntegerValue
1

@<SCITEGIC>MOL_PROPERTY
Delta U+W
SciTegic.value.DoubleValue
-1.339

@<SCITEGIC>MOL_PROPERTY
U+W
SciTegic.value.DoubleValue
-59.672

@<SCITEGIC>MOL_PROPERTY
Grad RMS
SciTegic.value.DoubleValue
0.000000

@<SCITEGIC>MOL_PROPERTY
U
SciTegic.value.DoubleValue
7.389

@<SCITEGIC>MOL_PROPERTY
W
SciTegic.value.DoubleValue
-67.061

@<SCITEGIC>MOL_PROPERTY
W(PB)
SciTegic.value.DoubleValue
-68.767

@<SCITEGIC>MOL_PROPERTY
W(SA)
SciTegic.value.DoubleValue
1.707

@<SCITEGIC>MOL_PROPERTY
Valence
SciTegic.value.DoubleValue
5.822

@<SCITEGIC>MOL_PROPERTY
Coulomb
SciTegic.value.DoubleValue
1.255

@<SCITEGIC>MOL_PROPERTY
VdW
SciTegic.value.DoubleValue
0.312

@<SCITEGIC>MOL_PROPERTY
VdW6
SciTegic.value.DoubleValue
-3.061

@<SCITEGIC>MOL_PROPERTY
VdW12
SciTegic.value.DoubleValue
3.372

@<SCITEGIC>MOL_PROPERTY
Bond
SciTegic.value.DoubleValue
0.059

@<SCITEGIC>MOL_PROPERTY
Angle
SciTegic.value.DoubleValue
2.241

@<SCITEGIC>MOL_PROPERTY
Pdih
SciTegic.value.DoubleValue
3.522

@<SCITEGIC>MOL_PROPERTY
Idih
SciTegic.value.DoubleValue
0.000

@<SCITEGIC>MOL_PROPERTY
Tether
SciTegic.value.DoubleValue
0.000

@<TRIPOS>MOLECULE
guest-6_confgen4.mol2 : confsearch ligand conformer 555
          13          12           1
SMALL
USER_CHARGES
 
@<TRIPOS>ATOM
       1    C1      20.170444   20.561510   21.179393 C.2        1 MOL1         0.6021
       2    O1      20.587032   21.489825   21.843308 O.co2      1 MOL1        -0.6904
       3    O2      20.433085   20.408566   20.003157 O.co2      1 MOL1        -0.6904
       4    C2      19.239381   19.555704   21.851855 C.3        1 MOL1        -0.2102
       5    H1      18.710582   18.991576   21.073769 H          1 MOL1         0.0687
       6    H2      18.480626   20.127645   22.399176 H          1 MOL1         0.0687
       7    C3      19.952948   18.582583   22.825095 C.3        1 MOL1        -0.1974
       8    H3      20.513071   19.157979   23.575497 H          1 MOL1         0.0689
       9    H4      19.197380   18.002113   23.371945 H          1 MOL1         0.0689
      10    C4      20.904549   17.611199   22.096538 C.3        1 MOL1        -0.2987
      11    H5      21.701273   18.156940   21.573828 H          1 MOL1         0.0700
      12    H6      21.377490   16.924554   22.810640 H          1 MOL1         0.0700
      13    H7      20.360324   17.009814   21.356574 H          1 MOL1         0.0700
@<TRIPOS>BOND
    1     1     2    1
    2     1     3    2
    3     1     4    1
    4     4     5    1
    5     4     6    1
    6     4     7    1
    7     7     8    1
    8     7     9    1
    9     7    10    1
   10    10    11    1
   11    10    12    1
   12    10    13    1
@<TRIPOS>SUBSTRUCTURE
       1 MOL1            1 RESIDUE      1      MOL     
@<SCITEGIC>MOL_PROPERTY
VConf Rank
SciTegic.value.IntegerValue
555

@<SCITEGIC>MOL_PROPERTY
Conf_Id
SciTegic.value.IntegerValue
4

@<SCITEGIC>MOL_PROPERTY
Delta U+W
SciTegic.value.DoubleValue
0.281

@<SCITEGIC>MOL_PROPERTY
U+W
SciTegic.value.DoubleValue
-58.051

@<SCITEGIC>MOL_PROPERTY
Grad RMS
SciTegic.value.DoubleValue
0.000000

@<SCITEGIC>MOL_PROPERTY
U
SciTegic.value.DoubleValue
9.781

@<SCITEGIC>MOL_PROPERTY
W
SciTegic.value.DoubleValue
-67.832

@<SCITEGIC>MOL_PROPERTY
W(PB)
SciTegic.value.DoubleValue
-69.535

@<SCITEGIC>MOL_PROPERTY
W(SA)
SciTegic.value.DoubleValue
1.703

@<SCITEGIC>MOL_PROPERTY
Valence
SciTegic.value.DoubleValue
6.123

@<SCITEGIC>MOL_PROPERTY
Coulomb
SciTegic.value.DoubleValue
3.449

@<SCITEGIC>MOL_PROPERTY
VdW
SciTegic.value.DoubleValue
0.209

@<SCITEGIC>MOL_PROPERTY
VdW6
SciTegic.value.DoubleValue
-3.762

@<SCITEGIC>MOL_PROPERTY
VdW12
SciTegic.value.DoubleValue
3.972

@<SCITEGIC>MOL_PROPERTY
Bond
SciTegic.value.DoubleValue
0.078

@<SCITEGIC>MOL_PROPERTY
Angle
SciTegic.value.DoubleValue
2.428

@<SCITEGIC>MOL_PROPERTY
Pdih
SciTegic.value.DoubleValue
3.616

@<SCITEGIC>MOL_PROPERTY
Idih
SciTegic.value.DoubleValue
0.002

@<SCITEGIC>MOL_PROPERTY
Tether
SciTegic.value.DoubleValue
0.000

@<TRIPOS>MOLECULE
guest-6_confgen4.mol2 : confsearch ligand conformer 556
          13          12           1
SMALL
USER_CHARGES
 
@<TRIPOS>ATOM
       1    C1      19.274199   18.250193   20.587680 C.2        1 MOL1         0.6021
       2    O1      18.143493   18.689642   20.522147 O.co2      1 MOL1        -0.6904
       3    O2      19.962771   18.025282   19.612292 O.co2      1 MOL1        -0.6904
       4    C2      19.849372   17.929215   21.964950 C.3        1 MOL1        -0.2102
       5    H1      20.284798   16.924266   21.911383 H          1 MOL1         0.0687
       6    H2      19.025146   17.879177   22.687055 H          1 MOL1         0.0687
       7    C3      20.926148   18.932305   22.452496 C.3        1 MOL1        -0.1974
       8    H3      21.388567   18.545723   23.370970 H          1 MOL1         0.0689
       9    H4      21.726496   19.005835   21.702858 H          1 MOL1         0.0689
      10    C4      20.344209   20.333334   22.732483 C.3        1 MOL1        -0.2987
      11    H5      19.556827   20.285783   23.496132 H          1 MOL1         0.0700
      12    H6      21.127370   21.012344   23.094006 H          1 MOL1         0.0700
      13    H7      19.911616   20.770075   21.822567 H          1 MOL1         0.0700
@<TRIPOS>BOND
    1     1     2    1
    2     1     3    2
    3     1     4    1
    4     4     5    1
    5     4     6    1
    6     4     7    1
    7     7     8    1
    8     7     9    1
    9     7    10    1
   10    10    11    1
   11    10    12    1
   12    10    13    1
@<TRIPOS>SUBSTRUCTURE
       1 MOL1            1 RESIDUE      1      MOL     
@<SCITEGIC>MOL_PROPERTY
VConf Rank
SciTegic.value.IntegerValue
556

@<SCITEGIC>MOL_PROPERTY
Conf_Id
SciTegic.value.IntegerValue
36

@<SCITEGIC>MOL_PROPERTY
Delta U+W
SciTegic.value.DoubleValue
0.272

@<SCITEGIC>MOL_PROPERTY
U+W
SciTegic.value.DoubleValue
-58.060

@<SCITEGIC>MOL_PROPERTY
Grad RMS
SciTegic.value.DoubleValue
0.000000

@<SCITEGIC>MOL_PROPERTY
U
SciTegic.value.DoubleValue
9.781

@<SCITEGIC>MOL_PROPERTY
W
SciTegic.value.DoubleValue
-67.841

@<SCITEGIC>MOL_PROPERTY
W(PB)
SciTegic.value.DoubleValue
-69.537

@<SCITEGIC>MOL_PROPERTY
W(SA)
SciTegic.value.DoubleValue
1.696

@<SCITEGIC>MOL_PROPERTY
Valence
SciTegic.value.DoubleValue
6.123

@<SCITEGIC>MOL_PROPERTY
Coulomb
SciTegic.value.DoubleValue
3.449

@<SCITEGIC>MOL_PROPERTY
VdW
SciTegic.value.DoubleValue
0.209

@<SCITEGIC>MOL_PROPERTY
VdW6
SciTegic.value.DoubleValue
-3.762

@<SCITEGIC>MOL_PROPERTY
VdW12
SciTegic.value.DoubleValue
3.972

@<SCITEGIC>MOL_PROPERTY
Bond
SciTegic.value.DoubleValue
0.078

@<SCITEGIC>MOL_PROPERTY
Angle
SciTegic.value.DoubleValue
2.428

@<SCITEGIC>MOL_PROPERTY
Pdih
SciTegic.value.DoubleValue
3.616

@<SCITEGIC>MOL_PROPERTY
Idih
SciTegic.value.DoubleValue
0.002

@<SCITEGIC>MOL_PROPERTY
Tether
SciTegic.value.DoubleValue
0.000

@<TRIPOS>MOLECULE
guest-6_confgen4.mol2 : confsearch ligand conformer 557
          13          12           1
SMALL
USER_CHARGES
 
@<TRIPOS>ATOM
       1    C1      20.690276   20.944821   22.388690 C.2        1 MOL1         0.6021
       2    O1      21.820764   20.922151   21.942806 O.co2      1 MOL1        -0.6904
       3    O2      20.229310   21.903832   22.974014 O.co2      1 MOL1        -0.6904
       4    C2      19.781983   19.725109   22.221390 C.3        1 MOL1        -0.2102
       5    H1      18.879522   20.058264   21.695168 H          1 MOL1         0.0687
       6    H2      19.469815   19.409001   23.223869 H          1 MOL1         0.0687
       7    C3      20.413042   18.525045   21.468019 C.3        1 MOL1        -0.1974
       8    H3      20.727817   18.844664   20.464766 H          1 MOL1         0.0689
       9    H4      21.318887   18.194645   21.995308 H          1 MOL1         0.0689
      10    C4      19.426839   17.345707   21.348019 C.3        1 MOL1        -0.2987
      11    H5      18.524832   17.642332   20.796729 H          1 MOL1         0.0700
      12    H6      19.890690   16.506937   20.812702 H          1 MOL1         0.0700
      13    H7      19.120614   16.987136   22.339572 H          1 MOL1         0.0700
@<TRIPOS>BOND
    1     1     2    1
    2     1     3    2
    3     1     4    1
    4     4     5    1
    5     4     6    1
    6     4     7    1
    7     7     8    1
    8     7     9    1
    9     7    10    1
   10    10    11    1
   11    10    12    1
   12    10    13    1
@<TRIPOS>SUBSTRUCTURE
       1 MOL1            1 RESIDUE      1      MOL     
@<SCITEGIC>MOL_PROPERTY
VConf Rank
SciTegic.value.IntegerValue
557

@<SCITEGIC>MOL_PROPERTY
Conf_Id
SciTegic.value.IntegerValue
0

@<SCITEGIC>MOL_PROPERTY
Delta U+W
SciTegic.value.DoubleValue
0.000

@<SCITEGIC>MOL_PROPERTY
U+W
SciTegic.value.DoubleValue
-58.332

@<SCITEGIC>MOL_PROPERTY
Grad RMS
SciTegic.value.DoubleValue
0.000000

@<SCITEGIC>MOL_PROPERTY
U
SciTegic.value.DoubleValue
8.390

@<SCITEGIC>MOL_PROPERTY
W
SciTegic.value.DoubleValue
-66.722

@<SCITEGIC>MOL_PROPERTY
W(PB)
SciTegic.value.DoubleValue
-68.455

@<SCITEGIC>MOL_PROPERTY
W(SA)
SciTegic.value.DoubleValue
1.733

@<SCITEGIC>MOL_PROPERTY
Valence
SciTegic.value.DoubleValue
6.333

@<SCITEGIC>MOL_PROPERTY
Coulomb
SciTegic.value.DoubleValue
1.215

@<SCITEGIC>MOL_PROPERTY
VdW
SciTegic.value.DoubleValue
0.842

@<SCITEGIC>MOL_PROPERTY
VdW6
SciTegic.value.DoubleValue
-3.344

@<SCITEGIC>MOL_PROPERTY
VdW12
SciTegic.value.DoubleValue
4.186

@<SCITEGIC>MOL_PROPERTY
Bond
SciTegic.value.DoubleValue
0.091

@<SCITEGIC>MOL_PROPERTY
Angle
SciTegic.value.DoubleValue
2.713

@<SCITEGIC>MOL_PROPERTY
Pdih
SciTegic.value.DoubleValue
3.529

@<SCITEGIC>MOL_PROPERTY
Idih
SciTegic.value.DoubleValue
0.000

@<SCITEGIC>MOL_PROPERTY
Tether
SciTegic.value.DoubleValue
0.000

@<TRIPOS>MOLECULE
guest-6_confgen4.mol2 : confsearch ligand conformer 558
          13          12           1
SMALL
USER_CHARGES
 
@<TRIPOS>ATOM
       1    C1      19.720450   18.688087   19.766971 C.2        1 MOL1         0.6021
       2    O1      19.572806   17.528288   19.437685 O.co2      1 MOL1        -0.6904
       3    O2      20.138685   19.549687   19.019921 O.co2      1 MOL1        -0.6904
       4    C2      19.380213   19.079702   21.200977 C.3        1 MOL1        -0.2102
       5    H1      18.550297   18.447637   21.539729 H          1 MOL1         0.0687
       6    H2      19.016935   20.114601   21.195208 H          1 MOL1         0.0687
       7    C3      20.582501   18.942628   22.166151 C.3        1 MOL1        -0.1974
       8    H3      20.943990   17.904818   22.156196 H          1 MOL1         0.0689
       9    H4      21.410652   19.572185   21.811684 H          1 MOL1         0.0689
      10    C4      20.206309   19.345435   23.606122 C.3        1 MOL1        -0.2987
      11    H5      21.070663   19.241742   24.275002 H          1 MOL1         0.0700
      12    H6      19.869691   20.389755   23.646611 H          1 MOL1         0.0700
      13    H7      19.399483   18.709573   23.993767 H          1 MOL1         0.0700
@<TRIPOS>BOND
    1     1     2    1
    2     1     3    2
    3     1     4    1
    4     4     5    1
    5     4     6    1
    6     4     7    1
    7     7     8    1
    8     7     9    1
    9     7    10    1
   10    10    11    1
   11    10    12    1
   12    10    13    1
@<TRIPOS>SUBSTRUCTURE
       1 MOL1            1 RESIDUE      1      MOL     
@<SCITEGIC>MOL_PROPERTY
VConf Rank
SciTegic.value.IntegerValue
558

@<SCITEGIC>MOL_PROPERTY
Conf_Id
SciTegic.value.IntegerValue
1

@<SCITEGIC>MOL_PROPERTY
Delta U+W
SciTegic.value.DoubleValue
-1.339

@<SCITEGIC>MOL_PROPERTY
U+W
SciTegic.value.DoubleValue
-59.672

@<SCITEGIC>MOL_PROPERTY
Grad RMS
SciTegic.value.DoubleValue
0.000000

@<SCITEGIC>MOL_PROPERTY
U
SciTegic.value.DoubleValue
7.389

@<SCITEGIC>MOL_PROPERTY
W
SciTegic.value.DoubleValue
-67.061

@<SCITEGIC>MOL_PROPERTY
W(PB)
SciTegic.value.DoubleValue
-68.767

@<SCITEGIC>MOL_PROPERTY
W(SA)
SciTegic.value.DoubleValue
1.707

@<SCITEGIC>MOL_PROPERTY
Valence
SciTegic.value.DoubleValue
5.822

@<SCITEGIC>MOL_PROPERTY
Coulomb
SciTegic.value.DoubleValue
1.255

@<SCITEGIC>MOL_PROPERTY
VdW
SciTegic.value.DoubleValue
0.312

@<SCITEGIC>MOL_PROPERTY
VdW6
SciTegic.value.DoubleValue
-3.061

@<SCITEGIC>MOL_PROPERTY
VdW12
SciTegic.value.DoubleValue
3.372

@<SCITEGIC>MOL_PROPERTY
Bond
SciTegic.value.DoubleValue
0.059

@<SCITEGIC>MOL_PROPERTY
Angle
SciTegic.value.DoubleValue
2.241

@<SCITEGIC>MOL_PROPERTY
Pdih
SciTegic.value.DoubleValue
3.522

@<SCITEGIC>MOL_PROPERTY
Idih
SciTegic.value.DoubleValue
0.000

@<SCITEGIC>MOL_PROPERTY
Tether
SciTegic.value.DoubleValue
0.000

@<TRIPOS>MOLECULE
guest-6_confgen4.mol2 : confsearch ligand conformer 559
          13          12           1
SMALL
USER_CHARGES
 
@<TRIPOS>ATOM
       1    C1      19.228695   20.488716   21.691314 C.2        1 MOL1         0.6021
       2    O1      19.705690   21.495528   22.175983 O.co2      1 MOL1        -0.6904
       3    O2      18.727211   20.450680   20.585433 O.co2      1 MOL1        -0.6904
       4    C2      19.228642   19.214642   22.532422 C.3        1 MOL1        -0.2102
       5    H1      18.502070   18.512088   22.106044 H          1 MOL1         0.0687
       6    H2      18.862303   19.481910   23.530795 H          1 MOL1         0.0687
       7    C3      20.617138   18.536523   22.657210 C.3        1 MOL1        -0.1974
       8    H3      21.346485   19.260829   23.046254 H          1 MOL1         0.0689
       9    H4      20.555827   17.723756   23.393772 H          1 MOL1         0.0689
      10    C4      21.117068   17.963482   21.314964 C.3        1 MOL1        -0.2987
      11    H5      21.232852   18.757608   20.565439 H          1 MOL1         0.0700
      12    H6      22.091437   17.474082   21.442198 H          1 MOL1         0.0700
      13    H7      20.412765   17.220165   20.918949 H          1 MOL1         0.0700
@<TRIPOS>BOND
    1     1     2    1
    2     1     3    2
    3     1     4    1
    4     4     5    1
    5     4     6    1
    6     4     7    1
    7     7     8    1
    8     7     9    1
    9     7    10    1
   10    10    11    1
   11    10    12    1
   12    10    13    1
@<TRIPOS>SUBSTRUCTURE
       1 MOL1            1 RESIDUE      1      MOL     
@<SCITEGIC>MOL_PROPERTY
VConf Rank
SciTegic.value.IntegerValue
559

@<SCITEGIC>MOL_PROPERTY
Conf_Id
SciTegic.value.IntegerValue
4

@<SCITEGIC>MOL_PROPERTY
Delta U+W
SciTegic.value.DoubleValue
0.281

@<SCITEGIC>MOL_PROPERTY
U+W
SciTegic.value.DoubleValue
-58.051

@<SCITEGIC>MOL_PROPERTY
Grad RMS
SciTegic.value.DoubleValue
0.000000

@<SCITEGIC>MOL_PROPERTY
U
SciTegic.value.DoubleValue
9.781

@<SCITEGIC>MOL_PROPERTY
W
SciTegic.value.DoubleValue
-67.832

@<SCITEGIC>MOL_PROPERTY
W(PB)
SciTegic.value.DoubleValue
-69.535

@<SCITEGIC>MOL_PROPERTY
W(SA)
SciTegic.value.DoubleValue
1.703

@<SCITEGIC>MOL_PROPERTY
Valence
SciTegic.value.DoubleValue
6.123

@<SCITEGIC>MOL_PROPERTY
Coulomb
SciTegic.value.DoubleValue
3.449

@<SCITEGIC>MOL_PROPERTY
VdW
SciTegic.value.DoubleValue
0.209

@<SCITEGIC>MOL_PROPERTY
VdW6
SciTegic.value.DoubleValue
-3.762

@<SCITEGIC>MOL_PROPERTY
VdW12
SciTegic.value.DoubleValue
3.972

@<SCITEGIC>MOL_PROPERTY
Bond
SciTegic.value.DoubleValue
0.078

@<SCITEGIC>MOL_PROPERTY
Angle
SciTegic.value.DoubleValue
2.428

@<SCITEGIC>MOL_PROPERTY
Pdih
SciTegic.value.DoubleValue
3.616

@<SCITEGIC>MOL_PROPERTY
Idih
SciTegic.value.DoubleValue
0.002

@<SCITEGIC>MOL_PROPERTY
Tether
SciTegic.value.DoubleValue
0.000

@<TRIPOS>MOLECULE
guest-6_confgen4.mol2 : confsearch ligand conformer 560
          13          12           1
SMALL
USER_CHARGES
 
@<TRIPOS>ATOM
       1    C1      21.767075   18.657718   21.370746 C.2        1 MOL1         0.6021
       2    O1      21.811284   18.928188   20.187194 O.co2      1 MOL1        -0.6904
       3    O2      22.679856   18.876464   22.142159 O.co2      1 MOL1        -0.6904
       4    C2      20.514004   17.974501   21.912736 C.3        1 MOL1        -0.2102
       5    H1      20.842532   17.119654   22.515806 H          1 MOL1         0.0687
       6    H2      19.943495   17.566499   21.069325 H          1 MOL1         0.0687
       7    C3      19.610713   18.895321   22.772673 C.3        1 MOL1        -0.1974
       8    H3      18.822374   18.290406   23.241151 H          1 MOL1         0.0689
       9    H4      20.202098   19.331107   23.590154 H          1 MOL1         0.0689
      10    C4      18.957091   20.021143   21.944886 C.3        1 MOL1        -0.2987
      11    H5      18.342667   19.606620   21.134920 H          1 MOL1         0.0700
      12    H6      18.310035   20.641504   22.578580 H          1 MOL1         0.0700
      13    H7      19.717785   20.674050   21.496687 H          1 MOL1         0.0700
@<TRIPOS>BOND
    1     1     2    1
    2     1     3    2
    3     1     4    1
    4     4     5    1
    5     4     6    1
    6     4     7    1
    7     7     8    1
    8     7     9    1
    9     7    10    1
   10    10    11    1
   11    10    12    1
   12    10    13    1
@<TRIPOS>SUBSTRUCTURE
       1 MOL1            1 RESIDUE      1      MOL     
@<SCITEGIC>MOL_PROPERTY
VConf Rank
SciTegic.value.IntegerValue
560

@<SCITEGIC>MOL_PROPERTY
Conf_Id
SciTegic.value.IntegerValue
36

@<SCITEGIC>MOL_PROPERTY
Delta U+W
SciTegic.value.DoubleValue
0.272

@<SCITEGIC>MOL_PROPERTY
U+W
SciTegic.value.DoubleValue
-58.060

@<SCITEGIC>MOL_PROPERTY
Grad RMS
SciTegic.value.DoubleValue
0.000000

@<SCITEGIC>MOL_PROPERTY
U
SciTegic.value.DoubleValue
9.781

@<SCITEGIC>MOL_PROPERTY
W
SciTegic.value.DoubleValue
-67.841

@<SCITEGIC>MOL_PROPERTY
W(PB)
SciTegic.value.DoubleValue
-69.537

@<SCITEGIC>MOL_PROPERTY
W(SA)
SciTegic.value.DoubleValue
1.696

@<SCITEGIC>MOL_PROPERTY
Valence
SciTegic.value.DoubleValue
6.123

@<SCITEGIC>MOL_PROPERTY
Coulomb
SciTegic.value.DoubleValue
3.449

@<SCITEGIC>MOL_PROPERTY
VdW
SciTegic.value.DoubleValue
0.209

@<SCITEGIC>MOL_PROPERTY
VdW6
SciTegic.value.DoubleValue
-3.762

@<SCITEGIC>MOL_PROPERTY
VdW12
SciTegic.value.DoubleValue
3.972

@<SCITEGIC>MOL_PROPERTY
Bond
SciTegic.value.DoubleValue
0.078

@<SCITEGIC>MOL_PROPERTY
Angle
SciTegic.value.DoubleValue
2.428

@<SCITEGIC>MOL_PROPERTY
Pdih
SciTegic.value.DoubleValue
3.616

@<SCITEGIC>MOL_PROPERTY
Idih
SciTegic.value.DoubleValue
0.002

@<SCITEGIC>MOL_PROPERTY
Tether
SciTegic.value.DoubleValue
0.000

@<TRIPOS>MOLECULE
guest-6_confgen4.mol2 : confsearch ligand conformer 561
          13          12           1
SMALL
USER_CHARGES
 
@<TRIPOS>ATOM
       1    C1      19.401090   18.081896   23.642116 C.2        1 MOL1         0.6021
       2    O1      18.973022   17.027447   23.215237 O.co2      1 MOL1        -0.6904
       3    O2      19.396551   18.368310   24.822261 O.co2      1 MOL1        -0.6904
       4    C2      19.978158   19.116419   22.673902 C.3        1 MOL1        -0.2102
       5    H1      21.007647   19.322685   22.990040 H          1 MOL1         0.0687
       6    H2      19.409759   20.044358   22.808774 H          1 MOL1         0.0687
       7    C3      19.963097   18.707273   21.177798 C.3        1 MOL1        -0.1974
       8    H3      20.530762   17.775635   21.045271 H          1 MOL1         0.0689
       9    H4      18.930908   18.498120   20.863796 H          1 MOL1         0.0689
      10    C4      20.562287   19.808648   20.280145 C.3        1 MOL1        -0.2987
      11    H5      21.605383   20.014585   20.554119 H          1 MOL1         0.0700
      12    H6      20.543023   19.501381   19.226355 H          1 MOL1         0.0700
      13    H7      19.992704   20.742886   20.371237 H          1 MOL1         0.0700
@<TRIPOS>BOND
    1     1     2    1
    2     1     3    2
    3     1     4    1
    4     4     5    1
    5     4     6    1
    6     4     7    1
    7     7     8    1
    8     7     9    1
    9     7    10    1
   10    10    11    1
   11    10    12    1
   12    10    13    1
@<TRIPOS>SUBSTRUCTURE
       1 MOL1            1 RESIDUE      1      MOL     
@<SCITEGIC>MOL_PROPERTY
VConf Rank
SciTegic.value.IntegerValue
561

@<SCITEGIC>MOL_PROPERTY
Conf_Id
SciTegic.value.IntegerValue
0

@<SCITEGIC>MOL_PROPERTY
Delta U+W
SciTegic.value.DoubleValue
0.000

@<SCITEGIC>MOL_PROPERTY
U+W
SciTegic.value.DoubleValue
-58.332

@<SCITEGIC>MOL_PROPERTY
Grad RMS
SciTegic.value.DoubleValue
0.000000

@<SCITEGIC>MOL_PROPERTY
U
SciTegic.value.DoubleValue
8.390

@<SCITEGIC>MOL_PROPERTY
W
SciTegic.value.DoubleValue
-66.722

@<SCITEGIC>MOL_PROPERTY
W(PB)
SciTegic.value.DoubleValue
-68.455

@<SCITEGIC>MOL_PROPERTY
W(SA)
SciTegic.value.DoubleValue
1.733

@<SCITEGIC>MOL_PROPERTY
Valence
SciTegic.value.DoubleValue
6.333

@<SCITEGIC>MOL_PROPERTY
Coulomb
SciTegic.value.DoubleValue
1.215

@<SCITEGIC>MOL_PROPERTY
VdW
SciTegic.value.DoubleValue
0.842

@<SCITEGIC>MOL_PROPERTY
VdW6
SciTegic.value.DoubleValue
-3.344

@<SCITEGIC>MOL_PROPERTY
VdW12
SciTegic.value.DoubleValue
4.186

@<SCITEGIC>MOL_PROPERTY
Bond
SciTegic.value.DoubleValue
0.091

@<SCITEGIC>MOL_PROPERTY
Angle
SciTegic.value.DoubleValue
2.713

@<SCITEGIC>MOL_PROPERTY
Pdih
SciTegic.value.DoubleValue
3.529

@<SCITEGIC>MOL_PROPERTY
Idih
SciTegic.value.DoubleValue
0.000

@<SCITEGIC>MOL_PROPERTY
Tether
SciTegic.value.DoubleValue
0.000

@<TRIPOS>MOLECULE
guest-6_confgen4.mol2 : confsearch ligand conformer 562
          13          12           1
SMALL
USER_CHARGES
 
@<TRIPOS>ATOM
       1    C1      17.893182   18.786008   21.872826 C.2        1 MOL1         0.6021
       2    O1      17.492180   17.725167   22.307769 O.co2      1 MOL1        -0.6904
       3    O2      17.256420   19.480859   21.106616 O.co2      1 MOL1        -0.6904
       4    C2      19.278505   19.262080   22.296776 C.3        1 MOL1        -0.2102
       5    H1      19.462180   18.910529   23.319368 H          1 MOL1         0.0687
       6    H2      19.267748   20.358380   22.328845 H          1 MOL1         0.0687
       7    C3      20.402012   18.767813   21.353758 C.3        1 MOL1        -0.1974
       8    H3      20.396834   17.669280   21.321828 H          1 MOL1         0.0689
       9    H4      20.202434   19.117507   20.331161 H          1 MOL1         0.0689
      10    C4      21.788481   19.265423   21.809147 C.3        1 MOL1        -0.2987
      11    H5      22.571248   18.905180   21.128881 H          1 MOL1         0.0700
      12    H6      21.827777   20.362640   21.820403 H          1 MOL1         0.0700
      13    H7      22.023674   18.903270   22.818644 H          1 MOL1         0.0700
@<TRIPOS>BOND
    1     1     2    1
    2     1     3    2
    3     1     4    1
    4     4     5    1
    5     4     6    1
    6     4     7    1
    7     7     8    1
    8     7     9    1
    9     7    10    1
   10    10    11    1
   11    10    12    1
   12    10    13    1
@<TRIPOS>SUBSTRUCTURE
       1 MOL1            1 RESIDUE      1      MOL     
@<SCITEGIC>MOL_PROPERTY
VConf Rank
SciTegic.value.IntegerValue
562

@<SCITEGIC>MOL_PROPERTY
Conf_Id
SciTegic.value.IntegerValue
1

@<SCITEGIC>MOL_PROPERTY
Delta U+W
SciTegic.value.DoubleValue
-1.339

@<SCITEGIC>MOL_PROPERTY
U+W
SciTegic.value.DoubleValue
-59.672

@<SCITEGIC>MOL_PROPERTY
Grad RMS
SciTegic.value.DoubleValue
0.000000

@<SCITEGIC>MOL_PROPERTY
U
SciTegic.value.DoubleValue
7.389

@<SCITEGIC>MOL_PROPERTY
W
SciTegic.value.DoubleValue
-67.061

@<SCITEGIC>MOL_PROPERTY
W(PB)
SciTegic.value.DoubleValue
-68.767

@<SCITEGIC>MOL_PROPERTY
W(SA)
SciTegic.value.DoubleValue
1.707

@<SCITEGIC>MOL_PROPERTY
Valence
SciTegic.value.DoubleValue
5.822

@<SCITEGIC>MOL_PROPERTY
Coulomb
SciTegic.value.DoubleValue
1.255

@<SCITEGIC>MOL_PROPERTY
VdW
SciTegic.value.DoubleValue
0.312

@<SCITEGIC>MOL_PROPERTY
VdW6
SciTegic.value.DoubleValue
-3.061

@<SCITEGIC>MOL_PROPERTY
VdW12
SciTegic.value.DoubleValue
3.372

@<SCITEGIC>MOL_PROPERTY
Bond
SciTegic.value.DoubleValue
0.059

@<SCITEGIC>MOL_PROPERTY
Angle
SciTegic.value.DoubleValue
2.241

@<SCITEGIC>MOL_PROPERTY
Pdih
SciTegic.value.DoubleValue
3.522

@<SCITEGIC>MOL_PROPERTY
Idih
SciTegic.value.DoubleValue
0.000

@<SCITEGIC>MOL_PROPERTY
Tether
SciTegic.value.DoubleValue
0.000

@<TRIPOS>MOLECULE
guest-6_confgen4.mol2 : confsearch ligand conformer 563
          13          12           1
SMALL
USER_CHARGES
 
@<TRIPOS>ATOM
       1    C1      21.856078   19.314896   22.304251 C.2        1 MOL1         0.6021
       2    O1      22.104794   19.922647   23.326443 O.co2      1 MOL1        -0.6904
       3    O2      22.535530   18.397631   21.888469 O.co2      1 MOL1        -0.6904
       4    C2      20.646075   19.752297   21.482485 C.3        1 MOL1        -0.2102
       5    H1      20.742387   19.342354   20.469589 H          1 MOL1         0.0687
       6    H2      20.692216   20.843776   21.387986 H          1 MOL1         0.0687
       7    C3      19.281706   19.345132   22.095719 C.3        1 MOL1        -0.1974
       8    H3      19.212764   19.725543   23.124532 H          1 MOL1         0.0689
       9    H4      18.473799   19.825326   21.526884 H          1 MOL1         0.0689
      10    C4      19.063726   17.817922   22.089217 C.3        1 MOL1        -0.2987
      11    H5      19.830269   17.307290   22.687125 H          1 MOL1         0.0700
      12    H6      18.082218   17.565451   22.511112 H          1 MOL1         0.0700
      13    H7      19.106622   17.419744   21.066962 H          1 MOL1         0.0700
@<TRIPOS>BOND
    1     1     2    1
    2     1     3    2
    3     1     4    1
    4     4     5    1
    5     4     6    1
    6     4     7    1
    7     7     8    1
    8     7     9    1
    9     7    10    1
   10    10    11    1
   11    10    12    1
   12    10    13    1
@<TRIPOS>SUBSTRUCTURE
       1 MOL1            1 RESIDUE      1      MOL     
@<SCITEGIC>MOL_PROPERTY
VConf Rank
SciTegic.value.IntegerValue
563

@<SCITEGIC>MOL_PROPERTY
Conf_Id
SciTegic.value.IntegerValue
4

@<SCITEGIC>MOL_PROPERTY
Delta U+W
SciTegic.value.DoubleValue
0.281

@<SCITEGIC>MOL_PROPERTY
U+W
SciTegic.value.DoubleValue
-58.051

@<SCITEGIC>MOL_PROPERTY
Grad RMS
SciTegic.value.DoubleValue
0.000000

@<SCITEGIC>MOL_PROPERTY
U
SciTegic.value.DoubleValue
9.781

@<SCITEGIC>MOL_PROPERTY
W
SciTegic.value.DoubleValue
-67.832

@<SCITEGIC>MOL_PROPERTY
W(PB)
SciTegic.value.DoubleValue
-69.535

@<SCITEGIC>MOL_PROPERTY
W(SA)
SciTegic.value.DoubleValue
1.703

@<SCITEGIC>MOL_PROPERTY
Valence
SciTegic.value.DoubleValue
6.123

@<SCITEGIC>MOL_PROPERTY
Coulomb
SciTegic.value.DoubleValue
3.449

@<SCITEGIC>MOL_PROPERTY
VdW
SciTegic.value.DoubleValue
0.209

@<SCITEGIC>MOL_PROPERTY
VdW6
SciTegic.value.DoubleValue
-3.762

@<SCITEGIC>MOL_PROPERTY
VdW12
SciTegic.value.DoubleValue
3.972

@<SCITEGIC>MOL_PROPERTY
Bond
SciTegic.value.DoubleValue
0.078

@<SCITEGIC>MOL_PROPERTY
Angle
SciTegic.value.DoubleValue
2.428

@<SCITEGIC>MOL_PROPERTY
Pdih
SciTegic.value.DoubleValue
3.616

@<SCITEGIC>MOL_PROPERTY
Idih
SciTegic.value.DoubleValue
0.002

@<SCITEGIC>MOL_PROPERTY
Tether
SciTegic.value.DoubleValue
0.000

@<TRIPOS>MOLECULE
guest-6_confgen4.mol2 : confsearch ligand conformer 564
          13          12           1
SMALL
USER_CHARGES
 
@<TRIPOS>ATOM
       1    C1      19.177832   20.493776   22.020483 C.2        1 MOL1         0.6021
       2    O1      18.271460   20.426814   21.214313 O.co2      1 MOL1        -0.6904
       3    O2      19.073838   21.039087   23.101186 O.co2      1 MOL1        -0.6904
       4    C2      20.529993   19.893385   21.643767 C.3        1 MOL1        -0.2102
       5    H1      21.296286   20.643133   21.874116 H          1 MOL1         0.0687
       6    H2      20.555283   19.737861   20.558199 H          1 MOL1         0.0687
       7    C3      20.864607   18.571034   22.380488 C.3        1 MOL1        -0.1974
       8    H3      21.905864   18.293544   22.166819 H          1 MOL1         0.0689
       9    H4      20.795966   18.727437   23.466189 H          1 MOL1         0.0689
      10    C4      19.937891   17.411015   21.961584 C.3        1 MOL1        -0.2987
      11    H5      20.007872   17.223018   20.882162 H          1 MOL1         0.0700
      12    H6      20.213781   16.486828   22.485854 H          1 MOL1         0.0700
      13    H7      18.890338   17.636242   22.201857 H          1 MOL1         0.0700
@<TRIPOS>BOND
    1     1     2    1
    2     1     3    2
    3     1     4    1
    4     4     5    1
    5     4     6    1
    6     4     7    1
    7     7     8    1
    8     7     9    1
    9     7    10    1
   10    10    11    1
   11    10    12    1
   12    10    13    1
@<TRIPOS>SUBSTRUCTURE
       1 MOL1            1 RESIDUE      1      MOL     
@<SCITEGIC>MOL_PROPERTY
VConf Rank
SciTegic.value.IntegerValue
564

@<SCITEGIC>MOL_PROPERTY
Conf_Id
SciTegic.value.IntegerValue
36

@<SCITEGIC>MOL_PROPERTY
Delta U+W
SciTegic.value.DoubleValue
0.272

@<SCITEGIC>MOL_PROPERTY
U+W
SciTegic.value.DoubleValue
-58.060

@<SCITEGIC>MOL_PROPERTY
Grad RMS
SciTegic.value.DoubleValue
0.000000

@<SCITEGIC>MOL_PROPERTY
U
SciTegic.value.DoubleValue
9.781

@<SCITEGIC>MOL_PROPERTY
W
SciTegic.value.DoubleValue
-67.841

@<SCITEGIC>MOL_PROPERTY
W(PB)
SciTegic.value.DoubleValue
-69.537

@<SCITEGIC>MOL_PROPERTY
W(SA)
SciTegic.value.DoubleValue
1.696

@<SCITEGIC>MOL_PROPERTY
Valence
SciTegic.value.DoubleValue
6.123

@<SCITEGIC>MOL_PROPERTY
Coulomb
SciTegic.value.DoubleValue
3.449

@<SCITEGIC>MOL_PROPERTY
VdW
SciTegic.value.DoubleValue
0.209

@<SCITEGIC>MOL_PROPERTY
VdW6
SciTegic.value.DoubleValue
-3.762

@<SCITEGIC>MOL_PROPERTY
VdW12
SciTegic.value.DoubleValue
3.972

@<SCITEGIC>MOL_PROPERTY
Bond
SciTegic.value.DoubleValue
0.078

@<SCITEGIC>MOL_PROPERTY
Angle
SciTegic.value.DoubleValue
2.428

@<SCITEGIC>MOL_PROPERTY
Pdih
SciTegic.value.DoubleValue
3.616

@<SCITEGIC>MOL_PROPERTY
Idih
SciTegic.value.DoubleValue
0.002

@<SCITEGIC>MOL_PROPERTY
Tether
SciTegic.value.DoubleValue
0.000

@<TRIPOS>MOLECULE
guest-6_confgen4.mol2 : confsearch ligand conformer 565
          13          12           1
SMALL
USER_CHARGES
 
@<TRIPOS>ATOM
       1    C1      18.144835   18.049424   22.162080 C.2        1 MOL1         0.6021
       2    O1      17.426947   19.024270   22.269971 O.co2      1 MOL1        -0.6904
       3    O2      17.732173   16.910894   22.252937 O.co2      1 MOL1        -0.6904
       4    C2      19.641064   18.231851   21.899973 C.3        1 MOL1        -0.2102
       5    H1      19.879153   17.696131   20.973336 H          1 MOL1         0.0687
       6    H2      20.179755   17.725731   22.709906 H          1 MOL1         0.0687
       7    C3      20.122210   19.702467   21.791613 C.3        1 MOL1        -0.1974
       8    H3      19.579092   20.208661   20.981337 H          1 MOL1         0.0689
       9    H4      19.879996   20.238325   22.720022 H          1 MOL1         0.0689
      10    C4      21.639097   19.787389   21.527652 C.3        1 MOL1        -0.2987
      11    H5      21.903088   19.285061   20.587706 H          1 MOL1         0.0700
      12    H6      21.960585   20.834530   21.454182 H          1 MOL1         0.0700
      13    H7      22.206398   19.314910   22.340337 H          1 MOL1         0.0700
@<TRIPOS>BOND
    1     1     2    1
    2     1     3    2
    3     1     4    1
    4     4     5    1
    5     4     6    1
    6     4     7    1
    7     7     8    1
    8     7     9    1
    9     7    10    1
   10    10    11    1
   11    10    12    1
   12    10    13    1
@<TRIPOS>SUBSTRUCTURE
       1 MOL1            1 RESIDUE      1      MOL     
@<SCITEGIC>MOL_PROPERTY
VConf Rank
SciTegic.value.IntegerValue
565

@<SCITEGIC>MOL_PROPERTY
Conf_Id
SciTegic.value.IntegerValue
0

@<SCITEGIC>MOL_PROPERTY
Delta U+W
SciTegic.value.DoubleValue
0.000

@<SCITEGIC>MOL_PROPERTY
U+W
SciTegic.value.DoubleValue
-58.332

@<SCITEGIC>MOL_PROPERTY
Grad RMS
SciTegic.value.DoubleValue
0.000000

@<SCITEGIC>MOL_PROPERTY
U
SciTegic.value.DoubleValue
8.390

@<SCITEGIC>MOL_PROPERTY
W
SciTegic.value.DoubleValue
-66.722

@<SCITEGIC>MOL_PROPERTY
W(PB)
SciTegic.value.DoubleValue
-68.455

@<SCITEGIC>MOL_PROPERTY
W(SA)
SciTegic.value.DoubleValue
1.733

@<SCITEGIC>MOL_PROPERTY
Valence
SciTegic.value.DoubleValue
6.333

@<SCITEGIC>MOL_PROPERTY
Coulomb
SciTegic.value.DoubleValue
1.215

@<SCITEGIC>MOL_PROPERTY
VdW
SciTegic.value.DoubleValue
0.842

@<SCITEGIC>MOL_PROPERTY
VdW6
SciTegic.value.DoubleValue
-3.344

@<SCITEGIC>MOL_PROPERTY
VdW12
SciTegic.value.DoubleValue
4.186

@<SCITEGIC>MOL_PROPERTY
Bond
SciTegic.value.DoubleValue
0.091

@<SCITEGIC>MOL_PROPERTY
Angle
SciTegic.value.DoubleValue
2.713

@<SCITEGIC>MOL_PROPERTY
Pdih
SciTegic.value.DoubleValue
3.529

@<SCITEGIC>MOL_PROPERTY
Idih
SciTegic.value.DoubleValue
0.000

@<SCITEGIC>MOL_PROPERTY
Tether
SciTegic.value.DoubleValue
0.000

@<TRIPOS>MOLECULE
guest-6_confgen4.mol2 : confsearch ligand conformer 566
          13          12           1
SMALL
USER_CHARGES
 
@<TRIPOS>ATOM
       1    C1      21.036309   18.112974   23.414958 C.2        1 MOL1         0.6021
       2    O1      20.858596   18.583996   24.520362 O.co2      1 MOL1        -0.6904
       3    O2      22.030014   17.487558   23.103885 O.co2      1 MOL1        -0.6904
       4    C2      19.962502   18.334887   22.355150 C.3        1 MOL1        -0.2102
       5    H1      18.988200   18.367196   22.857854 H          1 MOL1         0.0687
       6    H2      19.954210   17.462994   21.689754 H          1 MOL1         0.0687
       7    C3      20.181702   19.628970   21.534694 C.3        1 MOL1        -0.1974
       8    H3      20.198096   20.494115   22.212245 H          1 MOL1         0.0689
       9    H4      21.164217   19.589684   21.043832 H          1 MOL1         0.0689
      10    C4      19.080672   19.824247   20.473143 C.3        1 MOL1        -0.2987
      11    H5      19.253087   20.745966   19.902206 H          1 MOL1         0.0700
      12    H6      19.064292   18.985072   19.765279 H          1 MOL1         0.0700
      13    H7      18.090778   19.896479   20.942662 H          1 MOL1         0.0700
@<TRIPOS>BOND
    1     1     2    1
    2     1     3    2
    3     1     4    1
    4     4     5    1
    5     4     6    1
    6     4     7    1
    7     7     8    1
    8     7     9    1
    9     7    10    1
   10    10    11    1
   11    10    12    1
   12    10    13    1
@<TRIPOS>SUBSTRUCTURE
       1 MOL1            1 RESIDUE      1      MOL     
@<SCITEGIC>MOL_PROPERTY
VConf Rank
SciTegic.value.IntegerValue
566

@<SCITEGIC>MOL_PROPERTY
Conf_Id
SciTegic.value.IntegerValue
1

@<SCITEGIC>MOL_PROPERTY
Delta U+W
SciTegic.value.DoubleValue
-1.339

@<SCITEGIC>MOL_PROPERTY
U+W
SciTegic.value.DoubleValue
-59.672

@<SCITEGIC>MOL_PROPERTY
Grad RMS
SciTegic.value.DoubleValue
0.000000

@<SCITEGIC>MOL_PROPERTY
U
SciTegic.value.DoubleValue
7.389

@<SCITEGIC>MOL_PROPERTY
W
SciTegic.value.DoubleValue
-67.061

@<SCITEGIC>MOL_PROPERTY
W(PB)
SciTegic.value.DoubleValue
-68.767

@<SCITEGIC>MOL_PROPERTY
W(SA)
SciTegic.value.DoubleValue
1.707

@<SCITEGIC>MOL_PROPERTY
Valence
SciTegic.value.DoubleValue
5.822

@<SCITEGIC>MOL_PROPERTY
Coulomb
SciTegic.value.DoubleValue
1.255

@<SCITEGIC>MOL_PROPERTY
VdW
SciTegic.value.DoubleValue
0.312

@<SCITEGIC>MOL_PROPERTY
VdW6
SciTegic.value.DoubleValue
-3.061

@<SCITEGIC>MOL_PROPERTY
VdW12
SciTegic.value.DoubleValue
3.372

@<SCITEGIC>MOL_PROPERTY
Bond
SciTegic.value.DoubleValue
0.059

@<SCITEGIC>MOL_PROPERTY
Angle
SciTegic.value.DoubleValue
2.241

@<SCITEGIC>MOL_PROPERTY
Pdih
SciTegic.value.DoubleValue
3.522

@<SCITEGIC>MOL_PROPERTY
Idih
SciTegic.value.DoubleValue
0.000

@<SCITEGIC>MOL_PROPERTY
Tether
SciTegic.value.DoubleValue
0.000

@<TRIPOS>MOLECULE
guest-6_confgen4.mol2 : confsearch ligand conformer 567
          13          12           1
SMALL
USER_CHARGES
 
@<TRIPOS>ATOM
       1    C1      21.542374   20.031027   22.264961 C.2        1 MOL1         0.6021
       2    O1      22.632026   19.516798   22.108994 O.co2      1 MOL1        -0.6904
       3    O2      21.277558   21.160869   21.905471 O.co2      1 MOL1        -0.6904
       4    C2      20.461983   19.225802   22.982661 C.3        1 MOL1        -0.2102
       5    H1      19.678701   19.914075   23.323303 H          1 MOL1         0.0687
       6    H2      20.918210   18.795305   23.882058 H          1 MOL1         0.0687
       7    C3      19.841245   18.092276   22.126424 C.3        1 MOL1        -0.1974
       8    H3      20.638424   17.432436   21.756235 H          1 MOL1         0.0689
       9    H4      19.191132   17.475824   22.762203 H          1 MOL1         0.0689
      10    C4      19.018584   18.632666   20.938512 C.3        1 MOL1        -0.2987
      11    H5      19.648579   19.218764   20.256294 H          1 MOL1         0.0700
      12    H6      18.577643   17.806516   20.365674 H          1 MOL1         0.0700
      13    H7      18.201725   19.277650   21.287985 H          1 MOL1         0.0700
@<TRIPOS>BOND
    1     1     2    1
    2     1     3    2
    3     1     4    1
    4     4     5    1
    5     4     6    1
    6     4     7    1
    7     7     8    1
    8     7     9    1
    9     7    10    1
   10    10    11    1
   11    10    12    1
   12    10    13    1
@<TRIPOS>SUBSTRUCTURE
       1 MOL1            1 RESIDUE      1      MOL     
@<SCITEGIC>MOL_PROPERTY
VConf Rank
SciTegic.value.IntegerValue
567

@<SCITEGIC>MOL_PROPERTY
Conf_Id
SciTegic.value.IntegerValue
4

@<SCITEGIC>MOL_PROPERTY
Delta U+W
SciTegic.value.DoubleValue
0.281

@<SCITEGIC>MOL_PROPERTY
U+W
SciTegic.value.DoubleValue
-58.051

@<SCITEGIC>MOL_PROPERTY
Grad RMS
SciTegic.value.DoubleValue
0.000000

@<SCITEGIC>MOL_PROPERTY
U
SciTegic.value.DoubleValue
9.781

@<SCITEGIC>MOL_PROPERTY
W
SciTegic.value.DoubleValue
-67.832

@<SCITEGIC>MOL_PROPERTY
W(PB)
SciTegic.value.DoubleValue
-69.535

@<SCITEGIC>MOL_PROPERTY
W(SA)
SciTegic.value.DoubleValue
1.703

@<SCITEGIC>MOL_PROPERTY
Valence
SciTegic.value.DoubleValue
6.123

@<SCITEGIC>MOL_PROPERTY
Coulomb
SciTegic.value.DoubleValue
3.449

@<SCITEGIC>MOL_PROPERTY
VdW
SciTegic.value.DoubleValue
0.209

@<SCITEGIC>MOL_PROPERTY
VdW6
SciTegic.value.DoubleValue
-3.762

@<SCITEGIC>MOL_PROPERTY
VdW12
SciTegic.value.DoubleValue
3.972

@<SCITEGIC>MOL_PROPERTY
Bond
SciTegic.value.DoubleValue
0.078

@<SCITEGIC>MOL_PROPERTY
Angle
SciTegic.value.DoubleValue
2.428

@<SCITEGIC>MOL_PROPERTY
Pdih
SciTegic.value.DoubleValue
3.616

@<SCITEGIC>MOL_PROPERTY
Idih
SciTegic.value.DoubleValue
0.002

@<SCITEGIC>MOL_PROPERTY
Tether
SciTegic.value.DoubleValue
0.000

@<TRIPOS>MOLECULE
guest-6_confgen4.mol2 : confsearch ligand conformer 568
          13          12           1
SMALL
USER_CHARGES
 
@<TRIPOS>ATOM
       1    C1      21.349228   19.655874   20.892543 C.2        1 MOL1         0.6021
       2    O1      21.886817   18.759677   20.273080 O.co2      1 MOL1        -0.6904
       3    O2      21.087321   20.739818   20.410292 O.co2      1 MOL1        -0.6904
       4    C2      21.016704   19.422931   22.364240 C.3        1 MOL1        -0.2102
       5    H1      21.380824   20.293034   22.923457 H          1 MOL1         0.0687
       6    H2      21.586962   18.556214   22.720462 H          1 MOL1         0.0687
       7    C3      19.506201   19.222020   22.649464 C.3        1 MOL1        -0.1974
       8    H3      19.343106   19.213415   23.735834 H          1 MOL1         0.0689
       9    H4      18.940135   20.076121   22.251970 H          1 MOL1         0.0689
      10    C4      18.961126   17.910265   22.047701 C.3        1 MOL1        -0.2987
      11    H5      19.498868   17.041227   22.448946 H          1 MOL1         0.0700
      12    H6      17.895973   17.789418   22.284218 H          1 MOL1         0.0700
      13    H7      19.067745   17.903160   20.954811 H          1 MOL1         0.0700
@<TRIPOS>BOND
    1     1     2    1
    2     1     3    2
    3     1     4    1
    4     4     5    1
    5     4     6    1
    6     4     7    1
    7     7     8    1
    8     7     9    1
    9     7    10    1
   10    10    11    1
   11    10    12    1
   12    10    13    1
@<TRIPOS>SUBSTRUCTURE
       1 MOL1            1 RESIDUE      1      MOL     
@<SCITEGIC>MOL_PROPERTY
VConf Rank
SciTegic.value.IntegerValue
568

@<SCITEGIC>MOL_PROPERTY
Conf_Id
SciTegic.value.IntegerValue
36

@<SCITEGIC>MOL_PROPERTY
Delta U+W
SciTegic.value.DoubleValue
0.272

@<SCITEGIC>MOL_PROPERTY
U+W
SciTegic.value.DoubleValue
-58.060

@<SCITEGIC>MOL_PROPERTY
Grad RMS
SciTegic.value.DoubleValue
0.000000

@<SCITEGIC>MOL_PROPERTY
U
SciTegic.value.DoubleValue
9.781

@<SCITEGIC>MOL_PROPERTY
W
SciTegic.value.DoubleValue
-67.841

@<SCITEGIC>MOL_PROPERTY
W(PB)
SciTegic.value.DoubleValue
-69.537

@<SCITEGIC>MOL_PROPERTY
W(SA)
SciTegic.value.DoubleValue
1.696

@<SCITEGIC>MOL_PROPERTY
Valence
SciTegic.value.DoubleValue
6.123

@<SCITEGIC>MOL_PROPERTY
Coulomb
SciTegic.value.DoubleValue
3.449

@<SCITEGIC>MOL_PROPERTY
VdW
SciTegic.value.DoubleValue
0.209

@<SCITEGIC>MOL_PROPERTY
VdW6
SciTegic.value.DoubleValue
-3.762

@<SCITEGIC>MOL_PROPERTY
VdW12
SciTegic.value.DoubleValue
3.972

@<SCITEGIC>MOL_PROPERTY
Bond
SciTegic.value.DoubleValue
0.078

@<SCITEGIC>MOL_PROPERTY
Angle
SciTegic.value.DoubleValue
2.428

@<SCITEGIC>MOL_PROPERTY
Pdih
SciTegic.value.DoubleValue
3.616

@<SCITEGIC>MOL_PROPERTY
Idih
SciTegic.value.DoubleValue
0.002

@<SCITEGIC>MOL_PROPERTY
Tether
SciTegic.value.DoubleValue
0.000

@<TRIPOS>MOLECULE
guest-6_confgen4.mol2 : confsearch ligand conformer 569
          13          12           1
SMALL
USER_CHARGES
 
@<TRIPOS>ATOM
       1    C1      20.448360   20.056247   23.624261 C.2        1 MOL1         0.6021
       2    O1      19.465704   19.767661   24.278810 O.co2      1 MOL1        -0.6904
       3    O2      21.337180   20.768969   24.044766 O.co2      1 MOL1        -0.6904
       4    C2      20.601645   19.512905   22.202303 C.3        1 MOL1        -0.2102
       5    H1      21.546260   18.957427   22.163783 H          1 MOL1         0.0687
       6    H2      20.709067   20.374153   21.532191 H          1 MOL1         0.0687
       7    C3      19.442840   18.607880   21.708284 C.3        1 MOL1        -0.1974
       8    H3      19.334980   17.746980   22.382801 H          1 MOL1         0.0689
       9    H4      18.496736   19.165427   21.750502 H          1 MOL1         0.0689
      10    C4      19.683794   18.108822   20.269285 C.3        1 MOL1        -0.2987
      11    H5      20.609227   17.521276   20.206958 H          1 MOL1         0.0700
      12    H6      18.854294   17.470769   19.937509 H          1 MOL1         0.0700
      13    H7      19.764304   18.951128   19.569597 H          1 MOL1         0.0700
@<TRIPOS>BOND
    1     1     2    1
    2     1     3    2
    3     1     4    1
    4     4     5    1
    5     4     6    1
    6     4     7    1
    7     7     8    1
    8     7     9    1
    9     7    10    1
   10    10    11    1
   11    10    12    1
   12    10    13    1
@<TRIPOS>SUBSTRUCTURE
       1 MOL1            1 RESIDUE      1      MOL     
@<SCITEGIC>MOL_PROPERTY
VConf Rank
SciTegic.value.IntegerValue
569

@<SCITEGIC>MOL_PROPERTY
Conf_Id
SciTegic.value.IntegerValue
0

@<SCITEGIC>MOL_PROPERTY
Delta U+W
SciTegic.value.DoubleValue
0.000

@<SCITEGIC>MOL_PROPERTY
U+W
SciTegic.value.DoubleValue
-58.332

@<SCITEGIC>MOL_PROPERTY
Grad RMS
SciTegic.value.DoubleValue
0.000000

@<SCITEGIC>MOL_PROPERTY
U
SciTegic.value.DoubleValue
8.390

@<SCITEGIC>MOL_PROPERTY
W
SciTegic.value.DoubleValue
-66.722

@<SCITEGIC>MOL_PROPERTY
W(PB)
SciTegic.value.DoubleValue
-68.455

@<SCITEGIC>MOL_PROPERTY
W(SA)
SciTegic.value.DoubleValue
1.733

@<SCITEGIC>MOL_PROPERTY
Valence
SciTegic.value.DoubleValue
6.333

@<SCITEGIC>MOL_PROPERTY
Coulomb
SciTegic.value.DoubleValue
1.215

@<SCITEGIC>MOL_PROPERTY
VdW
SciTegic.value.DoubleValue
0.842

@<SCITEGIC>MOL_PROPERTY
VdW6
SciTegic.value.DoubleValue
-3.344

@<SCITEGIC>MOL_PROPERTY
VdW12
SciTegic.value.DoubleValue
4.186

@<SCITEGIC>MOL_PROPERTY
Bond
SciTegic.value.DoubleValue
0.091

@<SCITEGIC>MOL_PROPERTY
Angle
SciTegic.value.DoubleValue
2.713

@<SCITEGIC>MOL_PROPERTY
Pdih
SciTegic.value.DoubleValue
3.529

@<SCITEGIC>MOL_PROPERTY
Idih
SciTegic.value.DoubleValue
0.000

@<SCITEGIC>MOL_PROPERTY
Tether
SciTegic.value.DoubleValue
0.000

@<TRIPOS>MOLECULE
guest-6_confgen4.mol2 : confsearch ligand conformer 570
          13          12           1
SMALL
USER_CHARGES
 
@<TRIPOS>ATOM
       1    C1      21.522708   18.226079   20.628847 C.2        1 MOL1         0.6021
       2    O1      22.030605   18.983805   19.826816 O.co2      1 MOL1        -0.6904
       3    O2      21.515891   17.018337   20.499727 O.co2      1 MOL1        -0.6904
       4    C2      20.840405   18.824354   21.854420 C.3        1 MOL1        -0.2102
       5    H1      21.377667   19.739538   22.131562 H          1 MOL1         0.0687
       6    H2      20.953224   18.118700   22.686491 H          1 MOL1         0.0687
       7    C3      19.342551   19.136322   21.619990 C.3        1 MOL1        -0.1974
       8    H3      19.241246   19.835893   20.778468 H          1 MOL1         0.0689
       9    H4      18.816711   18.214740   21.333632 H          1 MOL1         0.0689
      10    C4      18.682492   19.739358   22.876159 C.3        1 MOL1        -0.2987
      11    H5      17.621848   19.953565   22.690655 H          1 MOL1         0.0700
      12    H6      18.744780   19.044923   23.724355 H          1 MOL1         0.0700
      13    H7      19.172548   20.678523   23.164899 H          1 MOL1         0.0700
@<TRIPOS>BOND
    1     1     2    1
    2     1     3    2
    3     1     4    1
    4     4     5    1
    5     4     6    1
    6     4     7    1
    7     7     8    1
    8     7     9    1
    9     7    10    1
   10    10    11    1
   11    10    12    1
   12    10    13    1
@<TRIPOS>SUBSTRUCTURE
       1 MOL1            1 RESIDUE      1      MOL     
@<SCITEGIC>MOL_PROPERTY
VConf Rank
SciTegic.value.IntegerValue
570

@<SCITEGIC>MOL_PROPERTY
Conf_Id
SciTegic.value.IntegerValue
1

@<SCITEGIC>MOL_PROPERTY
Delta U+W
SciTegic.value.DoubleValue
-1.339

@<SCITEGIC>MOL_PROPERTY
U+W
SciTegic.value.DoubleValue
-59.672

@<SCITEGIC>MOL_PROPERTY
Grad RMS
SciTegic.value.DoubleValue
0.000000

@<SCITEGIC>MOL_PROPERTY
U
SciTegic.value.DoubleValue
7.389

@<SCITEGIC>MOL_PROPERTY
W
SciTegic.value.DoubleValue
-67.061

@<SCITEGIC>MOL_PROPERTY
W(PB)
SciTegic.value.DoubleValue
-68.767

@<SCITEGIC>MOL_PROPERTY
W(SA)
SciTegic.value.DoubleValue
1.707

@<SCITEGIC>MOL_PROPERTY
Valence
SciTegic.value.DoubleValue
5.822

@<SCITEGIC>MOL_PROPERTY
Coulomb
SciTegic.value.DoubleValue
1.255

@<SCITEGIC>MOL_PROPERTY
VdW
SciTegic.value.DoubleValue
0.312

@<SCITEGIC>MOL_PROPERTY
VdW6
SciTegic.value.DoubleValue
-3.061

@<SCITEGIC>MOL_PROPERTY
VdW12
SciTegic.value.DoubleValue
3.372

@<SCITEGIC>MOL_PROPERTY
Bond
SciTegic.value.DoubleValue
0.059

@<SCITEGIC>MOL_PROPERTY
Angle
SciTegic.value.DoubleValue
2.241

@<SCITEGIC>MOL_PROPERTY
Pdih
SciTegic.value.DoubleValue
3.522

@<SCITEGIC>MOL_PROPERTY
Idih
SciTegic.value.DoubleValue
0.000

@<SCITEGIC>MOL_PROPERTY
Tether
SciTegic.value.DoubleValue
0.000

@<TRIPOS>MOLECULE
guest-6_confgen4.mol2 : confsearch ligand conformer 571
          13          12           1
SMALL
USER_CHARGES
 
@<TRIPOS>ATOM
       1    C1      19.199824   18.545154   20.521922 C.2        1 MOL1         0.6021
       2    O1      19.677544   17.672675   19.824310 O.co2      1 MOL1        -0.6904
       3    O2      18.009917   18.648339   20.744137 O.co2      1 MOL1        -0.6904
       4    C2      20.142782   19.586140   21.120176 C.3        1 MOL1        -0.2102
       5    H1      19.552211   20.454794   21.436332 H          1 MOL1         0.0687
       6    H2      20.804275   19.928905   20.315611 H          1 MOL1         0.0687
       7    C3      20.997725   19.062788   22.302764 C.3        1 MOL1        -0.1974
       8    H3      21.553384   18.168536   21.987363 H          1 MOL1         0.0689
       9    H4      21.746046   19.821608   22.569377 H          1 MOL1         0.0689
      10    C4      20.146632   18.735412   23.547109 C.3        1 MOL1        -0.2987
      11    H5      19.414944   17.946354   23.328368 H          1 MOL1         0.0700
      12    H6      20.783462   18.387019   24.370617 H          1 MOL1         0.0700
      13    H7      19.599438   19.622284   23.892692 H          1 MOL1         0.0700
@<TRIPOS>BOND
    1     1     2    1
    2     1     3    2
    3     1     4    1
    4     4     5    1
    5     4     6    1
    6     4     7    1
    7     7     8    1
    8     7     9    1
    9     7    10    1
   10    10    11    1
   11    10    12    1
   12    10    13    1
@<TRIPOS>SUBSTRUCTURE
       1 MOL1            1 RESIDUE      1      MOL     
@<SCITEGIC>MOL_PROPERTY
VConf Rank
SciTegic.value.IntegerValue
571

@<SCITEGIC>MOL_PROPERTY
Conf_Id
SciTegic.value.IntegerValue
4

@<SCITEGIC>MOL_PROPERTY
Delta U+W
SciTegic.value.DoubleValue
0.281

@<SCITEGIC>MOL_PROPERTY
U+W
SciTegic.value.DoubleValue
-58.051

@<SCITEGIC>MOL_PROPERTY
Grad RMS
SciTegic.value.DoubleValue
0.000000

@<SCITEGIC>MOL_PROPERTY
U
SciTegic.value.DoubleValue
9.781

@<SCITEGIC>MOL_PROPERTY
W
SciTegic.value.DoubleValue
-67.832

@<SCITEGIC>MOL_PROPERTY
W(PB)
SciTegic.value.DoubleValue
-69.535

@<SCITEGIC>MOL_PROPERTY
W(SA)
SciTegic.value.DoubleValue
1.703

@<SCITEGIC>MOL_PROPERTY
Valence
SciTegic.value.DoubleValue
6.123

@<SCITEGIC>MOL_PROPERTY
Coulomb
SciTegic.value.DoubleValue
3.449

@<SCITEGIC>MOL_PROPERTY
VdW
SciTegic.value.DoubleValue
0.209

@<SCITEGIC>MOL_PROPERTY
VdW6
SciTegic.value.DoubleValue
-3.762

@<SCITEGIC>MOL_PROPERTY
VdW12
SciTegic.value.DoubleValue
3.972

@<SCITEGIC>MOL_PROPERTY
Bond
SciTegic.value.DoubleValue
0.078

@<SCITEGIC>MOL_PROPERTY
Angle
SciTegic.value.DoubleValue
2.428

@<SCITEGIC>MOL_PROPERTY
Pdih
SciTegic.value.DoubleValue
3.616

@<SCITEGIC>MOL_PROPERTY
Idih
SciTegic.value.DoubleValue
0.002

@<SCITEGIC>MOL_PROPERTY
Tether
SciTegic.value.DoubleValue
0.000

@<TRIPOS>MOLECULE
guest-6_confgen4.mol2 : confsearch ligand conformer 572
          13          12           1
SMALL
USER_CHARGES
 
@<TRIPOS>ATOM
       1    C1      21.838711   18.598047   21.665504 C.2        1 MOL1         0.6021
       2    O1      22.349710   19.530076   21.077195 O.co2      1 MOL1        -0.6904
       3    O2      22.415296   17.942383   22.510342 O.co2      1 MOL1        -0.6904
       4    C2      20.409263   18.205403   21.300489 C.3        1 MOL1        -0.2102
       5    H1      20.396681   17.119261   21.150408 H          1 MOL1         0.0687
       6    H2      20.155024   18.661396   20.335751 H          1 MOL1         0.0687
       7    C3      19.353098   18.590618   22.367945 C.3        1 MOL1        -0.1974
       8    H3      18.387713   18.141397   22.097567 H          1 MOL1         0.0689
       9    H4      19.639192   18.163296   23.339267 H          1 MOL1         0.0689
      10    C4      19.178529   20.117573   22.501596 C.3        1 MOL1        -0.2987
      11    H5      18.870642   20.562468   21.546260 H          1 MOL1         0.0700
      12    H6      18.411214   20.355190   23.249834 H          1 MOL1         0.0700
      13    H7      20.115938   20.596067   22.814860 H          1 MOL1         0.0700
@<TRIPOS>BOND
    1     1     2    1
    2     1     3    2
    3     1     4    1
    4     4     5    1
    5     4     6    1
    6     4     7    1
    7     7     8    1
    8     7     9    1
    9     7    10    1
   10    10    11    1
   11    10    12    1
   12    10    13    1
@<TRIPOS>SUBSTRUCTURE
       1 MOL1            1 RESIDUE      1      MOL     
@<SCITEGIC>MOL_PROPERTY
VConf Rank
SciTegic.value.IntegerValue
572

@<SCITEGIC>MOL_PROPERTY
Conf_Id
SciTegic.value.IntegerValue
36

@<SCITEGIC>MOL_PROPERTY
Delta U+W
SciTegic.value.DoubleValue
0.272

@<SCITEGIC>MOL_PROPERTY
U+W
SciTegic.value.DoubleValue
-58.060

@<SCITEGIC>MOL_PROPERTY
Grad RMS
SciTegic.value.DoubleValue
0.000000

@<SCITEGIC>MOL_PROPERTY
U
SciTegic.value.DoubleValue
9.781

@<SCITEGIC>MOL_PROPERTY
W
SciTegic.value.DoubleValue
-67.841

@<SCITEGIC>MOL_PROPERTY
W(PB)
SciTegic.value.DoubleValue
-69.537

@<SCITEGIC>MOL_PROPERTY
W(SA)
SciTegic.value.DoubleValue
1.696

@<SCITEGIC>MOL_PROPERTY
Valence
SciTegic.value.DoubleValue
6.123

@<SCITEGIC>MOL_PROPERTY
Coulomb
SciTegic.value.DoubleValue
3.449

@<SCITEGIC>MOL_PROPERTY
VdW
SciTegic.value.DoubleValue
0.209

@<SCITEGIC>MOL_PROPERTY
VdW6
SciTegic.value.DoubleValue
-3.762

@<SCITEGIC>MOL_PROPERTY
VdW12
SciTegic.value.DoubleValue
3.972

@<SCITEGIC>MOL_PROPERTY
Bond
SciTegic.value.DoubleValue
0.078

@<SCITEGIC>MOL_PROPERTY
Angle
SciTegic.value.DoubleValue
2.428

@<SCITEGIC>MOL_PROPERTY
Pdih
SciTegic.value.DoubleValue
3.616

@<SCITEGIC>MOL_PROPERTY
Idih
SciTegic.value.DoubleValue
0.002

@<SCITEGIC>MOL_PROPERTY
Tether
SciTegic.value.DoubleValue
0.000

@<TRIPOS>MOLECULE
guest-6_confgen4.mol2 : confsearch ligand conformer 573
          13          12           1
SMALL
USER_CHARGES
 
@<TRIPOS>ATOM
       1    C1      18.110319   19.916218   21.591659 C.2        1 MOL1         0.6021
       2    O1      18.406019   21.080312   21.778144 O.co2      1 MOL1        -0.6904
       3    O2      16.977022   19.552092   21.351149 O.co2      1 MOL1        -0.6904
       4    C2      19.192504   18.836702   21.656488 C.3        1 MOL1        -0.2102
       5    H1      19.188519   18.310484   20.694502 H          1 MOL1         0.0687
       6    H2      18.886413   18.111227   22.419595 H          1 MOL1         0.0687
       7    C3      20.623685   19.348316   21.966212 C.3        1 MOL1        -0.1974
       8    H3      20.927364   20.077344   21.201979 H          1 MOL1         0.0689
       9    H4      20.624873   19.877913   22.929166 H          1 MOL1         0.0689
      10    C4      21.644061   18.193061   22.011529 C.3        1 MOL1        -0.2987
      11    H5      21.684377   17.666442   21.048945 H          1 MOL1         0.0700
      12    H6      22.649820   18.574147   22.231710 H          1 MOL1         0.0700
      13    H7      21.379415   17.465385   22.789972 H          1 MOL1         0.0700
@<TRIPOS>BOND
    1     1     2    1
    2     1     3    2
    3     1     4    1
    4     4     5    1
    5     4     6    1
    6     4     7    1
    7     7     8    1
    8     7     9    1
    9     7    10    1
   10    10    11    1
   11    10    12    1
   12    10    13    1
@<TRIPOS>SUBSTRUCTURE
       1 MOL1            1 RESIDUE      1      MOL     
@<SCITEGIC>MOL_PROPERTY
VConf Rank
SciTegic.value.IntegerValue
573

@<SCITEGIC>MOL_PROPERTY
Conf_Id
SciTegic.value.IntegerValue
0

@<SCITEGIC>MOL_PROPERTY
Delta U+W
SciTegic.value.DoubleValue
0.000

@<SCITEGIC>MOL_PROPERTY
U+W
SciTegic.value.DoubleValue
-58.332

@<SCITEGIC>MOL_PROPERTY
Grad RMS
SciTegic.value.DoubleValue
0.000000

@<SCITEGIC>MOL_PROPERTY
U
SciTegic.value.DoubleValue
8.390

@<SCITEGIC>MOL_PROPERTY
W
SciTegic.value.DoubleValue
-66.722

@<SCITEGIC>MOL_PROPERTY
W(PB)
SciTegic.value.DoubleValue
-68.455

@<SCITEGIC>MOL_PROPERTY
W(SA)
SciTegic.value.DoubleValue
1.733

@<SCITEGIC>MOL_PROPERTY
Valence
SciTegic.value.DoubleValue
6.333

@<SCITEGIC>MOL_PROPERTY
Coulomb
SciTegic.value.DoubleValue
1.215

@<SCITEGIC>MOL_PROPERTY
VdW
SciTegic.value.DoubleValue
0.842

@<SCITEGIC>MOL_PROPERTY
VdW6
SciTegic.value.DoubleValue
-3.344

@<SCITEGIC>MOL_PROPERTY
VdW12
SciTegic.value.DoubleValue
4.186

@<SCITEGIC>MOL_PROPERTY
Bond
SciTegic.value.DoubleValue
0.091

@<SCITEGIC>MOL_PROPERTY
Angle
SciTegic.value.DoubleValue
2.713

@<SCITEGIC>MOL_PROPERTY
Pdih
SciTegic.value.DoubleValue
3.529

@<SCITEGIC>MOL_PROPERTY
Idih
SciTegic.value.DoubleValue
0.000

@<SCITEGIC>MOL_PROPERTY
Tether
SciTegic.value.DoubleValue
0.000

@<TRIPOS>MOLECULE
guest-6_confgen4.mol2 : confsearch ligand conformer 574
          13          12           1
SMALL
USER_CHARGES
 
@<TRIPOS>ATOM
       1    C1      18.762987   20.649157   21.227668 C.2        1 MOL1         0.6021
       2    O1      17.564787   20.465572   21.304957 O.co2      1 MOL1        -0.6904
       3    O2      19.271285   21.453307   20.472462 O.co2      1 MOL1        -0.6904
       4    C2      19.679649   19.811597   22.112950 C.3        1 MOL1        -0.2102
       5    H1      19.151115   19.603241   23.051171 H          1 MOL1         0.0687
       6    H2      20.558387   20.417798   22.364661 H          1 MOL1         0.0687
       7    C3      20.120186   18.486963   21.444280 C.3        1 MOL1        -0.1974
       8    H3      19.231931   17.892809   21.187750 H          1 MOL1         0.0689
       9    H4      20.639571   18.707525   20.501192 H          1 MOL1         0.0689
      10    C4      21.044822   17.664235   22.363767 C.3        1 MOL1        -0.2987
      11    H5      21.346301   16.729693   21.872846 H          1 MOL1         0.0700
      12    H6      21.955055   18.226616   22.610261 H          1 MOL1         0.0700
      13    H7      20.536600   17.405624   23.302056 H          1 MOL1         0.0700
@<TRIPOS>BOND
    1     1     2    1
    2     1     3    2
    3     1     4    1
    4     4     5    1
    5     4     6    1
    6     4     7    1
    7     7     8    1
    8     7     9    1
    9     7    10    1
   10    10    11    1
   11    10    12    1
   12    10    13    1
@<TRIPOS>SUBSTRUCTURE
       1 MOL1            1 RESIDUE      1      MOL     
@<SCITEGIC>MOL_PROPERTY
VConf Rank
SciTegic.value.IntegerValue
574

@<SCITEGIC>MOL_PROPERTY
Conf_Id
SciTegic.value.IntegerValue
1

@<SCITEGIC>MOL_PROPERTY
Delta U+W
SciTegic.value.DoubleValue
-1.339

@<SCITEGIC>MOL_PROPERTY
U+W
SciTegic.value.DoubleValue
-59.672

@<SCITEGIC>MOL_PROPERTY
Grad RMS
SciTegic.value.DoubleValue
0.000000

@<SCITEGIC>MOL_PROPERTY
U
SciTegic.value.DoubleValue
7.389

@<SCITEGIC>MOL_PROPERTY
W
SciTegic.value.DoubleValue
-67.061

@<SCITEGIC>MOL_PROPERTY
W(PB)
SciTegic.value.DoubleValue
-68.767

@<SCITEGIC>MOL_PROPERTY
W(SA)
SciTegic.value.DoubleValue
1.707

@<SCITEGIC>MOL_PROPERTY
Valence
SciTegic.value.DoubleValue
5.822

@<SCITEGIC>MOL_PROPERTY
Coulomb
SciTegic.value.DoubleValue
1.255

@<SCITEGIC>MOL_PROPERTY
VdW
SciTegic.value.DoubleValue
0.312

@<SCITEGIC>MOL_PROPERTY
VdW6
SciTegic.value.DoubleValue
-3.061

@<SCITEGIC>MOL_PROPERTY
VdW12
SciTegic.value.DoubleValue
3.372

@<SCITEGIC>MOL_PROPERTY
Bond
SciTegic.value.DoubleValue
0.059

@<SCITEGIC>MOL_PROPERTY
Angle
SciTegic.value.DoubleValue
2.241

@<SCITEGIC>MOL_PROPERTY
Pdih
SciTegic.value.DoubleValue
3.522

@<SCITEGIC>MOL_PROPERTY
Idih
SciTegic.value.DoubleValue
0.000

@<SCITEGIC>MOL_PROPERTY
Tether
SciTegic.value.DoubleValue
0.000

@<TRIPOS>MOLECULE
guest-6_confgen4.mol2 : confsearch ligand conformer 575
          13          12           1
SMALL
USER_CHARGES
 
@<TRIPOS>ATOM
       1    C1      21.143960   17.599575   22.545818 C.2        1 MOL1         0.6021
       2    O1      20.575655   16.731551   23.178005 O.co2      1 MOL1        -0.6904
       3    O2      22.000756   17.371008   21.715418 O.co2      1 MOL1        -0.6904
       4    C2      20.786194   19.054710   22.837905 C.3        1 MOL1        -0.2102
       5    H1      21.581797   19.698323   22.442855 H          1 MOL1         0.0687
       6    H2      20.789327   19.179903   23.927264 H          1 MOL1         0.0687
       7    C3      19.412023   19.496231   22.272172 C.3        1 MOL1        -0.1974
       8    H3      18.628037   18.820088   22.641116 H          1 MOL1         0.0689
       9    H4      19.170534   20.497597   22.654039 H          1 MOL1         0.0689
      10    C4      19.390617   19.526407   20.729914 C.3        1 MOL1        -0.2987
      11    H5      19.584876   18.529307   20.312921 H          1 MOL1         0.0700
      12    H6      18.411664   19.861361   20.363101 H          1 MOL1         0.0700
      13    H7      20.152745   20.213949   20.340249 H          1 MOL1         0.0700
@<TRIPOS>BOND
    1     1     2    1
    2     1     3    2
    3     1     4    1
    4     4     5    1
    5     4     6    1
    6     4     7    1
    7     7     8    1
    8     7     9    1
    9     7    10    1
   10    10    11    1
   11    10    12    1
   12    10    13    1
@<TRIPOS>SUBSTRUCTURE
       1 MOL1            1 RESIDUE      1      MOL     
@<SCITEGIC>MOL_PROPERTY
VConf Rank
SciTegic.value.IntegerValue
575

@<SCITEGIC>MOL_PROPERTY
Conf_Id
SciTegic.value.IntegerValue
4

@<SCITEGIC>MOL_PROPERTY
Delta U+W
SciTegic.value.DoubleValue
0.281

@<SCITEGIC>MOL_PROPERTY
U+W
SciTegic.value.DoubleValue
-58.051

@<SCITEGIC>MOL_PROPERTY
Grad RMS
SciTegic.value.DoubleValue
0.000000

@<SCITEGIC>MOL_PROPERTY
U
SciTegic.value.DoubleValue
9.781

@<SCITEGIC>MOL_PROPERTY
W
SciTegic.value.DoubleValue
-67.832

@<SCITEGIC>MOL_PROPERTY
W(PB)
SciTegic.value.DoubleValue
-69.535

@<SCITEGIC>MOL_PROPERTY
W(SA)
SciTegic.value.DoubleValue
1.703

@<SCITEGIC>MOL_PROPERTY
Valence
SciTegic.value.DoubleValue
6.123

@<SCITEGIC>MOL_PROPERTY
Coulomb
SciTegic.value.DoubleValue
3.449

@<SCITEGIC>MOL_PROPERTY
VdW
SciTegic.value.DoubleValue
0.209

@<SCITEGIC>MOL_PROPERTY
VdW6
SciTegic.value.DoubleValue
-3.762

@<SCITEGIC>MOL_PROPERTY
VdW12
SciTegic.value.DoubleValue
3.972

@<SCITEGIC>MOL_PROPERTY
Bond
SciTegic.value.DoubleValue
0.078

@<SCITEGIC>MOL_PROPERTY
Angle
SciTegic.value.DoubleValue
2.428

@<SCITEGIC>MOL_PROPERTY
Pdih
SciTegic.value.DoubleValue
3.616

@<SCITEGIC>MOL_PROPERTY
Idih
SciTegic.value.DoubleValue
0.002

@<SCITEGIC>MOL_PROPERTY
Tether
SciTegic.value.DoubleValue
0.000

@<TRIPOS>MOLECULE
guest-6_confgen4.mol2 : confsearch ligand conformer 576
          13          12           1
SMALL
USER_CHARGES
 
@<TRIPOS>ATOM
       1    C1      20.762774   17.307473   21.805311 C.2        1 MOL1         0.6021
       2    O1      21.711486   17.151280   22.547910 O.co2      1 MOL1        -0.6904
       3    O2      19.943959   16.440337   21.573545 O.co2      1 MOL1        -0.6904
       4    C2      20.608990   18.651189   21.097142 C.3        1 MOL1        -0.2102
       5    H1      20.424010   18.442640   20.036635 H          1 MOL1         0.0687
       6    H2      21.563546   19.188831   21.152386 H          1 MOL1         0.0687
       7    C3      19.464941   19.535708   21.655815 C.3        1 MOL1        -0.1974
       8    H3      19.328854   20.405514   20.998708 H          1 MOL1         0.0689
       9    H4      18.521100   18.973015   21.634303 H          1 MOL1         0.0689
      10    C4      19.745822   20.027360   23.090845 C.3        1 MOL1        -0.2987
      11    H5      20.674440   20.611711   23.130755 H          1 MOL1         0.0700
      12    H6      18.927301   20.665625   23.448248 H          1 MOL1         0.0700
      13    H7      19.843786   19.182492   23.785415 H          1 MOL1         0.0700
@<TRIPOS>BOND
    1     1     2    1
    2     1     3    2
    3     1     4    1
    4     4     5    1
    5     4     6    1
    6     4     7    1
    7     7     8    1
    8     7     9    1
    9     7    10    1
   10    10    11    1
   11    10    12    1
   12    10    13    1
@<TRIPOS>SUBSTRUCTURE
       1 MOL1            1 RESIDUE      1      MOL     
@<SCITEGIC>MOL_PROPERTY
VConf Rank
SciTegic.value.IntegerValue
576

@<SCITEGIC>MOL_PROPERTY
Conf_Id
SciTegic.value.IntegerValue
36

@<SCITEGIC>MOL_PROPERTY
Delta U+W
SciTegic.value.DoubleValue
0.272

@<SCITEGIC>MOL_PROPERTY
U+W
SciTegic.value.DoubleValue
-58.060

@<SCITEGIC>MOL_PROPERTY
Grad RMS
SciTegic.value.DoubleValue
0.000000

@<SCITEGIC>MOL_PROPERTY
U
SciTegic.value.DoubleValue
9.781

@<SCITEGIC>MOL_PROPERTY
W
SciTegic.value.DoubleValue
-67.841

@<SCITEGIC>MOL_PROPERTY
W(PB)
SciTegic.value.DoubleValue
-69.537

@<SCITEGIC>MOL_PROPERTY
W(SA)
SciTegic.value.DoubleValue
1.696

@<SCITEGIC>MOL_PROPERTY
Valence
SciTegic.value.DoubleValue
6.123

@<SCITEGIC>MOL_PROPERTY
Coulomb
SciTegic.value.DoubleValue
3.449

@<SCITEGIC>MOL_PROPERTY
VdW
SciTegic.value.DoubleValue
0.209

@<SCITEGIC>MOL_PROPERTY
VdW6
SciTegic.value.DoubleValue
-3.762

@<SCITEGIC>MOL_PROPERTY
VdW12
SciTegic.value.DoubleValue
3.972

@<SCITEGIC>MOL_PROPERTY
Bond
SciTegic.value.DoubleValue
0.078

@<SCITEGIC>MOL_PROPERTY
Angle
SciTegic.value.DoubleValue
2.428

@<SCITEGIC>MOL_PROPERTY
Pdih
SciTegic.value.DoubleValue
3.616

@<SCITEGIC>MOL_PROPERTY
Idih
SciTegic.value.DoubleValue
0.002

@<SCITEGIC>MOL_PROPERTY
Tether
SciTegic.value.DoubleValue
0.000

@<TRIPOS>MOLECULE
guest-6_confgen4.mol2 : confsearch ligand conformer 577
          13          12           1
SMALL
USER_CHARGES
 
@<TRIPOS>ATOM
       1    C1      20.291539   20.689782   23.094607 C.2        1 MOL1         0.6021
       2    O1      19.520672   20.407425   23.990915 O.co2      1 MOL1        -0.6904
       3    O2      20.957149   21.705528   23.090206 O.co2      1 MOL1        -0.6904
       4    C2      20.452907   19.743090   21.903634 C.3        1 MOL1        -0.2102
       5    H1      21.512954   19.469057   21.844102 H          1 MOL1         0.0687
       6    H2      20.218304   20.313791   20.997214 H          1 MOL1         0.0687
       7    C3      19.583417   18.459520   21.952546 C.3        1 MOL1        -0.1974
       8    H3      19.817967   17.890556   22.863052 H          1 MOL1         0.0689
       9    H4      18.521717   18.736328   22.015199 H          1 MOL1         0.0689
      10    C4      19.812240   17.569154   20.714513 C.3        1 MOL1        -0.2987
      11    H5      20.861496   17.253014   20.646404 H          1 MOL1         0.0700
      12    H6      19.189145   16.666789   20.766917 H          1 MOL1         0.0700
      13    H7      19.554884   18.105610   19.791742 H          1 MOL1         0.0700
@<TRIPOS>BOND
    1     1     2    1
    2     1     3    2
    3     1     4    1
    4     4     5    1
    5     4     6    1
    6     4     7    1
    7     7     8    1
    8     7     9    1
    9     7    10    1
   10    10    11    1
   11    10    12    1
   12    10    13    1
@<TRIPOS>SUBSTRUCTURE
       1 MOL1            1 RESIDUE      1      MOL     
@<SCITEGIC>MOL_PROPERTY
VConf Rank
SciTegic.value.IntegerValue
577

@<SCITEGIC>MOL_PROPERTY
Conf_Id
SciTegic.value.IntegerValue
0

@<SCITEGIC>MOL_PROPERTY
Delta U+W
SciTegic.value.DoubleValue
0.000

@<SCITEGIC>MOL_PROPERTY
U+W
SciTegic.value.DoubleValue
-58.332

@<SCITEGIC>MOL_PROPERTY
Grad RMS
SciTegic.value.DoubleValue
0.000000

@<SCITEGIC>MOL_PROPERTY
U
SciTegic.value.DoubleValue
8.390

@<SCITEGIC>MOL_PROPERTY
W
SciTegic.value.DoubleValue
-66.722

@<SCITEGIC>MOL_PROPERTY
W(PB)
SciTegic.value.DoubleValue
-68.455

@<SCITEGIC>MOL_PROPERTY
W(SA)
SciTegic.value.DoubleValue
1.733

@<SCITEGIC>MOL_PROPERTY
Valence
SciTegic.value.DoubleValue
6.333

@<SCITEGIC>MOL_PROPERTY
Coulomb
SciTegic.value.DoubleValue
1.215

@<SCITEGIC>MOL_PROPERTY
VdW
SciTegic.value.DoubleValue
0.842

@<SCITEGIC>MOL_PROPERTY
VdW6
SciTegic.value.DoubleValue
-3.344

@<SCITEGIC>MOL_PROPERTY
VdW12
SciTegic.value.DoubleValue
4.186

@<SCITEGIC>MOL_PROPERTY
Bond
SciTegic.value.DoubleValue
0.091

@<SCITEGIC>MOL_PROPERTY
Angle
SciTegic.value.DoubleValue
2.713

@<SCITEGIC>MOL_PROPERTY
Pdih
SciTegic.value.DoubleValue
3.529

@<SCITEGIC>MOL_PROPERTY
Idih
SciTegic.value.DoubleValue
0.000

@<SCITEGIC>MOL_PROPERTY
Tether
SciTegic.value.DoubleValue
0.000

@<TRIPOS>MOLECULE
guest-6_confgen4.mol2 : confsearch ligand conformer 578
          13          12           1
SMALL
USER_CHARGES
 
@<TRIPOS>ATOM
       1    C1      18.543736   18.651825   20.342085 C.2        1 MOL1         0.6021
       2    O1      17.550076   19.349917   20.367954 O.co2      1 MOL1        -0.6904
       3    O2      18.572374   17.543443   19.846072 O.co2      1 MOL1        -0.6904
       4    C2      19.819002   19.188182   20.983581 C.3        1 MOL1        -0.2102
       5    H1      19.832341   20.277675   20.857696 H          1 MOL1         0.0687
       6    H2      20.675389   18.787961   20.427304 H          1 MOL1         0.0687
       7    C3      19.940488   18.823727   22.483001 C.3        1 MOL1        -0.1974
       8    H3      19.072842   19.220967   23.028175 H          1 MOL1         0.0689
       9    H4      19.916178   17.730988   22.597684 H          1 MOL1         0.0689
      10    C4      21.238763   19.379888   23.101432 C.3        1 MOL1        -0.2987
      11    H5      21.306934   19.111514   24.163783 H          1 MOL1         0.0700
      12    H6      22.122193   18.973324   22.591715 H          1 MOL1         0.0700
      13    H7      21.272361   20.474725   23.025539 H          1 MOL1         0.0700
@<TRIPOS>BOND
    1     1     2    1
    2     1     3    2
    3     1     4    1
    4     4     5    1
    5     4     6    1
    6     4     7    1
    7     7     8    1
    8     7     9    1
    9     7    10    1
   10    10    11    1
   11    10    12    1
   12    10    13    1
@<TRIPOS>SUBSTRUCTURE
       1 MOL1            1 RESIDUE      1      MOL     
@<SCITEGIC>MOL_PROPERTY
VConf Rank
SciTegic.value.IntegerValue
578

@<SCITEGIC>MOL_PROPERTY
Conf_Id
SciTegic.value.IntegerValue
1

@<SCITEGIC>MOL_PROPERTY
Delta U+W
SciTegic.value.DoubleValue
-1.339

@<SCITEGIC>MOL_PROPERTY
U+W
SciTegic.value.DoubleValue
-59.672

@<SCITEGIC>MOL_PROPERTY
Grad RMS
SciTegic.value.DoubleValue
0.000000

@<SCITEGIC>MOL_PROPERTY
U
SciTegic.value.DoubleValue
7.389

@<SCITEGIC>MOL_PROPERTY
W
SciTegic.value.DoubleValue
-67.061

@<SCITEGIC>MOL_PROPERTY
W(PB)
SciTegic.value.DoubleValue
-68.767

@<SCITEGIC>MOL_PROPERTY
W(SA)
SciTegic.value.DoubleValue
1.707

@<SCITEGIC>MOL_PROPERTY
Valence
SciTegic.value.DoubleValue
5.822

@<SCITEGIC>MOL_PROPERTY
Coulomb
SciTegic.value.DoubleValue
1.255

@<SCITEGIC>MOL_PROPERTY
VdW
SciTegic.value.DoubleValue
0.312

@<SCITEGIC>MOL_PROPERTY
VdW6
SciTegic.value.DoubleValue
-3.061

@<SCITEGIC>MOL_PROPERTY
VdW12
SciTegic.value.DoubleValue
3.372

@<SCITEGIC>MOL_PROPERTY
Bond
SciTegic.value.DoubleValue
0.059

@<SCITEGIC>MOL_PROPERTY
Angle
SciTegic.value.DoubleValue
2.241

@<SCITEGIC>MOL_PROPERTY
Pdih
SciTegic.value.DoubleValue
3.522

@<SCITEGIC>MOL_PROPERTY
Idih
SciTegic.value.DoubleValue
0.000

@<SCITEGIC>MOL_PROPERTY
Tether
SciTegic.value.DoubleValue
0.000

@<TRIPOS>MOLECULE
guest-6_confgen4.mol2 : confsearch ligand conformer 579
          13          12           1
SMALL
USER_CHARGES
 
@<TRIPOS>ATOM
       1    C1      19.431844   17.440846   21.365570 C.2        1 MOL1         0.6021
       2    O1      19.992314   16.418786   21.708156 O.co2      1 MOL1        -0.6904
       3    O2      18.224540   17.546268   21.280678 O.co2      1 MOL1        -0.6904
       4    C2      20.293657   18.643140   20.988084 C.3        1 MOL1        -0.2102
       5    H1      19.681188   19.347475   20.411819 H          1 MOL1         0.0687
       6    H2      21.080330   18.282978   20.314425 H          1 MOL1         0.0687
       7    C3      20.941278   19.364586   22.197812 C.3        1 MOL1        -0.1974
       8    H3      21.518565   18.641658   22.791140 H          1 MOL1         0.0689
       9    H4      21.656133   20.113228   21.829859 H          1 MOL1         0.0689
      10    C4      19.899108   20.061967   23.096405 C.3        1 MOL1        -0.2987
      11    H5      19.192509   19.335114   23.518578 H          1 MOL1         0.0700
      12    H6      20.391417   20.578571   23.930579 H          1 MOL1         0.0700
      13    H7      19.325299   20.805391   22.527672 H          1 MOL1         0.0700
@<TRIPOS>BOND
    1     1     2    1
    2     1     3    2
    3     1     4    1
    4     4     5    1
    5     4     6    1
    6     4     7    1
    7     7     8    1
    8     7     9    1
    9     7    10    1
   10    10    11    1
   11    10    12    1
   12    10    13    1
@<TRIPOS>SUBSTRUCTURE
       1 MOL1            1 RESIDUE      1      MOL     
@<SCITEGIC>MOL_PROPERTY
VConf Rank
SciTegic.value.IntegerValue
579

@<SCITEGIC>MOL_PROPERTY
Conf_Id
SciTegic.value.IntegerValue
4

@<SCITEGIC>MOL_PROPERTY
Delta U+W
SciTegic.value.DoubleValue
0.281

@<SCITEGIC>MOL_PROPERTY
U+W
SciTegic.value.DoubleValue
-58.051

@<SCITEGIC>MOL_PROPERTY
Grad RMS
SciTegic.value.DoubleValue
0.000000

@<SCITEGIC>MOL_PROPERTY
U
SciTegic.value.DoubleValue
9.781

@<SCITEGIC>MOL_PROPERTY
W
SciTegic.value.DoubleValue
-67.832

@<SCITEGIC>MOL_PROPERTY
W(PB)
SciTegic.value.DoubleValue
-69.535

@<SCITEGIC>MOL_PROPERTY
W(SA)
SciTegic.value.DoubleValue
1.703

@<SCITEGIC>MOL_PROPERTY
Valence
SciTegic.value.DoubleValue
6.123

@<SCITEGIC>MOL_PROPERTY
Coulomb
SciTegic.value.DoubleValue
3.449

@<SCITEGIC>MOL_PROPERTY
VdW
SciTegic.value.DoubleValue
0.209

@<SCITEGIC>MOL_PROPERTY
VdW6
SciTegic.value.DoubleValue
-3.762

@<SCITEGIC>MOL_PROPERTY
VdW12
SciTegic.value.DoubleValue
3.972

@<SCITEGIC>MOL_PROPERTY
Bond
SciTegic.value.DoubleValue
0.078

@<SCITEGIC>MOL_PROPERTY
Angle
SciTegic.value.DoubleValue
2.428

@<SCITEGIC>MOL_PROPERTY
Pdih
SciTegic.value.DoubleValue
3.616

@<SCITEGIC>MOL_PROPERTY
Idih
SciTegic.value.DoubleValue
0.002

@<SCITEGIC>MOL_PROPERTY
Tether
SciTegic.value.DoubleValue
0.000

@<TRIPOS>MOLECULE
guest-6_confgen4.mol2 : confsearch ligand conformer 580
          13          12           1
SMALL
USER_CHARGES
 
@<TRIPOS>ATOM
       1    C1      18.698572   18.235116   22.810220 C.2        1 MOL1         0.6021
       2    O1      19.075047   17.431750   23.640144 O.co2      1 MOL1        -0.6904
       3    O2      17.740246   18.964458   22.970747 O.co2      1 MOL1        -0.6904
       4    C2      19.445311   18.309034   21.480693 C.3        1 MOL1        -0.2102
       5    H1      18.694031   18.290256   20.682188 H          1 MOL1         0.0687
       6    H2      20.051127   17.401654   21.366963 H          1 MOL1         0.0687
       7    C3      20.335178   19.568490   21.321802 C.3        1 MOL1        -0.1974
       8    H3      20.710545   19.616164   20.290444 H          1 MOL1         0.0689
       9    H4      19.727125   20.470509   21.478501 H          1 MOL1         0.0689
      10    C4      21.532594   19.571869   22.294483 C.3        1 MOL1        -0.2987
      11    H5      22.166539   18.688978   22.139539 H          1 MOL1         0.0700
      12    H6      22.151849   20.465484   22.142591 H          1 MOL1         0.0700
      13    H7      21.192847   19.569413   23.338702 H          1 MOL1         0.0700
@<TRIPOS>BOND
    1     1     2    1
    2     1     3    2
    3     1     4    1
    4     4     5    1
    5     4     6    1
    6     4     7    1
    7     7     8    1
    8     7     9    1
    9     7    10    1
   10    10    11    1
   11    10    12    1
   12    10    13    1
@<TRIPOS>SUBSTRUCTURE
       1 MOL1            1 RESIDUE      1      MOL     
@<SCITEGIC>MOL_PROPERTY
VConf Rank
SciTegic.value.IntegerValue
580

@<SCITEGIC>MOL_PROPERTY
Conf_Id
SciTegic.value.IntegerValue
36

@<SCITEGIC>MOL_PROPERTY
Delta U+W
SciTegic.value.DoubleValue
0.272

@<SCITEGIC>MOL_PROPERTY
U+W
SciTegic.value.DoubleValue
-58.060

@<SCITEGIC>MOL_PROPERTY
Grad RMS
SciTegic.value.DoubleValue
0.000000

@<SCITEGIC>MOL_PROPERTY
U
SciTegic.value.DoubleValue
9.781

@<SCITEGIC>MOL_PROPERTY
W
SciTegic.value.DoubleValue
-67.841

@<SCITEGIC>MOL_PROPERTY
W(PB)
SciTegic.value.DoubleValue
-69.537

@<SCITEGIC>MOL_PROPERTY
W(SA)
SciTegic.value.DoubleValue
1.696

@<SCITEGIC>MOL_PROPERTY
Valence
SciTegic.value.DoubleValue
6.123

@<SCITEGIC>MOL_PROPERTY
Coulomb
SciTegic.value.DoubleValue
3.449

@<SCITEGIC>MOL_PROPERTY
VdW
SciTegic.value.DoubleValue
0.209

@<SCITEGIC>MOL_PROPERTY
VdW6
SciTegic.value.DoubleValue
-3.762

@<SCITEGIC>MOL_PROPERTY
VdW12
SciTegic.value.DoubleValue
3.972

@<SCITEGIC>MOL_PROPERTY
Bond
SciTegic.value.DoubleValue
0.078

@<SCITEGIC>MOL_PROPERTY
Angle
SciTegic.value.DoubleValue
2.428

@<SCITEGIC>MOL_PROPERTY
Pdih
SciTegic.value.DoubleValue
3.616

@<SCITEGIC>MOL_PROPERTY
Idih
SciTegic.value.DoubleValue
0.002

@<SCITEGIC>MOL_PROPERTY
Tether
SciTegic.value.DoubleValue
0.000

@<TRIPOS>MOLECULE
guest-6_confgen4.mol2 : confsearch ligand conformer 581
          13          12           1
SMALL
USER_CHARGES
 
@<TRIPOS>ATOM
       1    C1      18.855958   19.011680   23.605881 C.2        1 MOL1         0.6021
       2    O1      18.658482   20.204975   23.725790 O.co2      1 MOL1        -0.6904
       3    O2      18.427125   18.188398   24.388892 O.co2      1 MOL1        -0.6904
       4    C2      19.678749   18.491650   22.425515 C.3        1 MOL1        -0.2102
       5    H1      19.051525   17.778221   21.877841 H          1 MOL1         0.0687
       6    H2      20.522247   17.925458   22.838160 H          1 MOL1         0.0687
       7    C3      20.205319   19.578720   21.452396 C.3        1 MOL1        -0.1974
       8    H3      19.358693   20.146836   21.042245 H          1 MOL1         0.0689
       9    H4      20.831169   20.294305   22.003762 H          1 MOL1         0.0689
      10    C4      21.020956   18.962664   20.297820 C.3        1 MOL1        -0.2987
      11    H5      20.407555   18.265900   19.711491 H          1 MOL1         0.0700
      12    H6      21.384790   19.746331   19.620510 H          1 MOL1         0.0700
      13    H7      21.891826   18.414508   20.680747 H          1 MOL1         0.0700
@<TRIPOS>BOND
    1     1     2    1
    2     1     3    2
    3     1     4    1
    4     4     5    1
    5     4     6    1
    6     4     7    1
    7     7     8    1
    8     7     9    1
    9     7    10    1
   10    10    11    1
   11    10    12    1
   12    10    13    1
@<TRIPOS>SUBSTRUCTURE
       1 MOL1            1 RESIDUE      1      MOL     
@<SCITEGIC>MOL_PROPERTY
VConf Rank
SciTegic.value.IntegerValue
581

@<SCITEGIC>MOL_PROPERTY
Conf_Id
SciTegic.value.IntegerValue
0

@<SCITEGIC>MOL_PROPERTY
Delta U+W
SciTegic.value.DoubleValue
0.000

@<SCITEGIC>MOL_PROPERTY
U+W
SciTegic.value.DoubleValue
-58.332

@<SCITEGIC>MOL_PROPERTY
Grad RMS
SciTegic.value.DoubleValue
0.000000

@<SCITEGIC>MOL_PROPERTY
U
SciTegic.value.DoubleValue
8.390

@<SCITEGIC>MOL_PROPERTY
W
SciTegic.value.DoubleValue
-66.722

@<SCITEGIC>MOL_PROPERTY
W(PB)
SciTegic.value.DoubleValue
-68.455

@<SCITEGIC>MOL_PROPERTY
W(SA)
SciTegic.value.DoubleValue
1.733

@<SCITEGIC>MOL_PROPERTY
Valence
SciTegic.value.DoubleValue
6.333

@<SCITEGIC>MOL_PROPERTY
Coulomb
SciTegic.value.DoubleValue
1.215

@<SCITEGIC>MOL_PROPERTY
VdW
SciTegic.value.DoubleValue
0.842

@<SCITEGIC>MOL_PROPERTY
VdW6
SciTegic.value.DoubleValue
-3.344

@<SCITEGIC>MOL_PROPERTY
VdW12
SciTegic.value.DoubleValue
4.186

@<SCITEGIC>MOL_PROPERTY
Bond
SciTegic.value.DoubleValue
0.091

@<SCITEGIC>MOL_PROPERTY
Angle
SciTegic.value.DoubleValue
2.713

@<SCITEGIC>MOL_PROPERTY
Pdih
SciTegic.value.DoubleValue
3.529

@<SCITEGIC>MOL_PROPERTY
Idih
SciTegic.value.DoubleValue
0.000

@<SCITEGIC>MOL_PROPERTY
Tether
SciTegic.value.DoubleValue
0.000

@<TRIPOS>MOLECULE
guest-6_confgen4.mol2 : confsearch ligand conformer 582
          13          12           1
SMALL
USER_CHARGES
 
@<TRIPOS>ATOM
       1    C1      20.974201   17.340850   22.609751 C.2        1 MOL1         0.6021
       2    O1      22.188271   17.370810   22.587437 O.co2      1 MOL1        -0.6904
       3    O2      20.328627   16.312167   22.629907 O.co2      1 MOL1        -0.6904
       4    C2      20.219515   18.665860   22.592514 C.3        1 MOL1        -0.2102
       5    H1      20.823813   19.409898   23.125664 H          1 MOL1         0.0687
       6    H2      19.290248   18.536880   23.160708 H          1 MOL1         0.0687
       7    C3      19.903898   19.162803   21.160982 C.3        1 MOL1        -0.1974
       8    H3      20.840852   19.278816   20.598418 H          1 MOL1         0.0689
       9    H4      19.306900   18.405700   20.633524 H          1 MOL1         0.0689
      10    C4      19.141533   20.502878   21.177916 C.3        1 MOL1        -0.2987
      11    H5      18.926970   20.838668   20.154945 H          1 MOL1         0.0700
      12    H6      18.186054   20.404499   21.709835 H          1 MOL1         0.0700
      13    H7      19.731792   21.284309   21.674421 H          1 MOL1         0.0700
@<TRIPOS>BOND
    1     1     2    1
    2     1     3    2
    3     1     4    1
    4     4     5    1
    5     4     6    1
    6     4     7    1
    7     7     8    1
    8     7     9    1
    9     7    10    1
   10    10    11    1
   11    10    12    1
   12    10    13    1
@<TRIPOS>SUBSTRUCTURE
       1 MOL1            1 RESIDUE      1      MOL     
@<SCITEGIC>MOL_PROPERTY
VConf Rank
SciTegic.value.IntegerValue
582

@<SCITEGIC>MOL_PROPERTY
Conf_Id
SciTegic.value.IntegerValue
1

@<SCITEGIC>MOL_PROPERTY
Delta U+W
SciTegic.value.DoubleValue
-1.339

@<SCITEGIC>MOL_PROPERTY
U+W
SciTegic.value.DoubleValue
-59.672

@<SCITEGIC>MOL_PROPERTY
Grad RMS
SciTegic.value.DoubleValue
0.000000

@<SCITEGIC>MOL_PROPERTY
U
SciTegic.value.DoubleValue
7.389

@<SCITEGIC>MOL_PROPERTY
W
SciTegic.value.DoubleValue
-67.061

@<SCITEGIC>MOL_PROPERTY
W(PB)
SciTegic.value.DoubleValue
-68.767

@<SCITEGIC>MOL_PROPERTY
W(SA)
SciTegic.value.DoubleValue
1.707

@<SCITEGIC>MOL_PROPERTY
Valence
SciTegic.value.DoubleValue
5.822

@<SCITEGIC>MOL_PROPERTY
Coulomb
SciTegic.value.DoubleValue
1.255

@<SCITEGIC>MOL_PROPERTY
VdW
SciTegic.value.DoubleValue
0.312

@<SCITEGIC>MOL_PROPERTY
VdW6
SciTegic.value.DoubleValue
-3.061

@<SCITEGIC>MOL_PROPERTY
VdW12
SciTegic.value.DoubleValue
3.372

@<SCITEGIC>MOL_PROPERTY
Bond
SciTegic.value.DoubleValue
0.059

@<SCITEGIC>MOL_PROPERTY
Angle
SciTegic.value.DoubleValue
2.241

@<SCITEGIC>MOL_PROPERTY
Pdih
SciTegic.value.DoubleValue
3.522

@<SCITEGIC>MOL_PROPERTY
Idih
SciTegic.value.DoubleValue
0.000

@<SCITEGIC>MOL_PROPERTY
Tether
SciTegic.value.DoubleValue
0.000

@<TRIPOS>MOLECULE
guest-6_confgen4.mol2 : confsearch ligand conformer 583
          13          12           1
SMALL
USER_CHARGES
 
@<TRIPOS>ATOM
       1    C1      21.444914   19.849378   22.828759 C.2        1 MOL1         0.6021
       2    O1      22.264117   20.385648   22.109440 O.co2      1 MOL1        -0.6904
       3    O2      21.018733   20.352274   23.849234 O.co2      1 MOL1        -0.6904
       4    C2      20.953885   18.455214   22.446756 C.3        1 MOL1        -0.2102
       5    H1      20.491070   17.992218   23.326940 H          1 MOL1         0.0687
       6    H2      21.836908   17.853703   22.200098 H          1 MOL1         0.0687
       7    C3      19.966443   18.435472   21.251805 C.3        1 MOL1        -0.1974
       8    H3      20.424132   18.938128   20.388220 H          1 MOL1         0.0689
       9    H4      19.785557   17.394313   20.951569 H          1 MOL1         0.0689
      10    C4      18.617769   19.104129   21.589303 C.3        1 MOL1        -0.2987
      11    H5      18.756179   20.161361   21.851852 H          1 MOL1         0.0700
      12    H6      17.936216   19.055628   20.730100 H          1 MOL1         0.0700
      13    H7      18.132259   18.602541   22.436700 H          1 MOL1         0.0700
@<TRIPOS>BOND
    1     1     2    1
    2     1     3    2
    3     1     4    1
    4     4     5    1
    5     4     6    1
    6     4     7    1
    7     7     8    1
    8     7     9    1
    9     7    10    1
   10    10    11    1
   11    10    12    1
   12    10    13    1
@<TRIPOS>SUBSTRUCTURE
       1 MOL1            1 RESIDUE      1      MOL     
@<SCITEGIC>MOL_PROPERTY
VConf Rank
SciTegic.value.IntegerValue
583

@<SCITEGIC>MOL_PROPERTY
Conf_Id
SciTegic.value.IntegerValue
4

@<SCITEGIC>MOL_PROPERTY
Delta U+W
SciTegic.value.DoubleValue
0.281

@<SCITEGIC>MOL_PROPERTY
U+W
SciTegic.value.DoubleValue
-58.051

@<SCITEGIC>MOL_PROPERTY
Grad RMS
SciTegic.value.DoubleValue
0.000000

@<SCITEGIC>MOL_PROPERTY
U
SciTegic.value.DoubleValue
9.781

@<SCITEGIC>MOL_PROPERTY
W
SciTegic.value.DoubleValue
-67.832

@<SCITEGIC>MOL_PROPERTY
W(PB)
SciTegic.value.DoubleValue
-69.535

@<SCITEGIC>MOL_PROPERTY
W(SA)
SciTegic.value.DoubleValue
1.703

@<SCITEGIC>MOL_PROPERTY
Valence
SciTegic.value.DoubleValue
6.123

@<SCITEGIC>MOL_PROPERTY
Coulomb
SciTegic.value.DoubleValue
3.449

@<SCITEGIC>MOL_PROPERTY
VdW
SciTegic.value.DoubleValue
0.209

@<SCITEGIC>MOL_PROPERTY
VdW6
SciTegic.value.DoubleValue
-3.762

@<SCITEGIC>MOL_PROPERTY
VdW12
SciTegic.value.DoubleValue
3.972

@<SCITEGIC>MOL_PROPERTY
Bond
SciTegic.value.DoubleValue
0.078

@<SCITEGIC>MOL_PROPERTY
Angle
SciTegic.value.DoubleValue
2.428

@<SCITEGIC>MOL_PROPERTY
Pdih
SciTegic.value.DoubleValue
3.616

@<SCITEGIC>MOL_PROPERTY
Idih
SciTegic.value.DoubleValue
0.002

@<SCITEGIC>MOL_PROPERTY
Tether
SciTegic.value.DoubleValue
0.000

@<TRIPOS>MOLECULE
guest-6_confgen4.mol2 : confsearch ligand conformer 584
          13          12           1
SMALL
USER_CHARGES
 
@<TRIPOS>ATOM
       1    C1      21.687961   18.459831   21.300488 C.2        1 MOL1         0.6021
       2    O1      21.748039   18.803563   20.136811 O.co2      1 MOL1        -0.6904
       3    O2      22.639071   18.484827   22.056042 O.co2      1 MOL1        -0.6904
       4    C2      20.357532   17.934800   21.834367 C.3        1 MOL1        -0.2102
       5    H1      20.565537   17.000060   22.368577 H          1 MOL1         0.0687
       6    H2      19.714609   17.677133   20.983753 H          1 MOL1         0.0687
       7    C3      19.621713   18.917109   22.781455 C.3        1 MOL1        -0.1974
       8    H3      18.760890   18.405115   23.232807 H          1 MOL1         0.0689
       9    H4      20.288929   19.200894   23.607415 H          1 MOL1         0.0689
      10    C4      19.128708   20.183507   22.051311 C.3        1 MOL1        -0.2987
      11    H5      18.442090   19.923602   21.234981 H          1 MOL1         0.0700
      12    H6      18.596053   20.847204   22.744767 H          1 MOL1         0.0700
      13    H7      19.969879   20.745531   21.624244 H          1 MOL1         0.0700
@<TRIPOS>BOND
    1     1     2    1
    2     1     3    2
    3     1     4    1
    4     4     5    1
    5     4     6    1
    6     4     7    1
    7     7     8    1
    8     7     9    1
    9     7    10    1
   10    10    11    1
   11    10    12    1
   12    10    13    1
@<TRIPOS>SUBSTRUCTURE
       1 MOL1            1 RESIDUE      1      MOL     
@<SCITEGIC>MOL_PROPERTY
VConf Rank
SciTegic.value.IntegerValue
584

@<SCITEGIC>MOL_PROPERTY
Conf_Id
SciTegic.value.IntegerValue
36

@<SCITEGIC>MOL_PROPERTY
Delta U+W
SciTegic.value.DoubleValue
0.272

@<SCITEGIC>MOL_PROPERTY
U+W
SciTegic.value.DoubleValue
-58.060

@<SCITEGIC>MOL_PROPERTY
Grad RMS
SciTegic.value.DoubleValue
0.000000

@<SCITEGIC>MOL_PROPERTY
U
SciTegic.value.DoubleValue
9.781

@<SCITEGIC>MOL_PROPERTY
W
SciTegic.value.DoubleValue
-67.841

@<SCITEGIC>MOL_PROPERTY
W(PB)
SciTegic.value.DoubleValue
-69.537

@<SCITEGIC>MOL_PROPERTY
W(SA)
SciTegic.value.DoubleValue
1.696

@<SCITEGIC>MOL_PROPERTY
Valence
SciTegic.value.DoubleValue
6.123

@<SCITEGIC>MOL_PROPERTY
Coulomb
SciTegic.value.DoubleValue
3.449

@<SCITEGIC>MOL_PROPERTY
VdW
SciTegic.value.DoubleValue
0.209

@<SCITEGIC>MOL_PROPERTY
VdW6
SciTegic.value.DoubleValue
-3.762

@<SCITEGIC>MOL_PROPERTY
VdW12
SciTegic.value.DoubleValue
3.972

@<SCITEGIC>MOL_PROPERTY
Bond
SciTegic.value.DoubleValue
0.078

@<SCITEGIC>MOL_PROPERTY
Angle
SciTegic.value.DoubleValue
2.428

@<SCITEGIC>MOL_PROPERTY
Pdih
SciTegic.value.DoubleValue
3.616

@<SCITEGIC>MOL_PROPERTY
Idih
SciTegic.value.DoubleValue
0.002

@<SCITEGIC>MOL_PROPERTY
Tether
SciTegic.value.DoubleValue
0.000

@<TRIPOS>MOLECULE
guest-6_confgen4.mol2 : confsearch ligand conformer 585
          13          12           1
SMALL
USER_CHARGES
 
@<TRIPOS>ATOM
       1    C1      19.615116   21.093745   21.850400 C.2        1 MOL1         0.6021
       2    O1      18.433053   21.078175   22.132909 O.co2      1 MOL1        -0.6904
       3    O2      20.238128   22.120156   21.668375 O.co2      1 MOL1        -0.6904
       4    C2      20.381108   19.776828   21.710155 C.3        1 MOL1        -0.2102
       5    H1      21.220192   19.809065   22.415305 H          1 MOL1         0.0687
       6    H2      20.811026   19.753559   20.701708 H          1 MOL1         0.0687
       7    C3      19.544961   18.492844   21.951403 C.3        1 MOL1        -0.1974
       8    H3      19.112658   18.519508   22.961432 H          1 MOL1         0.0689
       9    H4      18.702937   18.463969   21.245772 H          1 MOL1         0.0689
      10    C4      20.398192   17.218710   21.788881 C.3        1 MOL1        -0.2987
      11    H5      21.229981   17.208779   22.505505 H          1 MOL1         0.0700
      12    H6      19.790030   16.321473   21.963128 H          1 MOL1         0.0700
      13    H7      20.817010   17.152832   20.776076 H          1 MOL1         0.0700
@<TRIPOS>BOND
    1     1     2    1
    2     1     3    2
    3     1     4    1
    4     4     5    1
    5     4     6    1
    6     4     7    1
    7     7     8    1
    8     7     9    1
    9     7    10    1
   10    10    11    1
   11    10    12    1
   12    10    13    1
@<TRIPOS>SUBSTRUCTURE
       1 MOL1            1 RESIDUE      1      MOL     
@<SCITEGIC>MOL_PROPERTY
VConf Rank
SciTegic.value.IntegerValue
585

@<SCITEGIC>MOL_PROPERTY
Conf_Id
SciTegic.value.IntegerValue
0

@<SCITEGIC>MOL_PROPERTY
Delta U+W
SciTegic.value.DoubleValue
0.000

@<SCITEGIC>MOL_PROPERTY
U+W
SciTegic.value.DoubleValue
-58.332

@<SCITEGIC>MOL_PROPERTY
Grad RMS
SciTegic.value.DoubleValue
0.000000

@<SCITEGIC>MOL_PROPERTY
U
SciTegic.value.DoubleValue
8.390

@<SCITEGIC>MOL_PROPERTY
W
SciTegic.value.DoubleValue
-66.722

@<SCITEGIC>MOL_PROPERTY
W(PB)
SciTegic.value.DoubleValue
-68.455

@<SCITEGIC>MOL_PROPERTY
W(SA)
SciTegic.value.DoubleValue
1.733

@<SCITEGIC>MOL_PROPERTY
Valence
SciTegic.value.DoubleValue
6.333

@<SCITEGIC>MOL_PROPERTY
Coulomb
SciTegic.value.DoubleValue
1.215

@<SCITEGIC>MOL_PROPERTY
VdW
SciTegic.value.DoubleValue
0.842

@<SCITEGIC>MOL_PROPERTY
VdW6
SciTegic.value.DoubleValue
-3.344

@<SCITEGIC>MOL_PROPERTY
VdW12
SciTegic.value.DoubleValue
4.186

@<SCITEGIC>MOL_PROPERTY
Bond
SciTegic.value.DoubleValue
0.091

@<SCITEGIC>MOL_PROPERTY
Angle
SciTegic.value.DoubleValue
2.713

@<SCITEGIC>MOL_PROPERTY
Pdih
SciTegic.value.DoubleValue
3.529

@<SCITEGIC>MOL_PROPERTY
Idih
SciTegic.value.DoubleValue
0.000

@<SCITEGIC>MOL_PROPERTY
Tether
SciTegic.value.DoubleValue
0.000

@<TRIPOS>MOLECULE
guest-6_confgen4.mol2 : confsearch ligand conformer 586
          13          12           1
SMALL
USER_CHARGES
 
@<TRIPOS>ATOM
       1    C1      17.914468   18.732504   21.586111 C.2        1 MOL1         0.6021
       2    O1      17.267870   18.612757   22.607352 O.co2      1 MOL1        -0.6904
       3    O2      17.564966   18.281442   20.513846 O.co2      1 MOL1        -0.6904
       4    C2      19.245792   19.472721   21.657897 C.3        1 MOL1        -0.2102
       5    H1      19.162026   20.252325   22.424853 H          1 MOL1         0.0687
       6    H2      19.407017   19.979120   20.698425 H          1 MOL1         0.0687
       7    C3      20.439474   18.539734   21.974925 C.3        1 MOL1        -0.1974
       8    H3      20.262461   18.030715   22.932728 H          1 MOL1         0.0689
       9    H4      20.507572   17.757550   21.205917 H          1 MOL1         0.0689
      10    C4      21.769125   19.317552   22.040626 C.3        1 MOL1        -0.2987
      11    H5      22.602848   18.639833   22.266158 H          1 MOL1         0.0700
      12    H6      21.983022   19.811330   21.083554 H          1 MOL1         0.0700
      13    H7      21.736035   20.086554   22.823632 H          1 MOL1         0.0700
@<TRIPOS>BOND
    1     1     2    1
    2     1     3    2
    3     1     4    1
    4     4     5    1
    5     4     6    1
    6     4     7    1
    7     7     8    1
    8     7     9    1
    9     7    10    1
   10    10    11    1
   11    10    12    1
   12    10    13    1
@<TRIPOS>SUBSTRUCTURE
       1 MOL1            1 RESIDUE      1      MOL     
@<SCITEGIC>MOL_PROPERTY
VConf Rank
SciTegic.value.IntegerValue
586

@<SCITEGIC>MOL_PROPERTY
Conf_Id
SciTegic.value.IntegerValue
1

@<SCITEGIC>MOL_PROPERTY
Delta U+W
SciTegic.value.DoubleValue
-1.339

@<SCITEGIC>MOL_PROPERTY
U+W
SciTegic.value.DoubleValue
-59.672

@<SCITEGIC>MOL_PROPERTY
Grad RMS
SciTegic.value.DoubleValue
0.000000

@<SCITEGIC>MOL_PROPERTY
U
SciTegic.value.DoubleValue
7.389

@<SCITEGIC>MOL_PROPERTY
W
SciTegic.value.DoubleValue
-67.061

@<SCITEGIC>MOL_PROPERTY
W(PB)
SciTegic.value.DoubleValue
-68.767

@<SCITEGIC>MOL_PROPERTY
W(SA)
SciTegic.value.DoubleValue
1.707

@<SCITEGIC>MOL_PROPERTY
Valence
SciTegic.value.DoubleValue
5.822

@<SCITEGIC>MOL_PROPERTY
Coulomb
SciTegic.value.DoubleValue
1.255

@<SCITEGIC>MOL_PROPERTY
VdW
SciTegic.value.DoubleValue
0.312

@<SCITEGIC>MOL_PROPERTY
VdW6
SciTegic.value.DoubleValue
-3.061

@<SCITEGIC>MOL_PROPERTY
VdW12
SciTegic.value.DoubleValue
3.372

@<SCITEGIC>MOL_PROPERTY
Bond
SciTegic.value.DoubleValue
0.059

@<SCITEGIC>MOL_PROPERTY
Angle
SciTegic.value.DoubleValue
2.241

@<SCITEGIC>MOL_PROPERTY
Pdih
SciTegic.value.DoubleValue
3.522

@<SCITEGIC>MOL_PROPERTY
Idih
SciTegic.value.DoubleValue
0.000

@<SCITEGIC>MOL_PROPERTY
Tether
SciTegic.value.DoubleValue
0.000

@<TRIPOS>MOLECULE
guest-6_confgen4.mol2 : confsearch ligand conformer 587
          13          12           1
SMALL
USER_CHARGES
 
@<TRIPOS>ATOM
       1    C1      20.442569   18.395332   23.665052 C.2        1 MOL1         0.6021
       2    O1      21.372767   18.922656   24.241905 O.co2      1 MOL1        -0.6904
       3    O2      19.391711   18.114502   24.206104 O.co2      1 MOL1        -0.6904
       4    C2      20.619375   18.035292   22.192015 C.3        1 MOL1        -0.2102
       5    H1      19.851537   17.302616   21.914710 H          1 MOL1         0.0687
       6    H2      21.588261   17.531559   22.092513 H          1 MOL1         0.0687
       7    C3      20.569205   19.250846   21.231156 C.3        1 MOL1        -0.1974
       8    H3      21.313903   19.996742   21.542585 H          1 MOL1         0.0689
       9    H4      20.853360   18.923610   20.221678 H          1 MOL1         0.0689
      10    C4      19.171694   19.901808   21.175111 C.3        1 MOL1        -0.2987
      11    H5      18.873272   20.281386   22.161362 H          1 MOL1         0.0700
      12    H6      19.165664   20.745126   20.472349 H          1 MOL1         0.0700
      13    H7      18.414866   19.178535   20.844235 H          1 MOL1         0.0700
@<TRIPOS>BOND
    1     1     2    1
    2     1     3    2
    3     1     4    1
    4     4     5    1
    5     4     6    1
    6     4     7    1
    7     7     8    1
    8     7     9    1
    9     7    10    1
   10    10    11    1
   11    10    12    1
   12    10    13    1
@<TRIPOS>SUBSTRUCTURE
       1 MOL1            1 RESIDUE      1      MOL     
@<SCITEGIC>MOL_PROPERTY
VConf Rank
SciTegic.value.IntegerValue
587

@<SCITEGIC>MOL_PROPERTY
Conf_Id
SciTegic.value.IntegerValue
4

@<SCITEGIC>MOL_PROPERTY
Delta U+W
SciTegic.value.DoubleValue
0.281

@<SCITEGIC>MOL_PROPERTY
U+W
SciTegic.value.DoubleValue
-58.051

@<SCITEGIC>MOL_PROPERTY
Grad RMS
SciTegic.value.DoubleValue
0.000000

@<SCITEGIC>MOL_PROPERTY
U
SciTegic.value.DoubleValue
9.781

@<SCITEGIC>MOL_PROPERTY
W
SciTegic.value.DoubleValue
-67.832

@<SCITEGIC>MOL_PROPERTY
W(PB)
SciTegic.value.DoubleValue
-69.535

@<SCITEGIC>MOL_PROPERTY
W(SA)
SciTegic.value.DoubleValue
1.703

@<SCITEGIC>MOL_PROPERTY
Valence
SciTegic.value.DoubleValue
6.123

@<SCITEGIC>MOL_PROPERTY
Coulomb
SciTegic.value.DoubleValue
3.449

@<SCITEGIC>MOL_PROPERTY
VdW
SciTegic.value.DoubleValue
0.209

@<SCITEGIC>MOL_PROPERTY
VdW6
SciTegic.value.DoubleValue
-3.762

@<SCITEGIC>MOL_PROPERTY
VdW12
SciTegic.value.DoubleValue
3.972

@<SCITEGIC>MOL_PROPERTY
Bond
SciTegic.value.DoubleValue
0.078

@<SCITEGIC>MOL_PROPERTY
Angle
SciTegic.value.DoubleValue
2.428

@<SCITEGIC>MOL_PROPERTY
Pdih
SciTegic.value.DoubleValue
3.616

@<SCITEGIC>MOL_PROPERTY
Idih
SciTegic.value.DoubleValue
0.002

@<SCITEGIC>MOL_PROPERTY
Tether
SciTegic.value.DoubleValue
0.000

@<TRIPOS>MOLECULE
guest-6_confgen4.mol2 : confsearch ligand conformer 588
          13          12           1
SMALL
USER_CHARGES
 
@<TRIPOS>ATOM
       1    C1      21.415814   18.946390   23.230959 C.2        1 MOL1         0.6021
       2    O1      20.925459   18.829074   24.336262 O.co2      1 MOL1        -0.6904
       3    O2      22.456811   18.414315   22.900324 O.co2      1 MOL1        -0.6904
       4    C2      20.707420   19.837382   22.213592 C.3        1 MOL1        -0.2102
       5    H1      21.463576   20.501168   21.777699 H          1 MOL1         0.0687
       6    H2      19.992372   20.477565   22.744779 H          1 MOL1         0.0687
       7    C3      19.989071   19.060157   21.080793 C.3        1 MOL1        -0.1974
       8    H3      19.640501   19.772489   20.320560 H          1 MOL1         0.0689
       9    H4      20.704919   18.391554   20.582344 H          1 MOL1         0.0689
      10    C4      18.785586   18.243996   21.595992 C.3        1 MOL1        -0.2987
      11    H5      18.046483   18.896783   22.078681 H          1 MOL1         0.0700
      12    H6      18.288591   17.722686   20.767543 H          1 MOL1         0.0700
      13    H7      19.104408   17.489615   22.327489 H          1 MOL1         0.0700
@<TRIPOS>BOND
    1     1     2    1
    2     1     3    2
    3     1     4    1
    4     4     5    1
    5     4     6    1
    6     4     7    1
    7     7     8    1
    8     7     9    1
    9     7    10    1
   10    10    11    1
   11    10    12    1
   12    10    13    1
@<TRIPOS>SUBSTRUCTURE
       1 MOL1            1 RESIDUE      1      MOL     
@<SCITEGIC>MOL_PROPERTY
VConf Rank
SciTegic.value.IntegerValue
588

@<SCITEGIC>MOL_PROPERTY
Conf_Id
SciTegic.value.IntegerValue
36

@<SCITEGIC>MOL_PROPERTY
Delta U+W
SciTegic.value.DoubleValue
0.272

@<SCITEGIC>MOL_PROPERTY
U+W
SciTegic.value.DoubleValue
-58.060

@<SCITEGIC>MOL_PROPERTY
Grad RMS
SciTegic.value.DoubleValue
0.000000

@<SCITEGIC>MOL_PROPERTY
U
SciTegic.value.DoubleValue
9.781

@<SCITEGIC>MOL_PROPERTY
W
SciTegic.value.DoubleValue
-67.841

@<SCITEGIC>MOL_PROPERTY
W(PB)
SciTegic.value.DoubleValue
-69.537

@<SCITEGIC>MOL_PROPERTY
W(SA)
SciTegic.value.DoubleValue
1.696

@<SCITEGIC>MOL_PROPERTY
Valence
SciTegic.value.DoubleValue
6.123

@<SCITEGIC>MOL_PROPERTY
Coulomb
SciTegic.value.DoubleValue
3.449

@<SCITEGIC>MOL_PROPERTY
VdW
SciTegic.value.DoubleValue
0.209

@<SCITEGIC>MOL_PROPERTY
VdW6
SciTegic.value.DoubleValue
-3.762

@<SCITEGIC>MOL_PROPERTY
VdW12
SciTegic.value.DoubleValue
3.972

@<SCITEGIC>MOL_PROPERTY
Bond
SciTegic.value.DoubleValue
0.078

@<SCITEGIC>MOL_PROPERTY
Angle
SciTegic.value.DoubleValue
2.428

@<SCITEGIC>MOL_PROPERTY
Pdih
SciTegic.value.DoubleValue
3.616

@<SCITEGIC>MOL_PROPERTY
Idih
SciTegic.value.DoubleValue
0.002

@<SCITEGIC>MOL_PROPERTY
Tether
SciTegic.value.DoubleValue
0.000

@<TRIPOS>MOLECULE
guest-6_confgen4.mol2 : confsearch ligand conformer 589
          13          12           1
SMALL
USER_CHARGES
 
@<TRIPOS>ATOM
       1    C1      21.016385   17.415169   22.843620 C.2        1 MOL1         0.6021
       2    O1      20.114357   17.021300   23.556740 O.co2      1 MOL1        -0.6904
       3    O2      22.124997   16.919412   22.844869 O.co2      1 MOL1        -0.6904
       4    C2      20.775843   18.587297   21.890237 C.3        1 MOL1        -0.2102
       5    H1      21.006399   18.238009   20.876738 H          1 MOL1         0.0687
       6    H2      21.508963   19.364951   22.135446 H          1 MOL1         0.0687
       7    C3      19.346160   19.188024   21.923216 C.3        1 MOL1        -0.1974
       8    H3      18.612828   18.406447   21.680076 H          1 MOL1         0.0689
       9    H4      19.115976   19.534711   22.940358 H          1 MOL1         0.0689
      10    C4      19.198115   20.360510   20.932664 C.3        1 MOL1        -0.2987
      11    H5      19.393039   20.032187   19.903232 H          1 MOL1         0.0700
      12    H6      18.181059   20.772143   20.970243 H          1 MOL1         0.0700
      13    H7      19.900273   21.169486   21.173613 H          1 MOL1         0.0700
@<TRIPOS>BOND
    1     1     2    1
    2     1     3    2
    3     1     4    1
    4     4     5    1
    5     4     6    1
    6     4     7    1
    7     7     8    1
    8     7     9    1
    9     7    10    1
   10    10    11    1
   11    10    12    1
   12    10    13    1
@<TRIPOS>SUBSTRUCTURE
       1 MOL1            1 RESIDUE      1      MOL     
@<SCITEGIC>MOL_PROPERTY
VConf Rank
SciTegic.value.IntegerValue
589

@<SCITEGIC>MOL_PROPERTY
Conf_Id
SciTegic.value.IntegerValue
0

@<SCITEGIC>MOL_PROPERTY
Delta U+W
SciTegic.value.DoubleValue
0.000

@<SCITEGIC>MOL_PROPERTY
U+W
SciTegic.value.DoubleValue
-58.332

@<SCITEGIC>MOL_PROPERTY
Grad RMS
SciTegic.value.DoubleValue
0.000000

@<SCITEGIC>MOL_PROPERTY
U
SciTegic.value.DoubleValue
8.390

@<SCITEGIC>MOL_PROPERTY
W
SciTegic.value.DoubleValue
-66.722

@<SCITEGIC>MOL_PROPERTY
W(PB)
SciTegic.value.DoubleValue
-68.455

@<SCITEGIC>MOL_PROPERTY
W(SA)
SciTegic.value.DoubleValue
1.733

@<SCITEGIC>MOL_PROPERTY
Valence
SciTegic.value.DoubleValue
6.333

@<SCITEGIC>MOL_PROPERTY
Coulomb
SciTegic.value.DoubleValue
1.215

@<SCITEGIC>MOL_PROPERTY
VdW
SciTegic.value.DoubleValue
0.842

@<SCITEGIC>MOL_PROPERTY
VdW6
SciTegic.value.DoubleValue
-3.344

@<SCITEGIC>MOL_PROPERTY
VdW12
SciTegic.value.DoubleValue
4.186

@<SCITEGIC>MOL_PROPERTY
Bond
SciTegic.value.DoubleValue
0.091

@<SCITEGIC>MOL_PROPERTY
Angle
SciTegic.value.DoubleValue
2.713

@<SCITEGIC>MOL_PROPERTY
Pdih
SciTegic.value.DoubleValue
3.529

@<SCITEGIC>MOL_PROPERTY
Idih
SciTegic.value.DoubleValue
0.000

@<SCITEGIC>MOL_PROPERTY
Tether
SciTegic.value.DoubleValue
0.000

@<TRIPOS>MOLECULE
guest-6_confgen4.mol2 : confsearch ligand conformer 590
          13          12           1
SMALL
USER_CHARGES
 
@<TRIPOS>ATOM
       1    C1      19.818374   20.776897   20.643476 C.2        1 MOL1         0.6021
       2    O1      20.819930   21.115175   20.045300 O.co2      1 MOL1        -0.6904
       3    O2      18.925076   21.543218   20.943692 O.co2      1 MOL1        -0.6904
       4    C2      19.683882   19.315057   21.056315 C.3        1 MOL1        -0.2102
       5    H1      20.181864   18.698889   20.297783 H          1 MOL1         0.0687
       6    H2      18.619250   19.051876   21.038629 H          1 MOL1         0.0687
       7    C3      20.281158   19.024710   22.454460 C.3        1 MOL1        -0.1974
       8    H3      21.344766   19.301261   22.463250 H          1 MOL1         0.0689
       9    H4      19.781777   19.654212   23.204239 H          1 MOL1         0.0689
      10    C4      20.129610   17.540064   22.841950 C.3        1 MOL1        -0.2987
      11    H5      20.558479   17.353941   23.835274 H          1 MOL1         0.0700
      12    H6      19.071749   17.247240   22.869152 H          1 MOL1         0.0700
      13    H7      20.646760   16.891598   22.122502 H          1 MOL1         0.0700
@<TRIPOS>BOND
    1     1     2    1
    2     1     3    2
    3     1     4    1
    4     4     5    1
    5     4     6    1
    6     4     7    1
    7     7     8    1
    8     7     9    1
    9     7    10    1
   10    10    11    1
   11    10    12    1
   12    10    13    1
@<TRIPOS>SUBSTRUCTURE
       1 MOL1            1 RESIDUE      1      MOL     
@<SCITEGIC>MOL_PROPERTY
VConf Rank
SciTegic.value.IntegerValue
590

@<SCITEGIC>MOL_PROPERTY
Conf_Id
SciTegic.value.IntegerValue
1

@<SCITEGIC>MOL_PROPERTY
Delta U+W
SciTegic.value.DoubleValue
-1.339

@<SCITEGIC>MOL_PROPERTY
U+W
SciTegic.value.DoubleValue
-59.672

@<SCITEGIC>MOL_PROPERTY
Grad RMS
SciTegic.value.DoubleValue
0.000000

@<SCITEGIC>MOL_PROPERTY
U
SciTegic.value.DoubleValue
7.389

@<SCITEGIC>MOL_PROPERTY
W
SciTegic.value.DoubleValue
-67.061

@<SCITEGIC>MOL_PROPERTY
W(PB)
SciTegic.value.DoubleValue
-68.767

@<SCITEGIC>MOL_PROPERTY
W(SA)
SciTegic.value.DoubleValue
1.707

@<SCITEGIC>MOL_PROPERTY
Valence
SciTegic.value.DoubleValue
5.822

@<SCITEGIC>MOL_PROPERTY
Coulomb
SciTegic.value.DoubleValue
1.255

@<SCITEGIC>MOL_PROPERTY
VdW
SciTegic.value.DoubleValue
0.312

@<SCITEGIC>MOL_PROPERTY
VdW6
SciTegic.value.DoubleValue
-3.061

@<SCITEGIC>MOL_PROPERTY
VdW12
SciTegic.value.DoubleValue
3.372

@<SCITEGIC>MOL_PROPERTY
Bond
SciTegic.value.DoubleValue
0.059

@<SCITEGIC>MOL_PROPERTY
Angle
SciTegic.value.DoubleValue
2.241

@<SCITEGIC>MOL_PROPERTY
Pdih
SciTegic.value.DoubleValue
3.522

@<SCITEGIC>MOL_PROPERTY
Idih
SciTegic.value.DoubleValue
0.000

@<SCITEGIC>MOL_PROPERTY
Tether
SciTegic.value.DoubleValue
0.000

@<TRIPOS>MOLECULE
guest-6_confgen4.mol2 : confsearch ligand conformer 591
          13          12           1
SMALL
USER_CHARGES
 
@<TRIPOS>ATOM
       1    C1      18.392857   18.510395   22.018428 C.2        1 MOL1         0.6021
       2    O1      18.045724   17.696755   21.185609 O.co2      1 MOL1        -0.6904
       3    O2      17.985135   18.512780   23.162832 O.co2      1 MOL1        -0.6904
       4    C2      19.364946   19.607652   21.592048 C.3        1 MOL1        -0.2102
       5    H1      19.325715   20.418183   22.330145 H          1 MOL1         0.0687
       6    H2      18.995680   20.022358   20.646507 H          1 MOL1         0.0687
       7    C3      20.826257   19.124190   21.407188 C.3        1 MOL1        -0.1974
       8    H3      20.849062   18.285349   20.697436 H          1 MOL1         0.0689
       9    H4      21.418990   19.933190   20.958792 H          1 MOL1         0.0689
      10    C4      21.480110   18.698539   22.738063 C.3        1 MOL1        -0.2987
      11    H5      20.937663   17.859514   23.193713 H          1 MOL1         0.0700
      12    H6      22.518263   18.381172   22.574933 H          1 MOL1         0.0700
      13    H7      21.487782   19.529932   23.455083 H          1 MOL1         0.0700
@<TRIPOS>BOND
    1     1     2    1
    2     1     3    2
    3     1     4    1
    4     4     5    1
    5     4     6    1
    6     4     7    1
    7     7     8    1
    8     7     9    1
    9     7    10    1
   10    10    11    1
   11    10    12    1
   12    10    13    1
@<TRIPOS>SUBSTRUCTURE
       1 MOL1            1 RESIDUE      1      MOL     
@<SCITEGIC>MOL_PROPERTY
VConf Rank
SciTegic.value.IntegerValue
591

@<SCITEGIC>MOL_PROPERTY
Conf_Id
SciTegic.value.IntegerValue
4

@<SCITEGIC>MOL_PROPERTY
Delta U+W
SciTegic.value.DoubleValue
0.281

@<SCITEGIC>MOL_PROPERTY
U+W
SciTegic.value.DoubleValue
-58.051

@<SCITEGIC>MOL_PROPERTY
Grad RMS
SciTegic.value.DoubleValue
0.000000

@<SCITEGIC>MOL_PROPERTY
U
SciTegic.value.DoubleValue
9.781

@<SCITEGIC>MOL_PROPERTY
W
SciTegic.value.DoubleValue
-67.832

@<SCITEGIC>MOL_PROPERTY
W(PB)
SciTegic.value.DoubleValue
-69.535

@<SCITEGIC>MOL_PROPERTY
W(SA)
SciTegic.value.DoubleValue
1.703

@<SCITEGIC>MOL_PROPERTY
Valence
SciTegic.value.DoubleValue
6.123

@<SCITEGIC>MOL_PROPERTY
Coulomb
SciTegic.value.DoubleValue
3.449

@<SCITEGIC>MOL_PROPERTY
VdW
SciTegic.value.DoubleValue
0.209

@<SCITEGIC>MOL_PROPERTY
VdW6
SciTegic.value.DoubleValue
-3.762

@<SCITEGIC>MOL_PROPERTY
VdW12
SciTegic.value.DoubleValue
3.972

@<SCITEGIC>MOL_PROPERTY
Bond
SciTegic.value.DoubleValue
0.078

@<SCITEGIC>MOL_PROPERTY
Angle
SciTegic.value.DoubleValue
2.428

@<SCITEGIC>MOL_PROPERTY
Pdih
SciTegic.value.DoubleValue
3.616

@<SCITEGIC>MOL_PROPERTY
Idih
SciTegic.value.DoubleValue
0.002

@<SCITEGIC>MOL_PROPERTY
Tether
SciTegic.value.DoubleValue
0.000

@<TRIPOS>MOLECULE
guest-6_confgen4.mol2 : confsearch ligand conformer 592
          13          12           1
SMALL
USER_CHARGES
 
@<TRIPOS>ATOM
       1    C1      18.702504   20.048829   22.200800 C.2        1 MOL1         0.6021
       2    O1      17.846653   19.481490   22.850070 O.co2      1 MOL1        -0.6904
       3    O2      18.948000   21.233961   22.307059 O.co2      1 MOL1        -0.6904
       4    C2      19.487684   19.240070   21.171176 C.3        1 MOL1        -0.2102
       5    H1      19.485959   19.812094   20.235670 H          1 MOL1         0.0687
       6    H2      18.948024   18.306002   20.972253 H          1 MOL1         0.0687
       7    C3      20.949840   18.934021   21.585630 C.3        1 MOL1        -0.1974
       8    H3      21.479424   18.486848   20.733310 H          1 MOL1         0.0689
       9    H4      21.469169   19.873228   21.822505 H          1 MOL1         0.0689
      10    C4      21.033369   17.974256   22.790537 C.3        1 MOL1        -0.2987
      11    H5      20.539118   17.019737   22.566928 H          1 MOL1         0.0700
      12    H6      22.080137   17.763213   23.045159 H          1 MOL1         0.0700
      13    H7      20.551130   18.409424   23.675920 H          1 MOL1         0.0700
@<TRIPOS>BOND
    1     1     2    1
    2     1     3    2
    3     1     4    1
    4     4     5    1
    5     4     6    1
    6     4     7    1
    7     7     8    1
    8     7     9    1
    9     7    10    1
   10    10    11    1
   11    10    12    1
   12    10    13    1
@<TRIPOS>SUBSTRUCTURE
       1 MOL1            1 RESIDUE      1      MOL     
@<SCITEGIC>MOL_PROPERTY
VConf Rank
SciTegic.value.IntegerValue
592

@<SCITEGIC>MOL_PROPERTY
Conf_Id
SciTegic.value.IntegerValue
36

@<SCITEGIC>MOL_PROPERTY
Delta U+W
SciTegic.value.DoubleValue
0.272

@<SCITEGIC>MOL_PROPERTY
U+W
SciTegic.value.DoubleValue
-58.060

@<SCITEGIC>MOL_PROPERTY
Grad RMS
SciTegic.value.DoubleValue
0.000000

@<SCITEGIC>MOL_PROPERTY
U
SciTegic.value.DoubleValue
9.781

@<SCITEGIC>MOL_PROPERTY
W
SciTegic.value.DoubleValue
-67.841

@<SCITEGIC>MOL_PROPERTY
W(PB)
SciTegic.value.DoubleValue
-69.537

@<SCITEGIC>MOL_PROPERTY
W(SA)
SciTegic.value.DoubleValue
1.696

@<SCITEGIC>MOL_PROPERTY
Valence
SciTegic.value.DoubleValue
6.123

@<SCITEGIC>MOL_PROPERTY
Coulomb
SciTegic.value.DoubleValue
3.449

@<SCITEGIC>MOL_PROPERTY
VdW
SciTegic.value.DoubleValue
0.209

@<SCITEGIC>MOL_PROPERTY
VdW6
SciTegic.value.DoubleValue
-3.762

@<SCITEGIC>MOL_PROPERTY
VdW12
SciTegic.value.DoubleValue
3.972

@<SCITEGIC>MOL_PROPERTY
Bond
SciTegic.value.DoubleValue
0.078

@<SCITEGIC>MOL_PROPERTY
Angle
SciTegic.value.DoubleValue
2.428

@<SCITEGIC>MOL_PROPERTY
Pdih
SciTegic.value.DoubleValue
3.616

@<SCITEGIC>MOL_PROPERTY
Idih
SciTegic.value.DoubleValue
0.002

@<SCITEGIC>MOL_PROPERTY
Tether
SciTegic.value.DoubleValue
0.000

@<TRIPOS>MOLECULE
guest-6_confgen4.mol2 : confsearch ligand conformer 593
          13          12           1
SMALL
USER_CHARGES
 
@<TRIPOS>ATOM
       1    C1      21.267973   17.448480   21.054522 C.2        1 MOL1         0.6021
       2    O1      21.366280   16.745523   22.041191 O.co2      1 MOL1        -0.6904
       3    O2      21.804152   17.183487   19.997598 O.co2      1 MOL1        -0.6904
       4    C2      20.438224   18.732440   21.114899 C.3        1 MOL1        -0.2102
       5    H1      19.668175   18.661858   20.337479 H          1 MOL1         0.0687
       6    H2      21.098467   19.562676   20.837186 H          1 MOL1         0.0687
       7    C3      19.772652   19.029693   22.484063 C.3        1 MOL1        -0.1974
       8    H3      19.113703   18.195211   22.761878 H          1 MOL1         0.0689
       9    H4      20.545752   19.097064   23.262222 H          1 MOL1         0.0689
      10    C4      18.959747   20.339594   22.449673 C.3        1 MOL1        -0.2987
      11    H5      18.159436   20.285799   21.699919 H          1 MOL1         0.0700
      12    H6      18.496841   20.532938   23.426194 H          1 MOL1         0.0700
      13    H7      19.602989   21.194882   22.204226 H          1 MOL1         0.0700
@<TRIPOS>BOND
    1     1     2    1
    2     1     3    2
    3     1     4    1
    4     4     5    1
    5     4     6    1
    6     4     7    1
    7     7     8    1
    8     7     9    1
    9     7    10    1
   10    10    11    1
   11    10    12    1
   12    10    13    1
@<TRIPOS>SUBSTRUCTURE
       1 MOL1            1 RESIDUE      1      MOL     
@<SCITEGIC>MOL_PROPERTY
VConf Rank
SciTegic.value.IntegerValue
593

@<SCITEGIC>MOL_PROPERTY
Conf_Id
SciTegic.value.IntegerValue
0

@<SCITEGIC>MOL_PROPERTY
Delta U+W
SciTegic.value.DoubleValue
0.000

@<SCITEGIC>MOL_PROPERTY
U+W
SciTegic.value.DoubleValue
-58.332

@<SCITEGIC>MOL_PROPERTY
Grad RMS
SciTegic.value.DoubleValue
0.000000

@<SCITEGIC>MOL_PROPERTY
U
SciTegic.value.DoubleValue
8.390

@<SCITEGIC>MOL_PROPERTY
W
SciTegic.value.DoubleValue
-66.722

@<SCITEGIC>MOL_PROPERTY
W(PB)
SciTegic.value.DoubleValue
-68.455

@<SCITEGIC>MOL_PROPERTY
W(SA)
SciTegic.value.DoubleValue
1.733

@<SCITEGIC>MOL_PROPERTY
Valence
SciTegic.value.DoubleValue
6.333

@<SCITEGIC>MOL_PROPERTY
Coulomb
SciTegic.value.DoubleValue
1.215

@<SCITEGIC>MOL_PROPERTY
VdW
SciTegic.value.DoubleValue
0.842

@<SCITEGIC>MOL_PROPERTY
VdW6
SciTegic.value.DoubleValue
-3.344

@<SCITEGIC>MOL_PROPERTY
VdW12
SciTegic.value.DoubleValue
4.186

@<SCITEGIC>MOL_PROPERTY
Bond
SciTegic.value.DoubleValue
0.091

@<SCITEGIC>MOL_PROPERTY
Angle
SciTegic.value.DoubleValue
2.713

@<SCITEGIC>MOL_PROPERTY
Pdih
SciTegic.value.DoubleValue
3.529

@<SCITEGIC>MOL_PROPERTY
Idih
SciTegic.value.DoubleValue
0.000

@<SCITEGIC>MOL_PROPERTY
Tether
SciTegic.value.DoubleValue
0.000

@<TRIPOS>MOLECULE
guest-6_confgen4.mol2 : confsearch ligand conformer 594
          13          12           1
SMALL
USER_CHARGES
 
@<TRIPOS>ATOM
       1    C1      20.028746   20.776742   20.631649 C.2        1 MOL1         0.6021
       2    O1      20.693498   20.709723   19.617265 O.co2      1 MOL1        -0.6904
       3    O2      19.767188   21.820706   21.194753 O.co2      1 MOL1        -0.6904
       4    C2      19.510455   19.478682   21.241496 C.3        1 MOL1        -0.2102
       5    H1      19.313242   18.772933   20.425381 H          1 MOL1         0.0687
       6    H2      18.549339   19.689116   21.726255 H          1 MOL1         0.0687
       7    C3      20.495000   18.854095   22.259539 C.3        1 MOL1        -0.1974
       8    H3      21.456765   18.656887   21.765638 H          1 MOL1         0.0689
       9    H4      20.692612   19.573185   23.066808 H          1 MOL1         0.0689
      10    C4      19.942447   17.544595   22.857187 C.3        1 MOL1        -0.2987
      11    H5      20.653756   17.117174   23.575945 H          1 MOL1         0.0700
      12    H6      18.994786   17.721812   23.382627 H          1 MOL1         0.0700
      13    H7      19.764842   16.798486   22.071481 H          1 MOL1         0.0700
@<TRIPOS>BOND
    1     1     2    1
    2     1     3    2
    3     1     4    1
    4     4     5    1
    5     4     6    1
    6     4     7    1
    7     7     8    1
    8     7     9    1
    9     7    10    1
   10    10    11    1
   11    10    12    1
   12    10    13    1
@<TRIPOS>SUBSTRUCTURE
       1 MOL1            1 RESIDUE      1      MOL     
@<SCITEGIC>MOL_PROPERTY
VConf Rank
SciTegic.value.IntegerValue
594

@<SCITEGIC>MOL_PROPERTY
Conf_Id
SciTegic.value.IntegerValue
1

@<SCITEGIC>MOL_PROPERTY
Delta U+W
SciTegic.value.DoubleValue
-1.339

@<SCITEGIC>MOL_PROPERTY
U+W
SciTegic.value.DoubleValue
-59.672

@<SCITEGIC>MOL_PROPERTY
Grad RMS
SciTegic.value.DoubleValue
0.000000

@<SCITEGIC>MOL_PROPERTY
U
SciTegic.value.DoubleValue
7.389

@<SCITEGIC>MOL_PROPERTY
W
SciTegic.value.DoubleValue
-67.061

@<SCITEGIC>MOL_PROPERTY
W(PB)
SciTegic.value.DoubleValue
-68.767

@<SCITEGIC>MOL_PROPERTY
W(SA)
SciTegic.value.DoubleValue
1.707

@<SCITEGIC>MOL_PROPERTY
Valence
SciTegic.value.DoubleValue
5.822

@<SCITEGIC>MOL_PROPERTY
Coulomb
SciTegic.value.DoubleValue
1.255

@<SCITEGIC>MOL_PROPERTY
VdW
SciTegic.value.DoubleValue
0.312

@<SCITEGIC>MOL_PROPERTY
VdW6
SciTegic.value.DoubleValue
-3.061

@<SCITEGIC>MOL_PROPERTY
VdW12
SciTegic.value.DoubleValue
3.372

@<SCITEGIC>MOL_PROPERTY
Bond
SciTegic.value.DoubleValue
0.059

@<SCITEGIC>MOL_PROPERTY
Angle
SciTegic.value.DoubleValue
2.241

@<SCITEGIC>MOL_PROPERTY
Pdih
SciTegic.value.DoubleValue
3.522

@<SCITEGIC>MOL_PROPERTY
Idih
SciTegic.value.DoubleValue
0.000

@<SCITEGIC>MOL_PROPERTY
Tether
SciTegic.value.DoubleValue
0.000

@<TRIPOS>MOLECULE
guest-6_confgen4.mol2 : confsearch ligand conformer 595
          13          12           1
SMALL
USER_CHARGES
 
@<TRIPOS>ATOM
       1    C1      21.224796   19.166566   20.596203 C.2        1 MOL1         0.6021
       2    O1      22.229202   19.820506   20.795279 O.co2      1 MOL1        -0.6904
       3    O2      21.205132   18.159611   19.916821 O.co2      1 MOL1        -0.6904
       4    C2      19.913131   19.658140   21.203342 C.3        1 MOL1        -0.2102
       5    H1      19.080219   19.167678   20.684697 H          1 MOL1         0.0687
       6    H2      19.833882   20.730094   20.986502 H          1 MOL1         0.0687
       7    C3      19.797420   19.431561   22.732594 C.3        1 MOL1        -0.1974
       8    H3      20.658003   19.891215   23.238595 H          1 MOL1         0.0689
       9    H4      18.900751   19.945050   23.105671 H          1 MOL1         0.0689
      10    C4      19.712730   17.936421   23.103153 C.3        1 MOL1        -0.2987
      11    H5      20.615378   17.398872   22.783631 H          1 MOL1         0.0700
      12    H6      19.611936   17.812150   24.189198 H          1 MOL1         0.0700
      13    H7      18.845603   17.462144   22.625089 H          1 MOL1         0.0700
@<TRIPOS>BOND
    1     1     2    1
    2     1     3    2
    3     1     4    1
    4     4     5    1
    5     4     6    1
    6     4     7    1
    7     7     8    1
    8     7     9    1
    9     7    10    1
   10    10    11    1
   11    10    12    1
   12    10    13    1
@<TRIPOS>SUBSTRUCTURE
       1 MOL1            1 RESIDUE      1      MOL     
@<SCITEGIC>MOL_PROPERTY
VConf Rank
SciTegic.value.IntegerValue
595

@<SCITEGIC>MOL_PROPERTY
Conf_Id
SciTegic.value.IntegerValue
4

@<SCITEGIC>MOL_PROPERTY
Delta U+W
SciTegic.value.DoubleValue
0.281

@<SCITEGIC>MOL_PROPERTY
U+W
SciTegic.value.DoubleValue
-58.051

@<SCITEGIC>MOL_PROPERTY
Grad RMS
SciTegic.value.DoubleValue
0.000000

@<SCITEGIC>MOL_PROPERTY
U
SciTegic.value.DoubleValue
9.781

@<SCITEGIC>MOL_PROPERTY
W
SciTegic.value.DoubleValue
-67.832

@<SCITEGIC>MOL_PROPERTY
W(PB)
SciTegic.value.DoubleValue
-69.535

@<SCITEGIC>MOL_PROPERTY
W(SA)
SciTegic.value.DoubleValue
1.703

@<SCITEGIC>MOL_PROPERTY
Valence
SciTegic.value.DoubleValue
6.123

@<SCITEGIC>MOL_PROPERTY
Coulomb
SciTegic.value.DoubleValue
3.449

@<SCITEGIC>MOL_PROPERTY
VdW
SciTegic.value.DoubleValue
0.209

@<SCITEGIC>MOL_PROPERTY
VdW6
SciTegic.value.DoubleValue
-3.762

@<SCITEGIC>MOL_PROPERTY
VdW12
SciTegic.value.DoubleValue
3.972

@<SCITEGIC>MOL_PROPERTY
Bond
SciTegic.value.DoubleValue
0.078

@<SCITEGIC>MOL_PROPERTY
Angle
SciTegic.value.DoubleValue
2.428

@<SCITEGIC>MOL_PROPERTY
Pdih
SciTegic.value.DoubleValue
3.616

@<SCITEGIC>MOL_PROPERTY
Idih
SciTegic.value.DoubleValue
0.002

@<SCITEGIC>MOL_PROPERTY
Tether
SciTegic.value.DoubleValue
0.000

@<TRIPOS>MOLECULE
guest-6_confgen4.mol2 : confsearch ligand conformer 596
          13          12           1
SMALL
USER_CHARGES
 
@<TRIPOS>ATOM
       1    C1      19.041876   19.785559   20.819243 C.2        1 MOL1         0.6021
       2    O1      19.262680   20.980167   20.827278 O.co2      1 MOL1        -0.6904
       3    O2      18.781176   19.159558   19.811148 O.co2      1 MOL1        -0.6904
       4    C2      19.056925   19.035799   22.149040 C.3        1 MOL1        -0.2102
       5    H1      18.147350   18.424766   22.190245 H          1 MOL1         0.0687
       6    H2      18.985392   19.765652   22.964813 H          1 MOL1         0.0687
       7    C3      20.297304   18.128245   22.351875 C.3        1 MOL1        -0.1974
       8    H3      20.153411   17.518496   23.254301 H          1 MOL1         0.0689
       9    H4      20.382981   17.428717   21.508524 H          1 MOL1         0.0689
      10    C4      21.603613   18.936680   22.493006 C.3        1 MOL1        -0.2987
      11    H5      21.547715   19.627163   23.344769 H          1 MOL1         0.0700
      12    H6      22.457815   18.266388   22.654691 H          1 MOL1         0.0700
      13    H7      21.802773   19.525983   21.588084 H          1 MOL1         0.0700
@<TRIPOS>BOND
    1     1     2    1
    2     1     3    2
    3     1     4    1
    4     4     5    1
    5     4     6    1
    6     4     7    1
    7     7     8    1
    8     7     9    1
    9     7    10    1
   10    10    11    1
   11    10    12    1
   12    10    13    1
@<TRIPOS>SUBSTRUCTURE
       1 MOL1            1 RESIDUE      1      MOL     
@<SCITEGIC>MOL_PROPERTY
VConf Rank
SciTegic.value.IntegerValue
596

@<SCITEGIC>MOL_PROPERTY
Conf_Id
SciTegic.value.IntegerValue
36

@<SCITEGIC>MOL_PROPERTY
Delta U+W
SciTegic.value.DoubleValue
0.272

@<SCITEGIC>MOL_PROPERTY
U+W
SciTegic.value.DoubleValue
-58.060

@<SCITEGIC>MOL_PROPERTY
Grad RMS
SciTegic.value.DoubleValue
0.000000

@<SCITEGIC>MOL_PROPERTY
U
SciTegic.value.DoubleValue
9.781

@<SCITEGIC>MOL_PROPERTY
W
SciTegic.value.DoubleValue
-67.841

@<SCITEGIC>MOL_PROPERTY
W(PB)
SciTegic.value.DoubleValue
-69.537

@<SCITEGIC>MOL_PROPERTY
W(SA)
SciTegic.value.DoubleValue
1.696

@<SCITEGIC>MOL_PROPERTY
Valence
SciTegic.value.DoubleValue
6.123

@<SCITEGIC>MOL_PROPERTY
Coulomb
SciTegic.value.DoubleValue
3.449

@<SCITEGIC>MOL_PROPERTY
VdW
SciTegic.value.DoubleValue
0.209

@<SCITEGIC>MOL_PROPERTY
VdW6
SciTegic.value.DoubleValue
-3.762

@<SCITEGIC>MOL_PROPERTY
VdW12
SciTegic.value.DoubleValue
3.972

@<SCITEGIC>MOL_PROPERTY
Bond
SciTegic.value.DoubleValue
0.078

@<SCITEGIC>MOL_PROPERTY
Angle
SciTegic.value.DoubleValue
2.428

@<SCITEGIC>MOL_PROPERTY
Pdih
SciTegic.value.DoubleValue
3.616

@<SCITEGIC>MOL_PROPERTY
Idih
SciTegic.value.DoubleValue
0.002

@<SCITEGIC>MOL_PROPERTY
Tether
SciTegic.value.DoubleValue
0.000

@<TRIPOS>MOLECULE
guest-6_confgen4.mol2 : confsearch ligand conformer 597
          13          12           1
SMALL
USER_CHARGES
 
@<TRIPOS>ATOM
       1    C1      20.499617   21.041784   22.213614 C.2        1 MOL1         0.6021
       2    O1      20.603464   21.008707   23.424172 O.co2      1 MOL1        -0.6904
       3    O2      20.658758   22.055185   21.563623 O.co2      1 MOL1        -0.6904
       4    C2      20.153249   19.765274   21.444696 C.3        1 MOL1        -0.2102
       5    H1      20.954570   19.593951   20.716087 H          1 MOL1         0.0687
       6    H2      19.238564   19.964591   20.873766 H          1 MOL1         0.0687
       7    C3      19.959315   18.496708   22.315952 C.3        1 MOL1        -0.1974
       8    H3      20.876008   18.300409   22.889446 H          1 MOL1         0.0689
       9    H4      19.157935   18.671530   23.047376 H          1 MOL1         0.0689
      10    C4      19.613958   17.263381   21.457192 C.3        1 MOL1        -0.2987
      11    H5      20.415114   17.048712   20.737756 H          1 MOL1         0.0700
      12    H6      19.480573   16.376565   22.090455 H          1 MOL1         0.0700
      13    H7      18.683267   17.422847   20.896916 H          1 MOL1         0.0700
@<TRIPOS>BOND
    1     1     2    1
    2     1     3    2
    3     1     4    1
    4     4     5    1
    5     4     6    1
    6     4     7    1
    7     7     8    1
    8     7     9    1
    9     7    10    1
   10    10    11    1
   11    10    12    1
   12    10    13    1
@<TRIPOS>SUBSTRUCTURE
       1 MOL1            1 RESIDUE      1      MOL     
@<SCITEGIC>MOL_PROPERTY
VConf Rank
SciTegic.value.IntegerValue
597

@<SCITEGIC>MOL_PROPERTY
Conf_Id
SciTegic.value.IntegerValue
0

@<SCITEGIC>MOL_PROPERTY
Delta U+W
SciTegic.value.DoubleValue
0.000

@<SCITEGIC>MOL_PROPERTY
U+W
SciTegic.value.DoubleValue
-58.332

@<SCITEGIC>MOL_PROPERTY
Grad RMS
SciTegic.value.DoubleValue
0.000000

@<SCITEGIC>MOL_PROPERTY
U
SciTegic.value.DoubleValue
8.390

@<SCITEGIC>MOL_PROPERTY
W
SciTegic.value.DoubleValue
-66.722

@<SCITEGIC>MOL_PROPERTY
W(PB)
SciTegic.value.DoubleValue
-68.455

@<SCITEGIC>MOL_PROPERTY
W(SA)
SciTegic.value.DoubleValue
1.733

@<SCITEGIC>MOL_PROPERTY
Valence
SciTegic.value.DoubleValue
6.333

@<SCITEGIC>MOL_PROPERTY
Coulomb
SciTegic.value.DoubleValue
1.215

@<SCITEGIC>MOL_PROPERTY
VdW
SciTegic.value.DoubleValue
0.842

@<SCITEGIC>MOL_PROPERTY
VdW6
SciTegic.value.DoubleValue
-3.344

@<SCITEGIC>MOL_PROPERTY
VdW12
SciTegic.value.DoubleValue
4.186

@<SCITEGIC>MOL_PROPERTY
Bond
SciTegic.value.DoubleValue
0.091

@<SCITEGIC>MOL_PROPERTY
Angle
SciTegic.value.DoubleValue
2.713

@<SCITEGIC>MOL_PROPERTY
Pdih
SciTegic.value.DoubleValue
3.529

@<SCITEGIC>MOL_PROPERTY
Idih
SciTegic.value.DoubleValue
0.000

@<SCITEGIC>MOL_PROPERTY
Tether
SciTegic.value.DoubleValue
0.000

@<TRIPOS>MOLECULE
guest-6_confgen4.mol2 : confsearch ligand conformer 598
          13          12           1
SMALL
USER_CHARGES
 
@<TRIPOS>ATOM
       1    C1      20.948224   20.919308   21.918404 C.2        1 MOL1         0.6021
       2    O1      20.575474   21.746280   21.110606 O.co2      1 MOL1        -0.6904
       3    O2      22.046736   20.934928   22.436463 O.co2      1 MOL1        -0.6904
       4    C2      19.992440   19.789951   22.287903 C.3        1 MOL1        -0.2102
       5    H1      18.968301   20.179408   22.238091 H          1 MOL1         0.0687
       6    H2      20.181582   19.510335   23.331483 H          1 MOL1         0.0687
       7    C3      20.136683   18.551843   21.370226 C.3        1 MOL1        -0.1974
       8    H3      19.954917   18.845757   20.326964 H          1 MOL1         0.0689
       9    H4      21.168375   18.176490   21.420661 H          1 MOL1         0.0689
      10    C4      19.157875   17.429369   21.769324 C.3        1 MOL1        -0.2987
      11    H5      19.274986   16.560929   21.107993 H          1 MOL1         0.0700
      12    H6      19.339918   17.097571   22.800016 H          1 MOL1         0.0700
      13    H7      18.117163   17.771967   21.697888 H          1 MOL1         0.0700
@<TRIPOS>BOND
    1     1     2    1
    2     1     3    2
    3     1     4    1
    4     4     5    1
    5     4     6    1
    6     4     7    1
    7     7     8    1
    8     7     9    1
    9     7    10    1
   10    10    11    1
   11    10    12    1
   12    10    13    1
@<TRIPOS>SUBSTRUCTURE
       1 MOL1            1 RESIDUE      1      MOL     
@<SCITEGIC>MOL_PROPERTY
VConf Rank
SciTegic.value.IntegerValue
598

@<SCITEGIC>MOL_PROPERTY
Conf_Id
SciTegic.value.IntegerValue
1

@<SCITEGIC>MOL_PROPERTY
Delta U+W
SciTegic.value.DoubleValue
-1.339

@<SCITEGIC>MOL_PROPERTY
U+W
SciTegic.value.DoubleValue
-59.672

@<SCITEGIC>MOL_PROPERTY
Grad RMS
SciTegic.value.DoubleValue
0.000000

@<SCITEGIC>MOL_PROPERTY
U
SciTegic.value.DoubleValue
7.389

@<SCITEGIC>MOL_PROPERTY
W
SciTegic.value.DoubleValue
-67.061

@<SCITEGIC>MOL_PROPERTY
W(PB)
SciTegic.value.DoubleValue
-68.767

@<SCITEGIC>MOL_PROPERTY
W(SA)
SciTegic.value.DoubleValue
1.707

@<SCITEGIC>MOL_PROPERTY
Valence
SciTegic.value.DoubleValue
5.822

@<SCITEGIC>MOL_PROPERTY
Coulomb
SciTegic.value.DoubleValue
1.255

@<SCITEGIC>MOL_PROPERTY
VdW
SciTegic.value.DoubleValue
0.312

@<SCITEGIC>MOL_PROPERTY
VdW6
SciTegic.value.DoubleValue
-3.061

@<SCITEGIC>MOL_PROPERTY
VdW12
SciTegic.value.DoubleValue
3.372

@<SCITEGIC>MOL_PROPERTY
Bond
SciTegic.value.DoubleValue
0.059

@<SCITEGIC>MOL_PROPERTY
Angle
SciTegic.value.DoubleValue
2.241

@<SCITEGIC>MOL_PROPERTY
Pdih
SciTegic.value.DoubleValue
3.522

@<SCITEGIC>MOL_PROPERTY
Idih
SciTegic.value.DoubleValue
0.000

@<SCITEGIC>MOL_PROPERTY
Tether
SciTegic.value.DoubleValue
0.000

@<TRIPOS>MOLECULE
guest-6_confgen4.mol2 : confsearch ligand conformer 599
          13          12           1
SMALL
USER_CHARGES
 
@<TRIPOS>ATOM
       1    C1      21.270794   17.930321   21.090162 C.2        1 MOL1         0.6021
       2    O1      21.117207   17.892571   19.885552 O.co2      1 MOL1        -0.6904
       3    O2      22.360885   17.962647   21.625476 O.co2      1 MOL1        -0.6904
       4    C2      20.027854   17.899211   21.976085 C.3        1 MOL1        -0.2102
       5    H1      20.328095   17.618303   22.993057 H          1 MOL1         0.0687
       6    H2      19.380896   17.095977   21.603730 H          1 MOL1         0.0687
       7    C3      19.233776   19.230410   22.002366 C.3        1 MOL1        -0.1974
       8    H3      18.973806   19.523848   20.975608 H          1 MOL1         0.0689
       9    H4      18.286024   19.073664   22.535350 H          1 MOL1         0.0689
      10    C4      20.014931   20.370376   22.688079 C.3        1 MOL1        -0.2987
      11    H5      20.950199   20.584792   22.154105 H          1 MOL1         0.0700
      12    H6      19.417902   21.291398   22.707359 H          1 MOL1         0.0700
      13    H7      20.265814   20.106491   23.723846 H          1 MOL1         0.0700
@<TRIPOS>BOND
    1     1     2    1
    2     1     3    2
    3     1     4    1
    4     4     5    1
    5     4     6    1
    6     4     7    1
    7     7     8    1
    8     7     9    1
    9     7    10    1
   10    10    11    1
   11    10    12    1
   12    10    13    1
@<TRIPOS>SUBSTRUCTURE
       1 MOL1            1 RESIDUE      1      MOL     
@<SCITEGIC>MOL_PROPERTY
VConf Rank
SciTegic.value.IntegerValue
599

@<SCITEGIC>MOL_PROPERTY
Conf_Id
SciTegic.value.IntegerValue
4

@<SCITEGIC>MOL_PROPERTY
Delta U+W
SciTegic.value.DoubleValue
0.281

@<SCITEGIC>MOL_PROPERTY
U+W
SciTegic.value.DoubleValue
-58.051

@<SCITEGIC>MOL_PROPERTY
Grad RMS
SciTegic.value.DoubleValue
0.000000

@<SCITEGIC>MOL_PROPERTY
U
SciTegic.value.DoubleValue
9.781

@<SCITEGIC>MOL_PROPERTY
W
SciTegic.value.DoubleValue
-67.832

@<SCITEGIC>MOL_PROPERTY
W(PB)
SciTegic.value.DoubleValue
-69.535

@<SCITEGIC>MOL_PROPERTY
W(SA)
SciTegic.value.DoubleValue
1.703

@<SCITEGIC>MOL_PROPERTY
Valence
SciTegic.value.DoubleValue
6.123

@<SCITEGIC>MOL_PROPERTY
Coulomb
SciTegic.value.DoubleValue
3.449

@<SCITEGIC>MOL_PROPERTY
VdW
SciTegic.value.DoubleValue
0.209

@<SCITEGIC>MOL_PROPERTY
VdW6
SciTegic.value.DoubleValue
-3.762

@<SCITEGIC>MOL_PROPERTY
VdW12
SciTegic.value.DoubleValue
3.972

@<SCITEGIC>MOL_PROPERTY
Bond
SciTegic.value.DoubleValue
0.078

@<SCITEGIC>MOL_PROPERTY
Angle
SciTegic.value.DoubleValue
2.428

@<SCITEGIC>MOL_PROPERTY
Pdih
SciTegic.value.DoubleValue
3.616

@<SCITEGIC>MOL_PROPERTY
Idih
SciTegic.value.DoubleValue
0.002

@<SCITEGIC>MOL_PROPERTY
Tether
SciTegic.value.DoubleValue
0.000

@<TRIPOS>MOLECULE
guest-6_confgen4.mol2 : confsearch ligand conformer 600
          13          12           1
SMALL
USER_CHARGES
 
@<TRIPOS>ATOM
       1    C1      18.490701   19.596063   21.582694 C.2        1 MOL1         0.6021
       2    O1      18.487437   19.992799   20.434437 O.co2      1 MOL1        -0.6904
       3    O2      17.550848   19.021643   22.095352 O.co2      1 MOL1        -0.6904
       4    C2      19.725625   19.863675   22.439473 C.3        1 MOL1        -0.2102
       5    H1      19.378207   20.277349   23.393706 H          1 MOL1         0.0687
       6    H2      20.326410   20.643836   21.956055 H          1 MOL1         0.0687
       7    C3      20.595890   18.609087   22.707775 C.3        1 MOL1        -0.1974
       8    H3      21.368762   18.858682   23.447534 H          1 MOL1         0.0689
       9    H4      19.975085   17.819476   23.153910 H          1 MOL1         0.0689
      10    C4      21.275433   18.077449   21.428904 C.3        1 MOL1        -0.2987
      11    H5      21.918947   18.844567   20.978558 H          1 MOL1         0.0700
      12    H6      21.898306   17.202715   21.656862 H          1 MOL1         0.0700
      13    H7      20.529359   17.775834   20.681758 H          1 MOL1         0.0700
@<TRIPOS>BOND
    1     1     2    1
    2     1     3    2
    3     1     4    1
    4     4     5    1
    5     4     6    1
    6     4     7    1
    7     7     8    1
    8     7     9    1
    9     7    10    1
   10    10    11    1
   11    10    12    1
   12    10    13    1
@<TRIPOS>SUBSTRUCTURE
       1 MOL1            1 RESIDUE      1      MOL     
@<SCITEGIC>MOL_PROPERTY
VConf Rank
SciTegic.value.IntegerValue
600

@<SCITEGIC>MOL_PROPERTY
Conf_Id
SciTegic.value.IntegerValue
36

@<SCITEGIC>MOL_PROPERTY
Delta U+W
SciTegic.value.DoubleValue
0.272

@<SCITEGIC>MOL_PROPERTY
U+W
SciTegic.value.DoubleValue
-58.060

@<SCITEGIC>MOL_PROPERTY
Grad RMS
SciTegic.value.DoubleValue
0.000000

@<SCITEGIC>MOL_PROPERTY
U
SciTegic.value.DoubleValue
9.781

@<SCITEGIC>MOL_PROPERTY
W
SciTegic.value.DoubleValue
-67.841

@<SCITEGIC>MOL_PROPERTY
W(PB)
SciTegic.value.DoubleValue
-69.537

@<SCITEGIC>MOL_PROPERTY
W(SA)
SciTegic.value.DoubleValue
1.696

@<SCITEGIC>MOL_PROPERTY
Valence
SciTegic.value.DoubleValue
6.123

@<SCITEGIC>MOL_PROPERTY
Coulomb
SciTegic.value.DoubleValue
3.449

@<SCITEGIC>MOL_PROPERTY
VdW
SciTegic.value.DoubleValue
0.209

@<SCITEGIC>MOL_PROPERTY
VdW6
SciTegic.value.DoubleValue
-3.762

@<SCITEGIC>MOL_PROPERTY
VdW12
SciTegic.value.DoubleValue
3.972

@<SCITEGIC>MOL_PROPERTY
Bond
SciTegic.value.DoubleValue
0.078

@<SCITEGIC>MOL_PROPERTY
Angle
SciTegic.value.DoubleValue
2.428

@<SCITEGIC>MOL_PROPERTY
Pdih
SciTegic.value.DoubleValue
3.616

@<SCITEGIC>MOL_PROPERTY
Idih
SciTegic.value.DoubleValue
0.002

@<SCITEGIC>MOL_PROPERTY
Tether
SciTegic.value.DoubleValue
0.000

@<TRIPOS>MOLECULE
guest-6_confgen4.mol2 : confsearch ligand conformer 601
          13          12           1
SMALL
USER_CHARGES
 
@<TRIPOS>ATOM
       1    C1      18.503716   17.504431   21.781842 C.2        1 MOL1         0.6021
       2    O1      18.418808   17.253953   22.968173 O.co2      1 MOL1        -0.6904
       3    O2      17.825770   16.952150   20.939125 O.co2      1 MOL1        -0.6904
       4    C2      19.500849   18.558343   21.296378 C.3        1 MOL1        -0.2102
       5    H1      18.932665   19.318931   20.747734 H          1 MOL1         0.0687
       6    H2      20.165862   18.071690   20.573009 H          1 MOL1         0.0687
       7    C3      20.344314   19.236676   22.407409 C.3        1 MOL1        -0.1974
       8    H3      19.675938   19.721261   23.132809 H          1 MOL1         0.0689
       9    H4      20.910600   18.472473   22.957925 H          1 MOL1         0.0689
      10    C4      21.318213   20.281046   21.825475 C.3        1 MOL1        -0.2987
      11    H5      20.773707   21.073871   21.295886 H          1 MOL1         0.0700
      12    H6      21.905701   20.749770   22.625732 H          1 MOL1         0.0700
      13    H7      22.018248   19.815050   21.119555 H          1 MOL1         0.0700
@<TRIPOS>BOND
    1     1     2    1
    2     1     3    2
    3     1     4    1
    4     4     5    1
    5     4     6    1
    6     4     7    1
    7     7     8    1
    8     7     9    1
    9     7    10    1
   10    10    11    1
   11    10    12    1
   12    10    13    1
@<TRIPOS>SUBSTRUCTURE
       1 MOL1            1 RESIDUE      1      MOL     
@<SCITEGIC>MOL_PROPERTY
VConf Rank
SciTegic.value.IntegerValue
601

@<SCITEGIC>MOL_PROPERTY
Conf_Id
SciTegic.value.IntegerValue
0

@<SCITEGIC>MOL_PROPERTY
Delta U+W
SciTegic.value.DoubleValue
0.000

@<SCITEGIC>MOL_PROPERTY
U+W
SciTegic.value.DoubleValue
-58.332

@<SCITEGIC>MOL_PROPERTY
Grad RMS
SciTegic.value.DoubleValue
0.000000

@<SCITEGIC>MOL_PROPERTY
U
SciTegic.value.DoubleValue
8.390

@<SCITEGIC>MOL_PROPERTY
W
SciTegic.value.DoubleValue
-66.722

@<SCITEGIC>MOL_PROPERTY
W(PB)
SciTegic.value.DoubleValue
-68.455

@<SCITEGIC>MOL_PROPERTY
W(SA)
SciTegic.value.DoubleValue
1.733

@<SCITEGIC>MOL_PROPERTY
Valence
SciTegic.value.DoubleValue
6.333

@<SCITEGIC>MOL_PROPERTY
Coulomb
SciTegic.value.DoubleValue
1.215

@<SCITEGIC>MOL_PROPERTY
VdW
SciTegic.value.DoubleValue
0.842

@<SCITEGIC>MOL_PROPERTY
VdW6
SciTegic.value.DoubleValue
-3.344

@<SCITEGIC>MOL_PROPERTY
VdW12
SciTegic.value.DoubleValue
4.186

@<SCITEGIC>MOL_PROPERTY
Bond
SciTegic.value.DoubleValue
0.091

@<SCITEGIC>MOL_PROPERTY
Angle
SciTegic.value.DoubleValue
2.713

@<SCITEGIC>MOL_PROPERTY
Pdih
SciTegic.value.DoubleValue
3.529

@<SCITEGIC>MOL_PROPERTY
Idih
SciTegic.value.DoubleValue
0.000

@<SCITEGIC>MOL_PROPERTY
Tether
SciTegic.value.DoubleValue
0.000

@<TRIPOS>MOLECULE
guest-6_confgen4.mol2 : confsearch ligand conformer 602
          13          12           1
SMALL
USER_CHARGES
 
@<TRIPOS>ATOM
       1    C1      22.027830   19.550620   22.041747 C.2        1 MOL1         0.6021
       2    O1      22.713334   19.430889   21.046202 O.co2      1 MOL1        -0.6904
       3    O2      22.473251   19.516396   23.171256 O.co2      1 MOL1        -0.6904
       4    C2      20.524472   19.734991   21.864484 C.3        1 MOL1        -0.2102
       5    H1      20.356066   20.291160   20.934250 H          1 MOL1         0.0687
       6    H2      20.158085   20.361695   22.686689 H          1 MOL1         0.0687
       7    C3      19.751178   18.394562   21.831080 C.3        1 MOL1        -0.1974
       8    H3      20.133184   17.771442   21.010340 H          1 MOL1         0.0689
       9    H4      19.935063   17.842060   22.763148 H          1 MOL1         0.0689
      10    C4      18.235847   18.615014   21.650910 C.3        1 MOL1        -0.2987
      11    H5      17.705127   17.654209   21.629650 H          1 MOL1         0.0700
      12    H6      17.824794   19.211149   22.476267 H          1 MOL1         0.0700
      13    H7      18.024445   19.139949   20.710001 H          1 MOL1         0.0700
@<TRIPOS>BOND
    1     1     2    1
    2     1     3    2
    3     1     4    1
    4     4     5    1
    5     4     6    1
    6     4     7    1
    7     7     8    1
    8     7     9    1
    9     7    10    1
   10    10    11    1
   11    10    12    1
   12    10    13    1
@<TRIPOS>SUBSTRUCTURE
       1 MOL1            1 RESIDUE      1      MOL     
@<SCITEGIC>MOL_PROPERTY
VConf Rank
SciTegic.value.IntegerValue
602

@<SCITEGIC>MOL_PROPERTY
Conf_Id
SciTegic.value.IntegerValue
1

@<SCITEGIC>MOL_PROPERTY
Delta U+W
SciTegic.value.DoubleValue
-1.339

@<SCITEGIC>MOL_PROPERTY
U+W
SciTegic.value.DoubleValue
-59.672

@<SCITEGIC>MOL_PROPERTY
Grad RMS
SciTegic.value.DoubleValue
0.000000

@<SCITEGIC>MOL_PROPERTY
U
SciTegic.value.DoubleValue
7.389

@<SCITEGIC>MOL_PROPERTY
W
SciTegic.value.DoubleValue
-67.061

@<SCITEGIC>MOL_PROPERTY
W(PB)
SciTegic.value.DoubleValue
-68.767

@<SCITEGIC>MOL_PROPERTY
W(SA)
SciTegic.value.DoubleValue
1.707

@<SCITEGIC>MOL_PROPERTY
Valence
SciTegic.value.DoubleValue
5.822

@<SCITEGIC>MOL_PROPERTY
Coulomb
SciTegic.value.DoubleValue
1.255

@<SCITEGIC>MOL_PROPERTY
VdW
SciTegic.value.DoubleValue
0.312

@<SCITEGIC>MOL_PROPERTY
VdW6
SciTegic.value.DoubleValue
-3.061

@<SCITEGIC>MOL_PROPERTY
VdW12
SciTegic.value.DoubleValue
3.372

@<SCITEGIC>MOL_PROPERTY
Bond
SciTegic.value.DoubleValue
0.059

@<SCITEGIC>MOL_PROPERTY
Angle
SciTegic.value.DoubleValue
2.241

@<SCITEGIC>MOL_PROPERTY
Pdih
SciTegic.value.DoubleValue
3.522

@<SCITEGIC>MOL_PROPERTY
Idih
SciTegic.value.DoubleValue
0.000

@<SCITEGIC>MOL_PROPERTY
Tether
SciTegic.value.DoubleValue
0.000

@<TRIPOS>MOLECULE
guest-6_confgen4.mol2 : confsearch ligand conformer 603
          13          12           1
SMALL
USER_CHARGES
 
@<TRIPOS>ATOM
       1    C1      20.324896   17.650153   20.799078 C.2        1 MOL1         0.6021
       2    O1      21.413225   17.576159   20.264137 O.co2      1 MOL1        -0.6904
       3    O2      19.684185   16.679643   21.150511 O.co2      1 MOL1        -0.6904
       4    C2      19.717074   19.035117   21.006818 C.3        1 MOL1        -0.2102
       5    H1      18.641446   18.922896   21.190446 H          1 MOL1         0.0687
       6    H2      19.821608   19.583068   20.062780 H          1 MOL1         0.0687
       7    C3      20.371867   19.850368   22.151349 C.3        1 MOL1        -0.1974
       8    H3      21.455007   19.921495   21.979102 H          1 MOL1         0.0689
       9    H4      19.981031   20.876875   22.131246 H          1 MOL1         0.0689
      10    C4      20.104523   19.236541   23.541196 C.3        1 MOL1        -0.2987
      11    H5      20.522125   18.223427   23.612161 H          1 MOL1         0.0700
      12    H6      20.564195   19.847579   24.328869 H          1 MOL1         0.0700
      13    H7      19.027002   19.176688   23.743082 H          1 MOL1         0.0700
@<TRIPOS>BOND
    1     1     2    1
    2     1     3    2
    3     1     4    1
    4     4     5    1
    5     4     6    1
    6     4     7    1
    7     7     8    1
    8     7     9    1
    9     7    10    1
   10    10    11    1
   11    10    12    1
   12    10    13    1
@<TRIPOS>SUBSTRUCTURE
       1 MOL1            1 RESIDUE      1      MOL     
@<SCITEGIC>MOL_PROPERTY
VConf Rank
SciTegic.value.IntegerValue
603

@<SCITEGIC>MOL_PROPERTY
Conf_Id
SciTegic.value.IntegerValue
4

@<SCITEGIC>MOL_PROPERTY
Delta U+W
SciTegic.value.DoubleValue
0.281

@<SCITEGIC>MOL_PROPERTY
U+W
SciTegic.value.DoubleValue
-58.051

@<SCITEGIC>MOL_PROPERTY
Grad RMS
SciTegic.value.DoubleValue
0.000000

@<SCITEGIC>MOL_PROPERTY
U
SciTegic.value.DoubleValue
9.781

@<SCITEGIC>MOL_PROPERTY
W
SciTegic.value.DoubleValue
-67.832

@<SCITEGIC>MOL_PROPERTY
W(PB)
SciTegic.value.DoubleValue
-69.535

@<SCITEGIC>MOL_PROPERTY
W(SA)
SciTegic.value.DoubleValue
1.703

@<SCITEGIC>MOL_PROPERTY
Valence
SciTegic.value.DoubleValue
6.123

@<SCITEGIC>MOL_PROPERTY
Coulomb
SciTegic.value.DoubleValue
3.449

@<SCITEGIC>MOL_PROPERTY
VdW
SciTegic.value.DoubleValue
0.209

@<SCITEGIC>MOL_PROPERTY
VdW6
SciTegic.value.DoubleValue
-3.762

@<SCITEGIC>MOL_PROPERTY
VdW12
SciTegic.value.DoubleValue
3.972

@<SCITEGIC>MOL_PROPERTY
Bond
SciTegic.value.DoubleValue
0.078

@<SCITEGIC>MOL_PROPERTY
Angle
SciTegic.value.DoubleValue
2.428

@<SCITEGIC>MOL_PROPERTY
Pdih
SciTegic.value.DoubleValue
3.616

@<SCITEGIC>MOL_PROPERTY
Idih
SciTegic.value.DoubleValue
0.002

@<SCITEGIC>MOL_PROPERTY
Tether
SciTegic.value.DoubleValue
0.000

@<TRIPOS>MOLECULE
guest-6_confgen4.mol2 : confsearch ligand conformer 604
          13          12           1
SMALL
USER_CHARGES
 
@<TRIPOS>ATOM
       1    C1      20.401526   18.277924   20.367670 C.2        1 MOL1         0.6021
       2    O1      21.534799   17.845347   20.300784 O.co2      1 MOL1        -0.6904
       3    O2      19.447274   17.739729   19.842459 O.co2      1 MOL1        -0.6904
       4    C2      20.166997   19.585280   21.120359 C.3        1 MOL1        -0.2102
       5    H1      19.553038   20.227183   20.477396 H          1 MOL1         0.0687
       6    H2      21.130105   20.094346   21.249055 H          1 MOL1         0.0687
       7    C3      19.467799   19.410681   22.492939 C.3        1 MOL1        -0.1974
       8    H3      19.204589   20.400111   22.891211 H          1 MOL1         0.0689
       9    H4      18.524275   18.863433   22.358018 H          1 MOL1         0.0689
      10    C4      20.355041   18.674596   23.518077 C.3        1 MOL1        -0.2987
      11    H5      21.294929   19.217044   23.684669 H          1 MOL1         0.0700
      12    H6      19.838892   18.585275   24.482809 H          1 MOL1         0.0700
      13    H7      20.601747   17.662224   23.171573 H          1 MOL1         0.0700
@<TRIPOS>BOND
    1     1     2    1
    2     1     3    2
    3     1     4    1
    4     4     5    1
    5     4     6    1
    6     4     7    1
    7     7     8    1
    8     7     9    1
    9     7    10    1
   10    10    11    1
   11    10    12    1
   12    10    13    1
@<TRIPOS>SUBSTRUCTURE
       1 MOL1            1 RESIDUE      1      MOL     
@<SCITEGIC>MOL_PROPERTY
VConf Rank
SciTegic.value.IntegerValue
604

@<SCITEGIC>MOL_PROPERTY
Conf_Id
SciTegic.value.IntegerValue
36

@<SCITEGIC>MOL_PROPERTY
Delta U+W
SciTegic.value.DoubleValue
0.272

@<SCITEGIC>MOL_PROPERTY
U+W
SciTegic.value.DoubleValue
-58.060

@<SCITEGIC>MOL_PROPERTY
Grad RMS
SciTegic.value.DoubleValue
0.000000

@<SCITEGIC>MOL_PROPERTY
U
SciTegic.value.DoubleValue
9.781

@<SCITEGIC>MOL_PROPERTY
W
SciTegic.value.DoubleValue
-67.841

@<SCITEGIC>MOL_PROPERTY
W(PB)
SciTegic.value.DoubleValue
-69.537

@<SCITEGIC>MOL_PROPERTY
W(SA)
SciTegic.value.DoubleValue
1.696

@<SCITEGIC>MOL_PROPERTY
Valence
SciTegic.value.DoubleValue
6.123

@<SCITEGIC>MOL_PROPERTY
Coulomb
SciTegic.value.DoubleValue
3.449

@<SCITEGIC>MOL_PROPERTY
VdW
SciTegic.value.DoubleValue
0.209

@<SCITEGIC>MOL_PROPERTY
VdW6
SciTegic.value.DoubleValue
-3.762

@<SCITEGIC>MOL_PROPERTY
VdW12
SciTegic.value.DoubleValue
3.972

@<SCITEGIC>MOL_PROPERTY
Bond
SciTegic.value.DoubleValue
0.078

@<SCITEGIC>MOL_PROPERTY
Angle
SciTegic.value.DoubleValue
2.428

@<SCITEGIC>MOL_PROPERTY
Pdih
SciTegic.value.DoubleValue
3.616

@<SCITEGIC>MOL_PROPERTY
Idih
SciTegic.value.DoubleValue
0.002

@<SCITEGIC>MOL_PROPERTY
Tether
SciTegic.value.DoubleValue
0.000

@<TRIPOS>MOLECULE
guest-6_confgen4.mol2 : confsearch ligand conformer 605
          13          12           1
SMALL
USER_CHARGES
 
@<TRIPOS>ATOM
       1    C1      18.430097   17.613256   22.114601 C.2        1 MOL1         0.6021
       2    O1      18.676805   17.239596   23.244576 O.co2      1 MOL1        -0.6904
       3    O2      17.486135   17.199313   21.472432 O.co2      1 MOL1        -0.6904
       4    C2      19.331181   18.651314   21.442913 C.3        1 MOL1        -0.2102
       5    H1      18.698167   19.500821   21.160124 H          1 MOL1         0.0687
       6    H2      19.705663   18.207425   20.512825 H          1 MOL1         0.0687
       7    C3      20.523283   19.150731   22.300487 C.3        1 MOL1        -0.1974
       8    H3      20.146014   19.592549   23.233342 H          1 MOL1         0.0689
       9    H4      21.154715   18.297548   22.585315 H          1 MOL1         0.0689
      10    C4      21.372915   20.191339   21.543456 C.3        1 MOL1        -0.2987
      11    H5      20.770987   21.069289   21.274366 H          1 MOL1         0.0700
      12    H6      22.210690   20.532573   22.165508 H          1 MOL1         0.0700
      13    H7      21.787740   19.763890   20.621105 H          1 MOL1         0.0700
@<TRIPOS>BOND
    1     1     2    1
    2     1     3    2
    3     1     4    1
    4     4     5    1
    5     4     6    1
    6     4     7    1
    7     7     8    1
    8     7     9    1
    9     7    10    1
   10    10    11    1
   11    10    12    1
   12    10    13    1
@<TRIPOS>SUBSTRUCTURE
       1 MOL1            1 RESIDUE      1      MOL     
@<SCITEGIC>MOL_PROPERTY
VConf Rank
SciTegic.value.IntegerValue
605

@<SCITEGIC>MOL_PROPERTY
Conf_Id
SciTegic.value.IntegerValue
0

@<SCITEGIC>MOL_PROPERTY
Delta U+W
SciTegic.value.DoubleValue
0.000

@<SCITEGIC>MOL_PROPERTY
U+W
SciTegic.value.DoubleValue
-58.332

@<SCITEGIC>MOL_PROPERTY
Grad RMS
SciTegic.value.DoubleValue
0.000000

@<SCITEGIC>MOL_PROPERTY
U
SciTegic.value.DoubleValue
8.390

@<SCITEGIC>MOL_PROPERTY
W
SciTegic.value.DoubleValue
-66.722

@<SCITEGIC>MOL_PROPERTY
W(PB)
SciTegic.value.DoubleValue
-68.455

@<SCITEGIC>MOL_PROPERTY
W(SA)
SciTegic.value.DoubleValue
1.733

@<SCITEGIC>MOL_PROPERTY
Valence
SciTegic.value.DoubleValue
6.333

@<SCITEGIC>MOL_PROPERTY
Coulomb
SciTegic.value.DoubleValue
1.215

@<SCITEGIC>MOL_PROPERTY
VdW
SciTegic.value.DoubleValue
0.842

@<SCITEGIC>MOL_PROPERTY
VdW6
SciTegic.value.DoubleValue
-3.344

@<SCITEGIC>MOL_PROPERTY
VdW12
SciTegic.value.DoubleValue
4.186

@<SCITEGIC>MOL_PROPERTY
Bond
SciTegic.value.DoubleValue
0.091

@<SCITEGIC>MOL_PROPERTY
Angle
SciTegic.value.DoubleValue
2.713

@<SCITEGIC>MOL_PROPERTY
Pdih
SciTegic.value.DoubleValue
3.529

@<SCITEGIC>MOL_PROPERTY
Idih
SciTegic.value.DoubleValue
0.000

@<SCITEGIC>MOL_PROPERTY
Tether
SciTegic.value.DoubleValue
0.000

@<TRIPOS>MOLECULE
guest-6_confgen4.mol2 : confsearch ligand conformer 606
          13          12           1
SMALL
USER_CHARGES
 
@<TRIPOS>ATOM
       1    C1      18.356809   18.063081   22.749211 C.2        1 MOL1         0.6021
       2    O1      17.253150   18.472173   22.449308 O.co2      1 MOL1        -0.6904
       3    O2      18.597571   17.482102   23.788373 O.co2      1 MOL1        -0.6904
       4    C2      19.505862   18.308721   21.777183 C.3        1 MOL1        -0.2102
       5    H1      19.101106   18.288384   20.757979 H          1 MOL1         0.0687
       6    H2      20.209786   17.471897   21.862240 H          1 MOL1         0.0687
       7    C3      20.237691   19.648432   22.033015 C.3        1 MOL1        -0.1974
       8    H3      19.521207   20.478127   21.955052 H          1 MOL1         0.0689
       9    H4      20.630198   19.661430   23.059462 H          1 MOL1         0.0689
      10    C4      21.392446   19.866815   21.034947 C.3        1 MOL1        -0.2987
      11    H5      21.898727   20.820801   21.232056 H          1 MOL1         0.0700
      12    H6      22.137815   19.064588   21.115031 H          1 MOL1         0.0700
      13    H7      21.020305   19.887587   20.002166 H          1 MOL1         0.0700
@<TRIPOS>BOND
    1     1     2    1
    2     1     3    2
    3     1     4    1
    4     4     5    1
    5     4     6    1
    6     4     7    1
    7     7     8    1
    8     7     9    1
    9     7    10    1
   10    10    11    1
   11    10    12    1
   12    10    13    1
@<TRIPOS>SUBSTRUCTURE
       1 MOL1            1 RESIDUE      1      MOL     
@<SCITEGIC>MOL_PROPERTY
VConf Rank
SciTegic.value.IntegerValue
606

@<SCITEGIC>MOL_PROPERTY
Conf_Id
SciTegic.value.IntegerValue
1

@<SCITEGIC>MOL_PROPERTY
Delta U+W
SciTegic.value.DoubleValue
-1.339

@<SCITEGIC>MOL_PROPERTY
U+W
SciTegic.value.DoubleValue
-59.672

@<SCITEGIC>MOL_PROPERTY
Grad RMS
SciTegic.value.DoubleValue
0.000000

@<SCITEGIC>MOL_PROPERTY
U
SciTegic.value.DoubleValue
7.389

@<SCITEGIC>MOL_PROPERTY
W
SciTegic.value.DoubleValue
-67.061

@<SCITEGIC>MOL_PROPERTY
W(PB)
SciTegic.value.DoubleValue
-68.767

@<SCITEGIC>MOL_PROPERTY
W(SA)
SciTegic.value.DoubleValue
1.707

@<SCITEGIC>MOL_PROPERTY
Valence
SciTegic.value.DoubleValue
5.822

@<SCITEGIC>MOL_PROPERTY
Coulomb
SciTegic.value.DoubleValue
1.255

@<SCITEGIC>MOL_PROPERTY
VdW
SciTegic.value.DoubleValue
0.312

@<SCITEGIC>MOL_PROPERTY
VdW6
SciTegic.value.DoubleValue
-3.061

@<SCITEGIC>MOL_PROPERTY
VdW12
SciTegic.value.DoubleValue
3.372

@<SCITEGIC>MOL_PROPERTY
Bond
SciTegic.value.DoubleValue
0.059

@<SCITEGIC>MOL_PROPERTY
Angle
SciTegic.value.DoubleValue
2.241

@<SCITEGIC>MOL_PROPERTY
Pdih
SciTegic.value.DoubleValue
3.522

@<SCITEGIC>MOL_PROPERTY
Idih
SciTegic.value.DoubleValue
0.000

@<SCITEGIC>MOL_PROPERTY
Tether
SciTegic.value.DoubleValue
0.000

@<TRIPOS>MOLECULE
guest-6_confgen4.mol2 : confsearch ligand conformer 607
          13          12           1
SMALL
USER_CHARGES
 
@<TRIPOS>ATOM
       1    C1      19.335415   20.308265   21.108285 C.2        1 MOL1         0.6021
       2    O1      18.671445   21.074025   21.778249 O.co2      1 MOL1        -0.6904
       3    O2      20.049002   20.665940   20.192443 O.co2      1 MOL1        -0.6904
       4    C2      19.238382   18.815323   21.412318 C.3        1 MOL1        -0.2102
       5    H1      19.621394   18.255500   20.550234 H          1 MOL1         0.0687
       6    H2      18.173806   18.568476   21.502481 H          1 MOL1         0.0687
       7    C3      19.979413   18.381021   22.702897 C.3        1 MOL1        -0.1974
       8    H3      19.617588   18.976580   23.552789 H          1 MOL1         0.0689
       9    H4      19.733236   17.333470   22.924045 H          1 MOL1         0.0689
      10    C4      21.510638   18.523855   22.580931 C.3        1 MOL1        -0.2987
      11    H5      21.796621   19.569075   22.403290 H          1 MOL1         0.0700
      12    H6      22.004922   18.190115   23.502558 H          1 MOL1         0.0700
      13    H7      21.896322   17.918364   21.750256 H          1 MOL1         0.0700
@<TRIPOS>BOND
    1     1     2    1
    2     1     3    2
    3     1     4    1
    4     4     5    1
    5     4     6    1
    6     4     7    1
    7     7     8    1
    8     7     9    1
    9     7    10    1
   10    10    11    1
   11    10    12    1
   12    10    13    1
@<TRIPOS>SUBSTRUCTURE
       1 MOL1            1 RESIDUE      1      MOL     
@<SCITEGIC>MOL_PROPERTY
VConf Rank
SciTegic.value.IntegerValue
607

@<SCITEGIC>MOL_PROPERTY
Conf_Id
SciTegic.value.IntegerValue
4

@<SCITEGIC>MOL_PROPERTY
Delta U+W
SciTegic.value.DoubleValue
0.281

@<SCITEGIC>MOL_PROPERTY
U+W
SciTegic.value.DoubleValue
-58.051

@<SCITEGIC>MOL_PROPERTY
Grad RMS
SciTegic.value.DoubleValue
0.000000

@<SCITEGIC>MOL_PROPERTY
U
SciTegic.value.DoubleValue
9.781

@<SCITEGIC>MOL_PROPERTY
W
SciTegic.value.DoubleValue
-67.832

@<SCITEGIC>MOL_PROPERTY
W(PB)
SciTegic.value.DoubleValue
-69.535

@<SCITEGIC>MOL_PROPERTY
W(SA)
SciTegic.value.DoubleValue
1.703

@<SCITEGIC>MOL_PROPERTY
Valence
SciTegic.value.DoubleValue
6.123

@<SCITEGIC>MOL_PROPERTY
Coulomb
SciTegic.value.DoubleValue
3.449

@<SCITEGIC>MOL_PROPERTY
VdW
SciTegic.value.DoubleValue
0.209

@<SCITEGIC>MOL_PROPERTY
VdW6
SciTegic.value.DoubleValue
-3.762

@<SCITEGIC>MOL_PROPERTY
VdW12
SciTegic.value.DoubleValue
3.972

@<SCITEGIC>MOL_PROPERTY
Bond
SciTegic.value.DoubleValue
0.078

@<SCITEGIC>MOL_PROPERTY
Angle
SciTegic.value.DoubleValue
2.428

@<SCITEGIC>MOL_PROPERTY
Pdih
SciTegic.value.DoubleValue
3.616

@<SCITEGIC>MOL_PROPERTY
Idih
SciTegic.value.DoubleValue
0.002

@<SCITEGIC>MOL_PROPERTY
Tether
SciTegic.value.DoubleValue
0.000

@<TRIPOS>MOLECULE
guest-6_confgen4.mol2 : confsearch ligand conformer 608
          13          12           1
SMALL
USER_CHARGES
 
@<TRIPOS>ATOM
       1    C1      20.973634   17.508257   21.408217 C.2        1 MOL1         0.6021
       2    O1      20.185767   16.590010   21.298693 O.co2      1 MOL1        -0.6904
       3    O2      21.887141   17.703043   20.631261 O.co2      1 MOL1        -0.6904
       4    C2      20.832323   18.447057   22.603796 C.3        1 MOL1        -0.2102
       5    H1      21.826039   18.553923   23.054901 H          1 MOL1         0.0687
       6    H2      20.193655   17.966017   23.354789 H          1 MOL1         0.0687
       7    C3      20.274440   19.848887   22.247460 C.3        1 MOL1        -0.1974
       8    H3      20.348288   20.500354   23.128941 H          1 MOL1         0.0689
       9    H4      20.897380   20.304564   21.465011 H          1 MOL1         0.0689
      10    C4      18.805135   19.798224   21.780018 C.3        1 MOL1        -0.2987
      11    H5      18.160853   19.366057   22.556887 H          1 MOL1         0.0700
      12    H6      18.435758   20.807200   21.555020 H          1 MOL1         0.0700
      13    H7      18.700599   19.189583   20.872023 H          1 MOL1         0.0700
@<TRIPOS>BOND
    1     1     2    1
    2     1     3    2
    3     1     4    1
    4     4     5    1
    5     4     6    1
    6     4     7    1
    7     7     8    1
    8     7     9    1
    9     7    10    1
   10    10    11    1
   11    10    12    1
   12    10    13    1
@<TRIPOS>SUBSTRUCTURE
       1 MOL1            1 RESIDUE      1      MOL     
@<SCITEGIC>MOL_PROPERTY
VConf Rank
SciTegic.value.IntegerValue
608

@<SCITEGIC>MOL_PROPERTY
Conf_Id
SciTegic.value.IntegerValue
36

@<SCITEGIC>MOL_PROPERTY
Delta U+W
SciTegic.value.DoubleValue
0.272

@<SCITEGIC>MOL_PROPERTY
U+W
SciTegic.value.DoubleValue
-58.060

@<SCITEGIC>MOL_PROPERTY
Grad RMS
SciTegic.value.DoubleValue
0.000000

@<SCITEGIC>MOL_PROPERTY
U
SciTegic.value.DoubleValue
9.781

@<SCITEGIC>MOL_PROPERTY
W
SciTegic.value.DoubleValue
-67.841

@<SCITEGIC>MOL_PROPERTY
W(PB)
SciTegic.value.DoubleValue
-69.537

@<SCITEGIC>MOL_PROPERTY
W(SA)
SciTegic.value.DoubleValue
1.696

@<SCITEGIC>MOL_PROPERTY
Valence
SciTegic.value.DoubleValue
6.123

@<SCITEGIC>MOL_PROPERTY
Coulomb
SciTegic.value.DoubleValue
3.449

@<SCITEGIC>MOL_PROPERTY
VdW
SciTegic.value.DoubleValue
0.209

@<SCITEGIC>MOL_PROPERTY
VdW6
SciTegic.value.DoubleValue
-3.762

@<SCITEGIC>MOL_PROPERTY
VdW12
SciTegic.value.DoubleValue
3.972

@<SCITEGIC>MOL_PROPERTY
Bond
SciTegic.value.DoubleValue
0.078

@<SCITEGIC>MOL_PROPERTY
Angle
SciTegic.value.DoubleValue
2.428

@<SCITEGIC>MOL_PROPERTY
Pdih
SciTegic.value.DoubleValue
3.616

@<SCITEGIC>MOL_PROPERTY
Idih
SciTegic.value.DoubleValue
0.002

@<SCITEGIC>MOL_PROPERTY
Tether
SciTegic.value.DoubleValue
0.000

@<TRIPOS>MOLECULE
guest-6_confgen4.mol2 : confsearch ligand conformer 609
          13          12           1
SMALL
USER_CHARGES
 
@<TRIPOS>ATOM
       1    C1      21.652193   19.599649   23.059196 C.2        1 MOL1         0.6021
       2    O1      21.382488   20.774470   23.215352 O.co2      1 MOL1        -0.6904
       3    O2      22.630298   19.074531   23.551496 O.co2      1 MOL1        -0.6904
       4    C2      20.737688   18.715745   22.208857 C.3        1 MOL1        -0.2102
       5    H1      20.409176   17.881338   22.839874 H          1 MOL1         0.0687
       6    H2      21.349537   18.288212   21.405617 H          1 MOL1         0.0687
       7    C3      19.501791   19.429154   21.600939 C.3        1 MOL1        -0.1974
       8    H3      18.891546   19.859371   22.407332 H          1 MOL1         0.0689
       9    H4      19.833060   20.266801   20.971366 H          1 MOL1         0.0689
      10    C4      18.641416   18.462392   20.762511 C.3        1 MOL1        -0.2987
      11    H5      18.271741   17.631325   21.377483 H          1 MOL1         0.0700
      12    H6      17.772612   18.984668   20.341011 H          1 MOL1         0.0700
      13    H7      19.220845   18.041990   19.930017 H          1 MOL1         0.0700
@<TRIPOS>BOND
    1     1     2    1
    2     1     3    2
    3     1     4    1
    4     4     5    1
    5     4     6    1
    6     4     7    1
    7     7     8    1
    8     7     9    1
    9     7    10    1
   10    10    11    1
   11    10    12    1
   12    10    13    1
@<TRIPOS>SUBSTRUCTURE
       1 MOL1            1 RESIDUE      1      MOL     
@<SCITEGIC>MOL_PROPERTY
VConf Rank
SciTegic.value.IntegerValue
609

@<SCITEGIC>MOL_PROPERTY
Conf_Id
SciTegic.value.IntegerValue
0

@<SCITEGIC>MOL_PROPERTY
Delta U+W
SciTegic.value.DoubleValue
0.000

@<SCITEGIC>MOL_PROPERTY
U+W
SciTegic.value.DoubleValue
-58.332

@<SCITEGIC>MOL_PROPERTY
Grad RMS
SciTegic.value.DoubleValue
0.000000

@<SCITEGIC>MOL_PROPERTY
U
SciTegic.value.DoubleValue
8.390

@<SCITEGIC>MOL_PROPERTY
W
SciTegic.value.DoubleValue
-66.722

@<SCITEGIC>MOL_PROPERTY
W(PB)
SciTegic.value.DoubleValue
-68.455

@<SCITEGIC>MOL_PROPERTY
W(SA)
SciTegic.value.DoubleValue
1.733

@<SCITEGIC>MOL_PROPERTY
Valence
SciTegic.value.DoubleValue
6.333

@<SCITEGIC>MOL_PROPERTY
Coulomb
SciTegic.value.DoubleValue
1.215

@<SCITEGIC>MOL_PROPERTY
VdW
SciTegic.value.DoubleValue
0.842

@<SCITEGIC>MOL_PROPERTY
VdW6
SciTegic.value.DoubleValue
-3.344

@<SCITEGIC>MOL_PROPERTY
VdW12
SciTegic.value.DoubleValue
4.186

@<SCITEGIC>MOL_PROPERTY
Bond
SciTegic.value.DoubleValue
0.091

@<SCITEGIC>MOL_PROPERTY
Angle
SciTegic.value.DoubleValue
2.713

@<SCITEGIC>MOL_PROPERTY
Pdih
SciTegic.value.DoubleValue
3.529

@<SCITEGIC>MOL_PROPERTY
Idih
SciTegic.value.DoubleValue
0.000

@<SCITEGIC>MOL_PROPERTY
Tether
SciTegic.value.DoubleValue
0.000

@<TRIPOS>MOLECULE
guest-6_confgen4.mol2 : confsearch ligand conformer 610
          13          12           1
SMALL
USER_CHARGES
 
@<TRIPOS>ATOM
       1    C1      21.410098   19.993713   23.069550 C.2        1 MOL1         0.6021
       2    O1      21.495335   19.574048   24.206201 O.co2      1 MOL1        -0.6904
       3    O2      21.731858   21.118736   22.743738 O.co2      1 MOL1        -0.6904
       4    C2      20.851398   19.064227   21.997445 C.3        1 MOL1        -0.2102
       5    H1      21.141241   18.037268   22.251147 H          1 MOL1         0.0687
       6    H2      21.336311   19.311100   21.045115 H          1 MOL1         0.0687
       7    C3      19.313451   19.163473   21.853505 C.3        1 MOL1        -0.1974
       8    H3      18.839114   18.923922   22.815503 H          1 MOL1         0.0689
       9    H4      19.034239   20.197949   21.609122 H          1 MOL1         0.0689
      10    C4      18.780446   18.212580   20.763093 C.3        1 MOL1        -0.2987
      11    H5      17.689342   18.297145   20.675893 H          1 MOL1         0.0700
      12    H6      19.218247   18.451883   19.785024 H          1 MOL1         0.0700
      13    H7      19.021593   17.168092   21.000685 H          1 MOL1         0.0700
@<TRIPOS>BOND
    1     1     2    1
    2     1     3    2
    3     1     4    1
    4     4     5    1
    5     4     6    1
    6     4     7    1
    7     7     8    1
    8     7     9    1
    9     7    10    1
   10    10    11    1
   11    10    12    1
   12    10    13    1
@<TRIPOS>SUBSTRUCTURE
       1 MOL1            1 RESIDUE      1      MOL     
@<SCITEGIC>MOL_PROPERTY
VConf Rank
SciTegic.value.IntegerValue
610

@<SCITEGIC>MOL_PROPERTY
Conf_Id
SciTegic.value.IntegerValue
1

@<SCITEGIC>MOL_PROPERTY
Delta U+W
SciTegic.value.DoubleValue
-1.339

@<SCITEGIC>MOL_PROPERTY
U+W
SciTegic.value.DoubleValue
-59.672

@<SCITEGIC>MOL_PROPERTY
Grad RMS
SciTegic.value.DoubleValue
0.000000

@<SCITEGIC>MOL_PROPERTY
U
SciTegic.value.DoubleValue
7.389

@<SCITEGIC>MOL_PROPERTY
W
SciTegic.value.DoubleValue
-67.061

@<SCITEGIC>MOL_PROPERTY
W(PB)
SciTegic.value.DoubleValue
-68.767

@<SCITEGIC>MOL_PROPERTY
W(SA)
SciTegic.value.DoubleValue
1.707

@<SCITEGIC>MOL_PROPERTY
Valence
SciTegic.value.DoubleValue
5.822

@<SCITEGIC>MOL_PROPERTY
Coulomb
SciTegic.value.DoubleValue
1.255

@<SCITEGIC>MOL_PROPERTY
VdW
SciTegic.value.DoubleValue
0.312

@<SCITEGIC>MOL_PROPERTY
VdW6
SciTegic.value.DoubleValue
-3.061

@<SCITEGIC>MOL_PROPERTY
VdW12
SciTegic.value.DoubleValue
3.372

@<SCITEGIC>MOL_PROPERTY
Bond
SciTegic.value.DoubleValue
0.059

@<SCITEGIC>MOL_PROPERTY
Angle
SciTegic.value.DoubleValue
2.241

@<SCITEGIC>MOL_PROPERTY
Pdih
SciTegic.value.DoubleValue
3.522

@<SCITEGIC>MOL_PROPERTY
Idih
SciTegic.value.DoubleValue
0.000

@<SCITEGIC>MOL_PROPERTY
Tether
SciTegic.value.DoubleValue
0.000

@<TRIPOS>MOLECULE
guest-6_confgen4.mol2 : confsearch ligand conformer 611
          13          12           1
SMALL
USER_CHARGES
 
@<TRIPOS>ATOM
       1    C1      21.767154   18.250315   22.012870 C.2        1 MOL1         0.6021
       2    O1      21.918340   17.280140   22.728412 O.co2      1 MOL1        -0.6904
       3    O2      22.267547   18.353894   20.910698 O.co2      1 MOL1        -0.6904
       4    C2      20.933613   19.413979   22.543740 C.3        1 MOL1        -0.2102
       5    H1      21.154577   20.306337   21.945276 H          1 MOL1         0.0687
       6    H2      21.277173   19.623782   23.563709 H          1 MOL1         0.0687
       7    C3      19.406762   19.145958   22.558918 C.3        1 MOL1        -0.1974
       8    H3      19.200265   18.227456   23.126048 H          1 MOL1         0.0689
       9    H4      18.902867   19.964918   23.090205 H          1 MOL1         0.0689
      10    C4      18.814237   19.026236   21.139584 C.3        1 MOL1        -0.2987
      11    H5      19.264795   18.186947   20.593306 H          1 MOL1         0.0700
      12    H6      17.730621   18.856713   21.185791 H          1 MOL1         0.0700
      13    H7      18.990232   19.943333   20.562218 H          1 MOL1         0.0700
@<TRIPOS>BOND
    1     1     2    1
    2     1     3    2
    3     1     4    1
    4     4     5    1
    5     4     6    1
    6     4     7    1
    7     7     8    1
    8     7     9    1
    9     7    10    1
   10    10    11    1
   11    10    12    1
   12    10    13    1
@<TRIPOS>SUBSTRUCTURE
       1 MOL1            1 RESIDUE      1      MOL     
@<SCITEGIC>MOL_PROPERTY
VConf Rank
SciTegic.value.IntegerValue
611

@<SCITEGIC>MOL_PROPERTY
Conf_Id
SciTegic.value.IntegerValue
4

@<SCITEGIC>MOL_PROPERTY
Delta U+W
SciTegic.value.DoubleValue
0.281

@<SCITEGIC>MOL_PROPERTY
U+W
SciTegic.value.DoubleValue
-58.051

@<SCITEGIC>MOL_PROPERTY
Grad RMS
SciTegic.value.DoubleValue
0.000000

@<SCITEGIC>MOL_PROPERTY
U
SciTegic.value.DoubleValue
9.781

@<SCITEGIC>MOL_PROPERTY
W
SciTegic.value.DoubleValue
-67.832

@<SCITEGIC>MOL_PROPERTY
W(PB)
SciTegic.value.DoubleValue
-69.535

@<SCITEGIC>MOL_PROPERTY
W(SA)
SciTegic.value.DoubleValue
1.703

@<SCITEGIC>MOL_PROPERTY
Valence
SciTegic.value.DoubleValue
6.123

@<SCITEGIC>MOL_PROPERTY
Coulomb
SciTegic.value.DoubleValue
3.449

@<SCITEGIC>MOL_PROPERTY
VdW
SciTegic.value.DoubleValue
0.209

@<SCITEGIC>MOL_PROPERTY
VdW6
SciTegic.value.DoubleValue
-3.762

@<SCITEGIC>MOL_PROPERTY
VdW12
SciTegic.value.DoubleValue
3.972

@<SCITEGIC>MOL_PROPERTY
Bond
SciTegic.value.DoubleValue
0.078

@<SCITEGIC>MOL_PROPERTY
Angle
SciTegic.value.DoubleValue
2.428

@<SCITEGIC>MOL_PROPERTY
Pdih
SciTegic.value.DoubleValue
3.616

@<SCITEGIC>MOL_PROPERTY
Idih
SciTegic.value.DoubleValue
0.002

@<SCITEGIC>MOL_PROPERTY
Tether
SciTegic.value.DoubleValue
0.000

@<TRIPOS>MOLECULE
guest-6_confgen4.mol2 : confsearch ligand conformer 612
          13          12           1
SMALL
USER_CHARGES
 
@<TRIPOS>ATOM
       1    C1      19.759567   20.703754   22.261207 C.2        1 MOL1         0.6021
       2    O1      18.558619   20.863117   22.351943 O.co2      1 MOL1        -0.6904
       3    O2      20.568877   21.319524   22.925993 O.co2      1 MOL1        -0.6904
       4    C2      20.283350   19.703709   21.233449 C.3        1 MOL1        -0.2102
       5    H1      21.081613   20.201531   20.670123 H          1 MOL1         0.0687
       6    H2      19.481633   19.482339   20.518235 H          1 MOL1         0.0687
       7    C3      20.828672   18.389028   21.847920 C.3        1 MOL1        -0.1974
       8    H3      21.317904   17.799534   21.060506 H          1 MOL1         0.0689
       9    H4      21.601883   18.624249   22.592727 H          1 MOL1         0.0689
      10    C4      19.719593   17.537334   22.499448 C.3        1 MOL1        -0.2987
      11    H5      18.946726   17.272014   21.766186 H          1 MOL1         0.0700
      12    H6      20.135439   16.606467   22.906453 H          1 MOL1         0.0700
      13    H7      19.237135   18.080574   23.322826 H          1 MOL1         0.0700
@<TRIPOS>BOND
    1     1     2    1
    2     1     3    2
    3     1     4    1
    4     4     5    1
    5     4     6    1
    6     4     7    1
    7     7     8    1
    8     7     9    1
    9     7    10    1
   10    10    11    1
   11    10    12    1
   12    10    13    1
@<TRIPOS>SUBSTRUCTURE
       1 MOL1            1 RESIDUE      1      MOL     
@<SCITEGIC>MOL_PROPERTY
VConf Rank
SciTegic.value.IntegerValue
612

@<SCITEGIC>MOL_PROPERTY
Conf_Id
SciTegic.value.IntegerValue
36

@<SCITEGIC>MOL_PROPERTY
Delta U+W
SciTegic.value.DoubleValue
0.272

@<SCITEGIC>MOL_PROPERTY
U+W
SciTegic.value.DoubleValue
-58.060

@<SCITEGIC>MOL_PROPERTY
Grad RMS
SciTegic.value.DoubleValue
0.000000

@<SCITEGIC>MOL_PROPERTY
U
SciTegic.value.DoubleValue
9.781

@<SCITEGIC>MOL_PROPERTY
W
SciTegic.value.DoubleValue
-67.841

@<SCITEGIC>MOL_PROPERTY
W(PB)
SciTegic.value.DoubleValue
-69.537

@<SCITEGIC>MOL_PROPERTY
W(SA)
SciTegic.value.DoubleValue
1.696

@<SCITEGIC>MOL_PROPERTY
Valence
SciTegic.value.DoubleValue
6.123

@<SCITEGIC>MOL_PROPERTY
Coulomb
SciTegic.value.DoubleValue
3.449

@<SCITEGIC>MOL_PROPERTY
VdW
SciTegic.value.DoubleValue
0.209

@<SCITEGIC>MOL_PROPERTY
VdW6
SciTegic.value.DoubleValue
-3.762

@<SCITEGIC>MOL_PROPERTY
VdW12
SciTegic.value.DoubleValue
3.972

@<SCITEGIC>MOL_PROPERTY
Bond
SciTegic.value.DoubleValue
0.078

@<SCITEGIC>MOL_PROPERTY
Angle
SciTegic.value.DoubleValue
2.428

@<SCITEGIC>MOL_PROPERTY
Pdih
SciTegic.value.DoubleValue
3.616

@<SCITEGIC>MOL_PROPERTY
Idih
SciTegic.value.DoubleValue
0.002

@<SCITEGIC>MOL_PROPERTY
Tether
SciTegic.value.DoubleValue
0.000

@<TRIPOS>MOLECULE
guest-6_confgen4.mol2 : confsearch ligand conformer 613
          13          12           1
SMALL
USER_CHARGES
 
@<TRIPOS>ATOM
       1    C1      18.634788   20.507431   22.413602 C.2        1 MOL1         0.6021
       2    O1      17.783229   19.819100   22.941215 O.co2      1 MOL1        -0.6904
       3    O2      18.552561   21.716483   22.334687 O.co2      1 MOL1        -0.6904
       4    C2      19.878599   19.850582   21.811802 C.3        1 MOL1        -0.2102
       5    H1      20.753323   20.295568   22.300866 H          1 MOL1         0.0687
       6    H2      19.922025   20.138130   20.754557 H          1 MOL1         0.0687
       7    C3      19.940155   18.305674   21.936013 C.3        1 MOL1        -0.1974
       8    H3      19.893573   18.019509   22.996057 H          1 MOL1         0.0689
       9    H4      19.061207   17.861873   21.447909 H          1 MOL1         0.0689
      10    C4      21.225077   17.734233   21.303348 C.3        1 MOL1        -0.2987
      11    H5      22.119084   18.139440   21.795367 H          1 MOL1         0.0700
      12    H6      21.250723   16.641029   21.400833 H          1 MOL1         0.0700
      13    H7      21.280048   17.980592   20.234794 H          1 MOL1         0.0700
@<TRIPOS>BOND
    1     1     2    1
    2     1     3    2
    3     1     4    1
    4     4     5    1
    5     4     6    1
    6     4     7    1
    7     7     8    1
    8     7     9    1
    9     7    10    1
   10    10    11    1
   11    10    12    1
   12    10    13    1
@<TRIPOS>SUBSTRUCTURE
       1 MOL1            1 RESIDUE      1      MOL     
@<SCITEGIC>MOL_PROPERTY
VConf Rank
SciTegic.value.IntegerValue
613

@<SCITEGIC>MOL_PROPERTY
Conf_Id
SciTegic.value.IntegerValue
0

@<SCITEGIC>MOL_PROPERTY
Delta U+W
SciTegic.value.DoubleValue
0.000

@<SCITEGIC>MOL_PROPERTY
U+W
SciTegic.value.DoubleValue
-58.332

@<SCITEGIC>MOL_PROPERTY
Grad RMS
SciTegic.value.DoubleValue
0.000000

@<SCITEGIC>MOL_PROPERTY
U
SciTegic.value.DoubleValue
8.390

@<SCITEGIC>MOL_PROPERTY
W
SciTegic.value.DoubleValue
-66.722

@<SCITEGIC>MOL_PROPERTY
W(PB)
SciTegic.value.DoubleValue
-68.455

@<SCITEGIC>MOL_PROPERTY
W(SA)
SciTegic.value.DoubleValue
1.733

@<SCITEGIC>MOL_PROPERTY
Valence
SciTegic.value.DoubleValue
6.333

@<SCITEGIC>MOL_PROPERTY
Coulomb
SciTegic.value.DoubleValue
1.215

@<SCITEGIC>MOL_PROPERTY
VdW
SciTegic.value.DoubleValue
0.842

@<SCITEGIC>MOL_PROPERTY
VdW6
SciTegic.value.DoubleValue
-3.344

@<SCITEGIC>MOL_PROPERTY
VdW12
SciTegic.value.DoubleValue
4.186

@<SCITEGIC>MOL_PROPERTY
Bond
SciTegic.value.DoubleValue
0.091

@<SCITEGIC>MOL_PROPERTY
Angle
SciTegic.value.DoubleValue
2.713

@<SCITEGIC>MOL_PROPERTY
Pdih
SciTegic.value.DoubleValue
3.529

@<SCITEGIC>MOL_PROPERTY
Idih
SciTegic.value.DoubleValue
0.000

@<SCITEGIC>MOL_PROPERTY
Tether
SciTegic.value.DoubleValue
0.000

@<TRIPOS>MOLECULE
guest-6_confgen4.mol2 : confsearch ligand conformer 614
          13          12           1
SMALL
USER_CHARGES
 
@<TRIPOS>ATOM
       1    C1      19.738184   16.975696   21.461035 C.2        1 MOL1         0.6021
       2    O1      18.681973   16.648405   20.958381 O.co2      1 MOL1        -0.6904
       3    O2      20.426138   16.226390   22.124827 O.co2      1 MOL1        -0.6904
       4    C2      20.217104   18.410008   21.263843 C.3        1 MOL1        -0.2102
       5    H1      19.875327   18.751735   20.279247 H          1 MOL1         0.0687
       6    H2      21.313673   18.403710   21.241147 H          1 MOL1         0.0687
       7    C3      19.712704   19.372336   22.366274 C.3        1 MOL1        -0.1974
       8    H3      18.613917   19.362919   22.386318 H          1 MOL1         0.0689
       9    H4      20.052638   19.014902   23.348368 H          1 MOL1         0.0689
      10    C4      20.213465   20.812687   22.138423 C.3        1 MOL1        -0.2987
      11    H5      19.845937   21.479529   22.929312 H          1 MOL1         0.0700
      12    H6      21.310704   20.852567   22.144127 H          1 MOL1         0.0700
      13    H7      19.860913   21.203255   21.174721 H          1 MOL1         0.0700
@<TRIPOS>BOND
    1     1     2    1
    2     1     3    2
    3     1     4    1
    4     4     5    1
    5     4     6    1
    6     4     7    1
    7     7     8    1
    8     7     9    1
    9     7    10    1
   10    10    11    1
   11    10    12    1
   12    10    13    1
@<TRIPOS>SUBSTRUCTURE
       1 MOL1            1 RESIDUE      1      MOL     
@<SCITEGIC>MOL_PROPERTY
VConf Rank
SciTegic.value.IntegerValue
614

@<SCITEGIC>MOL_PROPERTY
Conf_Id
SciTegic.value.IntegerValue
1

@<SCITEGIC>MOL_PROPERTY
Delta U+W
SciTegic.value.DoubleValue
-1.339

@<SCITEGIC>MOL_PROPERTY
U+W
SciTegic.value.DoubleValue
-59.672

@<SCITEGIC>MOL_PROPERTY
Grad RMS
SciTegic.value.DoubleValue
0.000000

@<SCITEGIC>MOL_PROPERTY
U
SciTegic.value.DoubleValue
7.389

@<SCITEGIC>MOL_PROPERTY
W
SciTegic.value.DoubleValue
-67.061

@<SCITEGIC>MOL_PROPERTY
W(PB)
SciTegic.value.DoubleValue
-68.767

@<SCITEGIC>MOL_PROPERTY
W(SA)
SciTegic.value.DoubleValue
1.707

@<SCITEGIC>MOL_PROPERTY
Valence
SciTegic.value.DoubleValue
5.822

@<SCITEGIC>MOL_PROPERTY
Coulomb
SciTegic.value.DoubleValue
1.255

@<SCITEGIC>MOL_PROPERTY
VdW
SciTegic.value.DoubleValue
0.312

@<SCITEGIC>MOL_PROPERTY
VdW6
SciTegic.value.DoubleValue
-3.061

@<SCITEGIC>MOL_PROPERTY
VdW12
SciTegic.value.DoubleValue
3.372

@<SCITEGIC>MOL_PROPERTY
Bond
SciTegic.value.DoubleValue
0.059

@<SCITEGIC>MOL_PROPERTY
Angle
SciTegic.value.DoubleValue
2.241

@<SCITEGIC>MOL_PROPERTY
Pdih
SciTegic.value.DoubleValue
3.522

@<SCITEGIC>MOL_PROPERTY
Idih
SciTegic.value.DoubleValue
0.000

@<SCITEGIC>MOL_PROPERTY
Tether
SciTegic.value.DoubleValue
0.000

@<TRIPOS>MOLECULE
guest-6_confgen4.mol2 : confsearch ligand conformer 615
          13          12           1
SMALL
USER_CHARGES
 
@<TRIPOS>ATOM
       1    C1      20.555824   18.898755   20.258996 C.2        1 MOL1         0.6021
       2    O1      19.925895   19.632957   19.523989 O.co2      1 MOL1        -0.6904
       3    O2      21.748165   18.697132   20.142489 O.co2      1 MOL1        -0.6904
       4    C2      19.800179   18.164552   21.363838 C.3        1 MOL1        -0.2102
       5    H1      20.416408   17.327651   21.714758 H          1 MOL1         0.0687
       6    H2      18.901747   17.728215   20.911271 H          1 MOL1         0.0687
       7    C3      19.390886   19.063851   22.558443 C.3        1 MOL1        -0.1974
       8    H3      18.809241   19.920988   22.191118 H          1 MOL1         0.0689
       9    H4      18.728658   18.495937   23.226125 H          1 MOL1         0.0689
      10    C4      20.607399   19.566188   23.363231 C.3        1 MOL1        -0.2987
      11    H5      21.270538   20.176861   22.736213 H          1 MOL1         0.0700
      12    H6      20.282292   20.182417   24.211560 H          1 MOL1         0.0700
      13    H7      21.190952   18.724507   23.758745 H          1 MOL1         0.0700
@<TRIPOS>BOND
    1     1     2    1
    2     1     3    2
    3     1     4    1
    4     4     5    1
    5     4     6    1
    6     4     7    1
    7     7     8    1
    8     7     9    1
    9     7    10    1
   10    10    11    1
   11    10    12    1
   12    10    13    1
@<TRIPOS>SUBSTRUCTURE
       1 MOL1            1 RESIDUE      1      MOL     
@<SCITEGIC>MOL_PROPERTY
VConf Rank
SciTegic.value.IntegerValue
615

@<SCITEGIC>MOL_PROPERTY
Conf_Id
SciTegic.value.IntegerValue
4

@<SCITEGIC>MOL_PROPERTY
Delta U+W
SciTegic.value.DoubleValue
0.281

@<SCITEGIC>MOL_PROPERTY
U+W
SciTegic.value.DoubleValue
-58.051

@<SCITEGIC>MOL_PROPERTY
Grad RMS
SciTegic.value.DoubleValue
0.000000

@<SCITEGIC>MOL_PROPERTY
U
SciTegic.value.DoubleValue
9.781

@<SCITEGIC>MOL_PROPERTY
W
SciTegic.value.DoubleValue
-67.832

@<SCITEGIC>MOL_PROPERTY
W(PB)
SciTegic.value.DoubleValue
-69.535

@<SCITEGIC>MOL_PROPERTY
W(SA)
SciTegic.value.DoubleValue
1.703

@<SCITEGIC>MOL_PROPERTY
Valence
SciTegic.value.DoubleValue
6.123

@<SCITEGIC>MOL_PROPERTY
Coulomb
SciTegic.value.DoubleValue
3.449

@<SCITEGIC>MOL_PROPERTY
VdW
SciTegic.value.DoubleValue
0.209

@<SCITEGIC>MOL_PROPERTY
VdW6
SciTegic.value.DoubleValue
-3.762

@<SCITEGIC>MOL_PROPERTY
VdW12
SciTegic.value.DoubleValue
3.972

@<SCITEGIC>MOL_PROPERTY
Bond
SciTegic.value.DoubleValue
0.078

@<SCITEGIC>MOL_PROPERTY
Angle
SciTegic.value.DoubleValue
2.428

@<SCITEGIC>MOL_PROPERTY
Pdih
SciTegic.value.DoubleValue
3.616

@<SCITEGIC>MOL_PROPERTY
Idih
SciTegic.value.DoubleValue
0.002

@<SCITEGIC>MOL_PROPERTY
Tether
SciTegic.value.DoubleValue
0.000

@<TRIPOS>MOLECULE
guest-6_confgen4.mol2 : confsearch ligand conformer 616
          13          12           1
SMALL
USER_CHARGES
 
@<TRIPOS>ATOM
       1    C1      19.953523   17.216006   21.657865 C.2        1 MOL1         0.6021
       2    O1      20.897936   16.839923   20.992620 O.co2      1 MOL1        -0.6904
       3    O2      19.444947   16.548225   22.536225 O.co2      1 MOL1        -0.6904
       4    C2      19.349529   18.584381   21.352141 C.3        1 MOL1        -0.2102
       5    H1      18.263032   18.453990   21.282074 H          1 MOL1         0.0687
       6    H2      19.694241   18.907435   20.362143 H          1 MOL1         0.0687
       7    C3      19.671222   19.670799   22.410228 C.3        1 MOL1        -0.1974
       8    H3      19.079604   20.570713   22.193401 H          1 MOL1         0.0689
       9    H4      19.359545   19.319918   23.404039 H          1 MOL1         0.0689
      10    C4      21.167516   20.045483   22.435589 C.3        1 MOL1        -0.2987
      11    H5      21.494891   20.420127   21.456887 H          1 MOL1         0.0700
      12    H6      21.357423   20.829453   23.180185 H          1 MOL1         0.0700
      13    H7      21.787602   19.176725   22.693619 H          1 MOL1         0.0700
@<TRIPOS>BOND
    1     1     2    1
    2     1     3    2
    3     1     4    1
    4     4     5    1
    5     4     6    1
    6     4     7    1
    7     7     8    1
    8     7     9    1
    9     7    10    1
   10    10    11    1
   11    10    12    1
   12    10    13    1
@<TRIPOS>SUBSTRUCTURE
       1 MOL1            1 RESIDUE      1      MOL     
@<SCITEGIC>MOL_PROPERTY
VConf Rank
SciTegic.value.IntegerValue
616

@<SCITEGIC>MOL_PROPERTY
Conf_Id
SciTegic.value.IntegerValue
36

@<SCITEGIC>MOL_PROPERTY
Delta U+W
SciTegic.value.DoubleValue
0.272

@<SCITEGIC>MOL_PROPERTY
U+W
SciTegic.value.DoubleValue
-58.060

@<SCITEGIC>MOL_PROPERTY
Grad RMS
SciTegic.value.DoubleValue
0.000000

@<SCITEGIC>MOL_PROPERTY
U
SciTegic.value.DoubleValue
9.781

@<SCITEGIC>MOL_PROPERTY
W
SciTegic.value.DoubleValue
-67.841

@<SCITEGIC>MOL_PROPERTY
W(PB)
SciTegic.value.DoubleValue
-69.537

@<SCITEGIC>MOL_PROPERTY
W(SA)
SciTegic.value.DoubleValue
1.696

@<SCITEGIC>MOL_PROPERTY
Valence
SciTegic.value.DoubleValue
6.123

@<SCITEGIC>MOL_PROPERTY
Coulomb
SciTegic.value.DoubleValue
3.449

@<SCITEGIC>MOL_PROPERTY
VdW
SciTegic.value.DoubleValue
0.209

@<SCITEGIC>MOL_PROPERTY
VdW6
SciTegic.value.DoubleValue
-3.762

@<SCITEGIC>MOL_PROPERTY
VdW12
SciTegic.value.DoubleValue
3.972

@<SCITEGIC>MOL_PROPERTY
Bond
SciTegic.value.DoubleValue
0.078

@<SCITEGIC>MOL_PROPERTY
Angle
SciTegic.value.DoubleValue
2.428

@<SCITEGIC>MOL_PROPERTY
Pdih
SciTegic.value.DoubleValue
3.616

@<SCITEGIC>MOL_PROPERTY
Idih
SciTegic.value.DoubleValue
0.002

@<SCITEGIC>MOL_PROPERTY
Tether
SciTegic.value.DoubleValue
0.000

@<TRIPOS>MOLECULE
guest-6_confgen4.mol2 : confsearch ligand conformer 617
          13          12           1
SMALL
USER_CHARGES
 
@<TRIPOS>ATOM
       1    C1      20.587088   16.970300   21.494770 C.2        1 MOL1         0.6021
       2    O1      21.675282   17.130553   20.977581 O.co2      1 MOL1        -0.6904
       3    O2      20.105268   15.873780   21.695491 O.co2      1 MOL1        -0.6904
       4    C2      19.762177   18.185439   21.923302 C.3        1 MOL1        -0.2102
       5    H1      19.558292   18.081464   22.995663 H          1 MOL1         0.0687
       6    H2      18.796973   18.125068   21.406510 H          1 MOL1         0.0687
       7    C3      20.417256   19.564081   21.647306 C.3        1 MOL1        -0.1974
       8    H3      21.385666   19.621409   22.163688 H          1 MOL1         0.0689
       9    H4      20.623483   19.665039   20.572581 H          1 MOL1         0.0689
      10    C4      19.515737   20.726009   22.111012 C.3        1 MOL1        -0.2987
      11    H5      19.320006   20.665125   23.189671 H          1 MOL1         0.0700
      12    H6      19.995485   21.692314   21.907659 H          1 MOL1         0.0700
      13    H7      18.551680   20.709063   21.585817 H          1 MOL1         0.0700
@<TRIPOS>BOND
    1     1     2    1
    2     1     3    2
    3     1     4    1
    4     4     5    1
    5     4     6    1
    6     4     7    1
    7     7     8    1
    8     7     9    1
    9     7    10    1
   10    10    11    1
   11    10    12    1
   12    10    13    1
@<TRIPOS>SUBSTRUCTURE
       1 MOL1            1 RESIDUE      1      MOL     
@<SCITEGIC>MOL_PROPERTY
VConf Rank
SciTegic.value.IntegerValue
617

@<SCITEGIC>MOL_PROPERTY
Conf_Id
SciTegic.value.IntegerValue
0

@<SCITEGIC>MOL_PROPERTY
Delta U+W
SciTegic.value.DoubleValue
0.000

@<SCITEGIC>MOL_PROPERTY
U+W
SciTegic.value.DoubleValue
-58.332

@<SCITEGIC>MOL_PROPERTY
Grad RMS
SciTegic.value.DoubleValue
0.000000

@<SCITEGIC>MOL_PROPERTY
U
SciTegic.value.DoubleValue
8.390

@<SCITEGIC>MOL_PROPERTY
W
SciTegic.value.DoubleValue
-66.722

@<SCITEGIC>MOL_PROPERTY
W(PB)
SciTegic.value.DoubleValue
-68.455

@<SCITEGIC>MOL_PROPERTY
W(SA)
SciTegic.value.DoubleValue
1.733

@<SCITEGIC>MOL_PROPERTY
Valence
SciTegic.value.DoubleValue
6.333

@<SCITEGIC>MOL_PROPERTY
Coulomb
SciTegic.value.DoubleValue
1.215

@<SCITEGIC>MOL_PROPERTY
VdW
SciTegic.value.DoubleValue
0.842

@<SCITEGIC>MOL_PROPERTY
VdW6
SciTegic.value.DoubleValue
-3.344

@<SCITEGIC>MOL_PROPERTY
VdW12
SciTegic.value.DoubleValue
4.186

@<SCITEGIC>MOL_PROPERTY
Bond
SciTegic.value.DoubleValue
0.091

@<SCITEGIC>MOL_PROPERTY
Angle
SciTegic.value.DoubleValue
2.713

@<SCITEGIC>MOL_PROPERTY
Pdih
SciTegic.value.DoubleValue
3.529

@<SCITEGIC>MOL_PROPERTY
Idih
SciTegic.value.DoubleValue
0.000

@<SCITEGIC>MOL_PROPERTY
Tether
SciTegic.value.DoubleValue
0.000

@<TRIPOS>MOLECULE
guest-6_confgen4.mol2 : confsearch ligand conformer 618
          13          12           1
SMALL
USER_CHARGES
 
@<TRIPOS>ATOM
       1    C1      19.893742   18.278012   23.799523 C.2        1 MOL1         0.6021
       2    O1      20.566876   18.856137   24.628994 O.co2      1 MOL1        -0.6904
       3    O2      19.545482   17.119349   23.907105 O.co2      1 MOL1        -0.6904
       4    C2      19.479403   19.042406   22.546716 C.3        1 MOL1        -0.2102
       5    H1      19.344250   20.096293   22.818881 H          1 MOL1         0.0687
       6    H2      18.501934   18.664045   22.223582 H          1 MOL1         0.0687
       7    C3      20.506206   18.917114   21.395271 C.3        1 MOL1        -0.1974
       8    H3      21.483295   19.289655   21.733401 H          1 MOL1         0.0689
       9    H4      20.640719   17.857163   21.137910 H          1 MOL1         0.0689
      10    C4      20.058709   19.700187   20.144738 C.3        1 MOL1        -0.2987
      11    H5      20.798700   19.599421   19.340051 H          1 MOL1         0.0700
      12    H6      19.097139   19.325441   19.769898 H          1 MOL1         0.0700
      13    H7      19.946220   20.768915   20.369955 H          1 MOL1         0.0700
@<TRIPOS>BOND
    1     1     2    1
    2     1     3    2
    3     1     4    1
    4     4     5    1
    5     4     6    1
    6     4     7    1
    7     7     8    1
    8     7     9    1
    9     7    10    1
   10    10    11    1
   11    10    12    1
   12    10    13    1
@<TRIPOS>SUBSTRUCTURE
       1 MOL1            1 RESIDUE      1      MOL     
@<SCITEGIC>MOL_PROPERTY
VConf Rank
SciTegic.value.IntegerValue
618

@<SCITEGIC>MOL_PROPERTY
Conf_Id
SciTegic.value.IntegerValue
1

@<SCITEGIC>MOL_PROPERTY
Delta U+W
SciTegic.value.DoubleValue
-1.339

@<SCITEGIC>MOL_PROPERTY
U+W
SciTegic.value.DoubleValue
-59.672

@<SCITEGIC>MOL_PROPERTY
Grad RMS
SciTegic.value.DoubleValue
0.000000

@<SCITEGIC>MOL_PROPERTY
U
SciTegic.value.DoubleValue
7.389

@<SCITEGIC>MOL_PROPERTY
W
SciTegic.value.DoubleValue
-67.061

@<SCITEGIC>MOL_PROPERTY
W(PB)
SciTegic.value.DoubleValue
-68.767

@<SCITEGIC>MOL_PROPERTY
W(SA)
SciTegic.value.DoubleValue
1.707

@<SCITEGIC>MOL_PROPERTY
Valence
SciTegic.value.DoubleValue
5.822

@<SCITEGIC>MOL_PROPERTY
Coulomb
SciTegic.value.DoubleValue
1.255

@<SCITEGIC>MOL_PROPERTY
VdW
SciTegic.value.DoubleValue
0.312

@<SCITEGIC>MOL_PROPERTY
VdW6
SciTegic.value.DoubleValue
-3.061

@<SCITEGIC>MOL_PROPERTY
VdW12
SciTegic.value.DoubleValue
3.372

@<SCITEGIC>MOL_PROPERTY
Bond
SciTegic.value.DoubleValue
0.059

@<SCITEGIC>MOL_PROPERTY
Angle
SciTegic.value.DoubleValue
2.241

@<SCITEGIC>MOL_PROPERTY
Pdih
SciTegic.value.DoubleValue
3.522

@<SCITEGIC>MOL_PROPERTY
Idih
SciTegic.value.DoubleValue
0.000

@<SCITEGIC>MOL_PROPERTY
Tether
SciTegic.value.DoubleValue
0.000

@<TRIPOS>MOLECULE
guest-6_confgen4.mol2 : confsearch ligand conformer 619
          13          12           1
SMALL
USER_CHARGES
 
@<TRIPOS>ATOM
       1    C1      19.689336   17.280889   21.578148 C.2        1 MOL1         0.6021
       2    O1      19.736454   16.476438   22.487399 O.co2      1 MOL1        -0.6904
       3    O2      18.818559   17.283619   20.731009 O.co2      1 MOL1        -0.6904
       4    C2      20.803826   18.319322   21.476677 C.3        1 MOL1        -0.2102
       5    H1      20.799325   18.741897   20.464404 H          1 MOL1         0.0687
       6    H2      21.756458   17.789164   21.594199 H          1 MOL1         0.0687
       7    C3      20.711921   19.453810   22.529212 C.3        1 MOL1        -0.1974
       8    H3      20.675417   19.017923   23.537474 H          1 MOL1         0.0689
       9    H4      21.624553   20.063506   22.481822 H          1 MOL1         0.0689
      10    C4      19.485832   20.364184   22.310456 C.3        1 MOL1        -0.2987
      11    H5      18.550998   19.794343   22.395283 H          1 MOL1         0.0700
      12    H6      19.461538   21.166857   23.058936 H          1 MOL1         0.0700
      13    H7      19.513966   20.828055   21.315758 H          1 MOL1         0.0700
@<TRIPOS>BOND
    1     1     2    1
    2     1     3    2
    3     1     4    1
    4     4     5    1
    5     4     6    1
    6     4     7    1
    7     7     8    1
    8     7     9    1
    9     7    10    1
   10    10    11    1
   11    10    12    1
   12    10    13    1
@<TRIPOS>SUBSTRUCTURE
       1 MOL1            1 RESIDUE      1      MOL     
@<SCITEGIC>MOL_PROPERTY
VConf Rank
SciTegic.value.IntegerValue
619

@<SCITEGIC>MOL_PROPERTY
Conf_Id
SciTegic.value.IntegerValue
4

@<SCITEGIC>MOL_PROPERTY
Delta U+W
SciTegic.value.DoubleValue
0.281

@<SCITEGIC>MOL_PROPERTY
U+W
SciTegic.value.DoubleValue
-58.051

@<SCITEGIC>MOL_PROPERTY
Grad RMS
SciTegic.value.DoubleValue
0.000000

@<SCITEGIC>MOL_PROPERTY
U
SciTegic.value.DoubleValue
9.781

@<SCITEGIC>MOL_PROPERTY
W
SciTegic.value.DoubleValue
-67.832

@<SCITEGIC>MOL_PROPERTY
W(PB)
SciTegic.value.DoubleValue
-69.535

@<SCITEGIC>MOL_PROPERTY
W(SA)
SciTegic.value.DoubleValue
1.703

@<SCITEGIC>MOL_PROPERTY
Valence
SciTegic.value.DoubleValue
6.123

@<SCITEGIC>MOL_PROPERTY
Coulomb
SciTegic.value.DoubleValue
3.449

@<SCITEGIC>MOL_PROPERTY
VdW
SciTegic.value.DoubleValue
0.209

@<SCITEGIC>MOL_PROPERTY
VdW6
SciTegic.value.DoubleValue
-3.762

@<SCITEGIC>MOL_PROPERTY
VdW12
SciTegic.value.DoubleValue
3.972

@<SCITEGIC>MOL_PROPERTY
Bond
SciTegic.value.DoubleValue
0.078

@<SCITEGIC>MOL_PROPERTY
Angle
SciTegic.value.DoubleValue
2.428

@<SCITEGIC>MOL_PROPERTY
Pdih
SciTegic.value.DoubleValue
3.616

@<SCITEGIC>MOL_PROPERTY
Idih
SciTegic.value.DoubleValue
0.002

@<SCITEGIC>MOL_PROPERTY
Tether
SciTegic.value.DoubleValue
0.000

@<TRIPOS>MOLECULE
guest-6_confgen4.mol2 : confsearch ligand conformer 620
          13          12           1
SMALL
USER_CHARGES
 
@<TRIPOS>ATOM
       1    C1      19.666320   17.272726   22.362669 C.2        1 MOL1         0.6021
       2    O1      19.572302   17.126746   23.565065 O.co2      1 MOL1        -0.6904
       3    O2      18.928294   16.732652   21.562836 O.co2      1 MOL1        -0.6904
       4    C2      20.792264   18.151945   21.824200 C.3        1 MOL1        -0.2102
       5    H1      21.287907   17.593306   21.021301 H          1 MOL1         0.0687
       6    H2      21.536715   18.294448   22.617151 H          1 MOL1         0.0687
       7    C3      20.320692   19.525436   21.281537 C.3        1 MOL1        -0.1974
       8    H3      21.162788   20.023270   20.781630 H          1 MOL1         0.0689
       9    H4      19.545628   19.372496   20.517466 H          1 MOL1         0.0689
      10    C4      19.780081   20.446144   22.395073 C.3        1 MOL1        -0.2987
      11    H5      20.546997   20.630274   23.158832 H          1 MOL1         0.0700
      12    H6      19.473742   21.415488   21.980798 H          1 MOL1         0.0700
      13    H7      18.907280   19.998244   22.888460 H          1 MOL1         0.0700
@<TRIPOS>BOND
    1     1     2    1
    2     1     3    2
    3     1     4    1
    4     4     5    1
    5     4     6    1
    6     4     7    1
    7     7     8    1
    8     7     9    1
    9     7    10    1
   10    10    11    1
   11    10    12    1
   12    10    13    1
@<TRIPOS>SUBSTRUCTURE
       1 MOL1            1 RESIDUE      1      MOL     
@<SCITEGIC>MOL_PROPERTY
VConf Rank
SciTegic.value.IntegerValue
620

@<SCITEGIC>MOL_PROPERTY
Conf_Id
SciTegic.value.IntegerValue
36

@<SCITEGIC>MOL_PROPERTY
Delta U+W
SciTegic.value.DoubleValue
0.272

@<SCITEGIC>MOL_PROPERTY
U+W
SciTegic.value.DoubleValue
-58.060

@<SCITEGIC>MOL_PROPERTY
Grad RMS
SciTegic.value.DoubleValue
0.000000

@<SCITEGIC>MOL_PROPERTY
U
SciTegic.value.DoubleValue
9.781

@<SCITEGIC>MOL_PROPERTY
W
SciTegic.value.DoubleValue
-67.841

@<SCITEGIC>MOL_PROPERTY
W(PB)
SciTegic.value.DoubleValue
-69.537

@<SCITEGIC>MOL_PROPERTY
W(SA)
SciTegic.value.DoubleValue
1.696

@<SCITEGIC>MOL_PROPERTY
Valence
SciTegic.value.DoubleValue
6.123

@<SCITEGIC>MOL_PROPERTY
Coulomb
SciTegic.value.DoubleValue
3.449

@<SCITEGIC>MOL_PROPERTY
VdW
SciTegic.value.DoubleValue
0.209

@<SCITEGIC>MOL_PROPERTY
VdW6
SciTegic.value.DoubleValue
-3.762

@<SCITEGIC>MOL_PROPERTY
VdW12
SciTegic.value.DoubleValue
3.972

@<SCITEGIC>MOL_PROPERTY
Bond
SciTegic.value.DoubleValue
0.078

@<SCITEGIC>MOL_PROPERTY
Angle
SciTegic.value.DoubleValue
2.428

@<SCITEGIC>MOL_PROPERTY
Pdih
SciTegic.value.DoubleValue
3.616

@<SCITEGIC>MOL_PROPERTY
Idih
SciTegic.value.DoubleValue
0.002

@<SCITEGIC>MOL_PROPERTY
Tether
SciTegic.value.DoubleValue
0.000

@<TRIPOS>MOLECULE
guest-6_confgen4.mol2 : confsearch ligand conformer 621
          13          12           1
SMALL
USER_CHARGES
 
@<TRIPOS>ATOM
       1    C1      18.526224   17.605124   21.220358 C.2        1 MOL1         0.6021
       2    O1      17.523383   18.230261   21.504686 O.co2      1 MOL1        -0.6904
       3    O2      18.496462   16.493752   20.731725 O.co2      1 MOL1        -0.6904
       4    C2      19.903781   18.218867   21.477919 C.3        1 MOL1        -0.2102
       5    H1      20.436943   18.241095   20.520014 H          1 MOL1         0.0687
       6    H2      20.451514   17.531335   22.133378 H          1 MOL1         0.0687
       7    C3      19.892420   19.638591   22.102587 C.3        1 MOL1        -0.1974
       8    H3      19.340579   20.325350   21.445634 H          1 MOL1         0.0689
       9    H4      19.355097   19.614737   23.060955 H          1 MOL1         0.0689
      10    C4      21.321174   20.174188   22.325373 C.3        1 MOL1        -0.2987
      11    H5      21.869676   20.237030   21.376310 H          1 MOL1         0.0700
      12    H6      21.292818   21.178645   22.767547 H          1 MOL1         0.0700
      13    H7      21.884321   19.520669   23.004565 H          1 MOL1         0.0700
@<TRIPOS>BOND
    1     1     2    1
    2     1     3    2
    3     1     4    1
    4     4     5    1
    5     4     6    1
    6     4     7    1
    7     7     8    1
    8     7     9    1
    9     7    10    1
   10    10    11    1
   11    10    12    1
   12    10    13    1
@<TRIPOS>SUBSTRUCTURE
       1 MOL1            1 RESIDUE      1      MOL     
@<SCITEGIC>MOL_PROPERTY
VConf Rank
SciTegic.value.IntegerValue
621

@<SCITEGIC>MOL_PROPERTY
Conf_Id
SciTegic.value.IntegerValue
0

@<SCITEGIC>MOL_PROPERTY
Delta U+W
SciTegic.value.DoubleValue
0.000

@<SCITEGIC>MOL_PROPERTY
U+W
SciTegic.value.DoubleValue
-58.332

@<SCITEGIC>MOL_PROPERTY
Grad RMS
SciTegic.value.DoubleValue
0.000000

@<SCITEGIC>MOL_PROPERTY
U
SciTegic.value.DoubleValue
8.390

@<SCITEGIC>MOL_PROPERTY
W
SciTegic.value.DoubleValue
-66.722

@<SCITEGIC>MOL_PROPERTY
W(PB)
SciTegic.value.DoubleValue
-68.455

@<SCITEGIC>MOL_PROPERTY
W(SA)
SciTegic.value.DoubleValue
1.733

@<SCITEGIC>MOL_PROPERTY
Valence
SciTegic.value.DoubleValue
6.333

@<SCITEGIC>MOL_PROPERTY
Coulomb
SciTegic.value.DoubleValue
1.215

@<SCITEGIC>MOL_PROPERTY
VdW
SciTegic.value.DoubleValue
0.842

@<SCITEGIC>MOL_PROPERTY
VdW6
SciTegic.value.DoubleValue
-3.344

@<SCITEGIC>MOL_PROPERTY
VdW12
SciTegic.value.DoubleValue
4.186

@<SCITEGIC>MOL_PROPERTY
Bond
SciTegic.value.DoubleValue
0.091

@<SCITEGIC>MOL_PROPERTY
Angle
SciTegic.value.DoubleValue
2.713

@<SCITEGIC>MOL_PROPERTY
Pdih
SciTegic.value.DoubleValue
3.529

@<SCITEGIC>MOL_PROPERTY
Idih
SciTegic.value.DoubleValue
0.000

@<SCITEGIC>MOL_PROPERTY
Tether
SciTegic.value.DoubleValue
0.000

@<TRIPOS>MOLECULE
guest-6_confgen4.mol2 : confsearch ligand conformer 622
          13          12           1
SMALL
USER_CHARGES
 
@<TRIPOS>ATOM
       1    C1      19.945984   18.390121   23.841128 C.2        1 MOL1         0.6021
       2    O1      18.846323   18.167588   24.306516 O.co2      1 MOL1        -0.6904
       3    O2      20.914738   18.676224   24.515680 O.co2      1 MOL1        -0.6904
       4    C2      20.115050   18.325268   22.326958 C.3        1 MOL1        -0.2102
       5    H1      19.428605   17.562764   21.939144 H          1 MOL1         0.0687
       6    H2      21.134342   17.982195   22.111637 H          1 MOL1         0.0687
       7    C3      19.851705   19.682500   21.630957 C.3        1 MOL1        -0.1974
       8    H3      18.831853   20.020879   21.861659 H          1 MOL1         0.0689
       9    H4      20.537987   20.440342   22.034088 H          1 MOL1         0.0689
      10    C4      20.030470   19.583569   20.102707 C.3        1 MOL1        -0.2987
      11    H5      19.839782   20.554641   19.627397 H          1 MOL1         0.0700
      12    H6      21.052541   19.275347   19.845948 H          1 MOL1         0.0700
      13    H7      19.333295   18.852699   19.672205 H          1 MOL1         0.0700
@<TRIPOS>BOND
    1     1     2    1
    2     1     3    2
    3     1     4    1
    4     4     5    1
    5     4     6    1
    6     4     7    1
    7     7     8    1
    8     7     9    1
    9     7    10    1
   10    10    11    1
   11    10    12    1
   12    10    13    1
@<TRIPOS>SUBSTRUCTURE
       1 MOL1            1 RESIDUE      1      MOL     
@<SCITEGIC>MOL_PROPERTY
VConf Rank
SciTegic.value.IntegerValue
622

@<SCITEGIC>MOL_PROPERTY
Conf_Id
SciTegic.value.IntegerValue
1

@<SCITEGIC>MOL_PROPERTY
Delta U+W
SciTegic.value.DoubleValue
-1.339

@<SCITEGIC>MOL_PROPERTY
U+W
SciTegic.value.DoubleValue
-59.672

@<SCITEGIC>MOL_PROPERTY
Grad RMS
SciTegic.value.DoubleValue
0.000000

@<SCITEGIC>MOL_PROPERTY
U
SciTegic.value.DoubleValue
7.389

@<SCITEGIC>MOL_PROPERTY
W
SciTegic.value.DoubleValue
-67.061

@<SCITEGIC>MOL_PROPERTY
W(PB)
SciTegic.value.DoubleValue
-68.767

@<SCITEGIC>MOL_PROPERTY
W(SA)
SciTegic.value.DoubleValue
1.707

@<SCITEGIC>MOL_PROPERTY
Valence
SciTegic.value.DoubleValue
5.822

@<SCITEGIC>MOL_PROPERTY
Coulomb
SciTegic.value.DoubleValue
1.255

@<SCITEGIC>MOL_PROPERTY
VdW
SciTegic.value.DoubleValue
0.312

@<SCITEGIC>MOL_PROPERTY
VdW6
SciTegic.value.DoubleValue
-3.061

@<SCITEGIC>MOL_PROPERTY
VdW12
SciTegic.value.DoubleValue
3.372

@<SCITEGIC>MOL_PROPERTY
Bond
SciTegic.value.DoubleValue
0.059

@<SCITEGIC>MOL_PROPERTY
Angle
SciTegic.value.DoubleValue
2.241

@<SCITEGIC>MOL_PROPERTY
Pdih
SciTegic.value.DoubleValue
3.522

@<SCITEGIC>MOL_PROPERTY
Idih
SciTegic.value.DoubleValue
0.000

@<SCITEGIC>MOL_PROPERTY
Tether
SciTegic.value.DoubleValue
0.000

@<TRIPOS>MOLECULE
guest-6_confgen4.mol2 : confsearch ligand conformer 623
          13          12           1
SMALL
USER_CHARGES
 
@<TRIPOS>ATOM
       1    C1      19.266720   18.880190   20.426624 C.2        1 MOL1         0.6021
       2    O1      19.836864   18.275982   19.540076 O.co2      1 MOL1        -0.6904
       3    O2      18.069304   18.812463   20.620308 O.co2      1 MOL1        -0.6904
       4    C2      20.095528   19.799795   21.320006 C.3        1 MOL1        -0.2102
       5    H1      19.419005   20.493729   21.833873 H          1 MOL1         0.0687
       6    H2      20.732336   20.405648   20.664411 H          1 MOL1         0.0687
       7    C3      20.979853   19.053847   22.351932 C.3        1 MOL1        -0.1974
       8    H3      21.624104   18.332056   21.830510 H          1 MOL1         0.0689
       9    H4      21.647141   19.775608   22.842504 H          1 MOL1         0.0689
      10    C4      20.146462   18.326501   23.427271 C.3        1 MOL1        -0.2987
      11    H5      19.497959   17.564261   22.975317 H          1 MOL1         0.0700
      12    H6      20.801997   17.826139   24.151846 H          1 MOL1         0.0700
      13    H7      19.510910   19.033788   23.976099 H          1 MOL1         0.0700
@<TRIPOS>BOND
    1     1     2    1
    2     1     3    2
    3     1     4    1
    4     4     5    1
    5     4     6    1
    6     4     7    1
    7     7     8    1
    8     7     9    1
    9     7    10    1
   10    10    11    1
   11    10    12    1
   12    10    13    1
@<TRIPOS>SUBSTRUCTURE
       1 MOL1            1 RESIDUE      1      MOL     
@<SCITEGIC>MOL_PROPERTY
VConf Rank
SciTegic.value.IntegerValue
623

@<SCITEGIC>MOL_PROPERTY
Conf_Id
SciTegic.value.IntegerValue
4

@<SCITEGIC>MOL_PROPERTY
Delta U+W
SciTegic.value.DoubleValue
0.281

@<SCITEGIC>MOL_PROPERTY
U+W
SciTegic.value.DoubleValue
-58.051

@<SCITEGIC>MOL_PROPERTY
Grad RMS
SciTegic.value.DoubleValue
0.000000

@<SCITEGIC>MOL_PROPERTY
U
SciTegic.value.DoubleValue
9.781

@<SCITEGIC>MOL_PROPERTY
W
SciTegic.value.DoubleValue
-67.832

@<SCITEGIC>MOL_PROPERTY
W(PB)
SciTegic.value.DoubleValue
-69.535

@<SCITEGIC>MOL_PROPERTY
W(SA)
SciTegic.value.DoubleValue
1.703

@<SCITEGIC>MOL_PROPERTY
Valence
SciTegic.value.DoubleValue
6.123

@<SCITEGIC>MOL_PROPERTY
Coulomb
SciTegic.value.DoubleValue
3.449

@<SCITEGIC>MOL_PROPERTY
VdW
SciTegic.value.DoubleValue
0.209

@<SCITEGIC>MOL_PROPERTY
VdW6
SciTegic.value.DoubleValue
-3.762

@<SCITEGIC>MOL_PROPERTY
VdW12
SciTegic.value.DoubleValue
3.972

@<SCITEGIC>MOL_PROPERTY
Bond
SciTegic.value.DoubleValue
0.078

@<SCITEGIC>MOL_PROPERTY
Angle
SciTegic.value.DoubleValue
2.428

@<SCITEGIC>MOL_PROPERTY
Pdih
SciTegic.value.DoubleValue
3.616

@<SCITEGIC>MOL_PROPERTY
Idih
SciTegic.value.DoubleValue
0.002

@<SCITEGIC>MOL_PROPERTY
Tether
SciTegic.value.DoubleValue
0.000

@<TRIPOS>MOLECULE
guest-6_confgen4.mol2 : confsearch ligand conformer 624
          13          12           1
SMALL
USER_CHARGES
 
@<TRIPOS>ATOM
       1    C1      21.359733   20.229992   21.725357 C.2        1 MOL1         0.6021
       2    O1      21.770287   20.634021   22.794988 O.co2      1 MOL1        -0.6904
       3    O2      22.067986   20.079863   20.749685 O.co2      1 MOL1        -0.6904
       4    C2      19.869559   19.928397   21.586982 C.3        1 MOL1        -0.2102
       5    H1      19.521715   20.413736   20.667288 H          1 MOL1         0.0687
       6    H2      19.335801   20.405373   22.418176 H          1 MOL1         0.0687
       7    C3      19.530454   18.416663   21.532145 C.3        1 MOL1        -0.1974
       8    H3      18.467647   18.295062   21.282095 H          1 MOL1         0.0689
       9    H4      20.101691   17.940790   20.722728 H          1 MOL1         0.0689
      10    C4      19.819647   17.697972   22.866228 C.3        1 MOL1        -0.2987
      11    H5      19.241128   18.144119   23.685777 H          1 MOL1         0.0700
      12    H6      19.550654   16.635756   22.799641 H          1 MOL1         0.0700
      13    H7      20.884708   17.761431   23.125930 H          1 MOL1         0.0700
@<TRIPOS>BOND
    1     1     2    1
    2     1     3    2
    3     1     4    1
    4     4     5    1
    5     4     6    1
    6     4     7    1
    7     7     8    1
    8     7     9    1
    9     7    10    1
   10    10    11    1
   11    10    12    1
   12    10    13    1
@<TRIPOS>SUBSTRUCTURE
       1 MOL1            1 RESIDUE      1      MOL     
@<SCITEGIC>MOL_PROPERTY
VConf Rank
SciTegic.value.IntegerValue
624

@<SCITEGIC>MOL_PROPERTY
Conf_Id
SciTegic.value.IntegerValue
36

@<SCITEGIC>MOL_PROPERTY
Delta U+W
SciTegic.value.DoubleValue
0.272

@<SCITEGIC>MOL_PROPERTY
U+W
SciTegic.value.DoubleValue
-58.060

@<SCITEGIC>MOL_PROPERTY
Grad RMS
SciTegic.value.DoubleValue
0.000000

@<SCITEGIC>MOL_PROPERTY
U
SciTegic.value.DoubleValue
9.781

@<SCITEGIC>MOL_PROPERTY
W
SciTegic.value.DoubleValue
-67.841

@<SCITEGIC>MOL_PROPERTY
W(PB)
SciTegic.value.DoubleValue
-69.537

@<SCITEGIC>MOL_PROPERTY
W(SA)
SciTegic.value.DoubleValue
1.696

@<SCITEGIC>MOL_PROPERTY
Valence
SciTegic.value.DoubleValue
6.123

@<SCITEGIC>MOL_PROPERTY
Coulomb
SciTegic.value.DoubleValue
3.449

@<SCITEGIC>MOL_PROPERTY
VdW
SciTegic.value.DoubleValue
0.209

@<SCITEGIC>MOL_PROPERTY
VdW6
SciTegic.value.DoubleValue
-3.762

@<SCITEGIC>MOL_PROPERTY
VdW12
SciTegic.value.DoubleValue
3.972

@<SCITEGIC>MOL_PROPERTY
Bond
SciTegic.value.DoubleValue
0.078

@<SCITEGIC>MOL_PROPERTY
Angle
SciTegic.value.DoubleValue
2.428

@<SCITEGIC>MOL_PROPERTY
Pdih
SciTegic.value.DoubleValue
3.616

@<SCITEGIC>MOL_PROPERTY
Idih
SciTegic.value.DoubleValue
0.002

@<SCITEGIC>MOL_PROPERTY
Tether
SciTegic.value.DoubleValue
0.000

@<TRIPOS>MOLECULE
guest-6_confgen4.mol2 : confsearch ligand conformer 625
          13          12           1
SMALL
USER_CHARGES
 
@<TRIPOS>ATOM
       1    C1      20.194206   20.255306   23.536733 C.2        1 MOL1         0.6021
       2    O1      19.073862   20.146070   23.995234 O.co2      1 MOL1        -0.6904
       3    O2      21.055345   20.940075   24.050860 O.co2      1 MOL1        -0.6904
       4    C2      20.567438   19.508957   22.254413 C.3        1 MOL1        -0.2102
       5    H1      21.431394   18.874108   22.484380 H          1 MOL1         0.0687
       6    H2      20.904148   20.256513   21.526317 H          1 MOL1         0.0687
       7    C3      19.436572   18.647563   21.633850 C.3        1 MOL1        -0.1974
       8    H3      19.098591   17.900999   22.366083 H          1 MOL1         0.0689
       9    H4      18.570658   19.285094   21.406908 H          1 MOL1         0.0689
      10    C4      19.903550   17.934981   20.348551 C.3        1 MOL1        -0.2987
      11    H5      20.749991   17.266849   20.555097 H          1 MOL1         0.0700
      12    H6      19.090768   17.331058   19.924381 H          1 MOL1         0.0700
      13    H7      20.217869   18.662071   19.588244 H          1 MOL1         0.0700
@<TRIPOS>BOND
    1     1     2    1
    2     1     3    2
    3     1     4    1
    4     4     5    1
    5     4     6    1
    6     4     7    1
    7     7     8    1
    8     7     9    1
    9     7    10    1
   10    10    11    1
   11    10    12    1
   12    10    13    1
@<TRIPOS>SUBSTRUCTURE
       1 MOL1            1 RESIDUE      1      MOL     
@<SCITEGIC>MOL_PROPERTY
VConf Rank
SciTegic.value.IntegerValue
625

@<SCITEGIC>MOL_PROPERTY
Conf_Id
SciTegic.value.IntegerValue
0

@<SCITEGIC>MOL_PROPERTY
Delta U+W
SciTegic.value.DoubleValue
0.000

@<SCITEGIC>MOL_PROPERTY
U+W
SciTegic.value.DoubleValue
-58.332

@<SCITEGIC>MOL_PROPERTY
Grad RMS
SciTegic.value.DoubleValue
0.000000

@<SCITEGIC>MOL_PROPERTY
U
SciTegic.value.DoubleValue
8.390

@<SCITEGIC>MOL_PROPERTY
W
SciTegic.value.DoubleValue
-66.722

@<SCITEGIC>MOL_PROPERTY
W(PB)
SciTegic.value.DoubleValue
-68.455

@<SCITEGIC>MOL_PROPERTY
W(SA)
SciTegic.value.DoubleValue
1.733

@<SCITEGIC>MOL_PROPERTY
Valence
SciTegic.value.DoubleValue
6.333

@<SCITEGIC>MOL_PROPERTY
Coulomb
SciTegic.value.DoubleValue
1.215

@<SCITEGIC>MOL_PROPERTY
VdW
SciTegic.value.DoubleValue
0.842

@<SCITEGIC>MOL_PROPERTY
VdW6
SciTegic.value.DoubleValue
-3.344

@<SCITEGIC>MOL_PROPERTY
VdW12
SciTegic.value.DoubleValue
4.186

@<SCITEGIC>MOL_PROPERTY
Bond
SciTegic.value.DoubleValue
0.091

@<SCITEGIC>MOL_PROPERTY
Angle
SciTegic.value.DoubleValue
2.713

@<SCITEGIC>MOL_PROPERTY
Pdih
SciTegic.value.DoubleValue
3.529

@<SCITEGIC>MOL_PROPERTY
Idih
SciTegic.value.DoubleValue
0.000

@<SCITEGIC>MOL_PROPERTY
Tether
SciTegic.value.DoubleValue
0.000

@<TRIPOS>MOLECULE
guest-6_confgen4.mol2 : confsearch ligand conformer 626
          13          12           1
SMALL
USER_CHARGES
 
@<TRIPOS>ATOM
       1    C1      20.750317   17.150487   22.391231 C.2        1 MOL1         0.6021
       2    O1      20.691701   16.279951   21.546191 O.co2      1 MOL1        -0.6904
       3    O2      20.797386   16.925757   23.583977 O.co2      1 MOL1        -0.6904
       4    C2      20.745561   18.604254   21.930758 C.3        1 MOL1        -0.2102
       5    H1      21.254905   18.656803   20.960796 H          1 MOL1         0.0687
       6    H2      21.342080   19.189368   22.641268 H          1 MOL1         0.0687
       7    C3      19.320349   19.197235   21.816774 C.3        1 MOL1        -0.1974
       8    H3      18.729326   18.597582   21.110425 H          1 MOL1         0.0689
       9    H4      18.816575   19.130363   22.791229 H          1 MOL1         0.0689
      10    C4      19.349862   20.666296   21.349570 C.3        1 MOL1        -0.2987
      11    H5      18.331226   21.068863   21.274860 H          1 MOL1         0.0700
      12    H6      19.910672   21.292031   22.056325 H          1 MOL1         0.0700
      13    H7      19.822715   20.755147   20.362619 H          1 MOL1         0.0700
@<TRIPOS>BOND
    1     1     2    1
    2     1     3    2
    3     1     4    1
    4     4     5    1
    5     4     6    1
    6     4     7    1
    7     7     8    1
    8     7     9    1
    9     7    10    1
   10    10    11    1
   11    10    12    1
   12    10    13    1
@<TRIPOS>SUBSTRUCTURE
       1 MOL1            1 RESIDUE      1      MOL     
@<SCITEGIC>MOL_PROPERTY
VConf Rank
SciTegic.value.IntegerValue
626

@<SCITEGIC>MOL_PROPERTY
Conf_Id
SciTegic.value.IntegerValue
1

@<SCITEGIC>MOL_PROPERTY
Delta U+W
SciTegic.value.DoubleValue
-1.339

@<SCITEGIC>MOL_PROPERTY
U+W
SciTegic.value.DoubleValue
-59.672

@<SCITEGIC>MOL_PROPERTY
Grad RMS
SciTegic.value.DoubleValue
0.000000

@<SCITEGIC>MOL_PROPERTY
U
SciTegic.value.DoubleValue
7.389

@<SCITEGIC>MOL_PROPERTY
W
SciTegic.value.DoubleValue
-67.061

@<SCITEGIC>MOL_PROPERTY
W(PB)
SciTegic.value.DoubleValue
-68.767

@<SCITEGIC>MOL_PROPERTY
W(SA)
SciTegic.value.DoubleValue
1.707

@<SCITEGIC>MOL_PROPERTY
Valence
SciTegic.value.DoubleValue
5.822

@<SCITEGIC>MOL_PROPERTY
Coulomb
SciTegic.value.DoubleValue
1.255

@<SCITEGIC>MOL_PROPERTY
VdW
SciTegic.value.DoubleValue
0.312

@<SCITEGIC>MOL_PROPERTY
VdW6
SciTegic.value.DoubleValue
-3.061

@<SCITEGIC>MOL_PROPERTY
VdW12
SciTegic.value.DoubleValue
3.372

@<SCITEGIC>MOL_PROPERTY
Bond
SciTegic.value.DoubleValue
0.059

@<SCITEGIC>MOL_PROPERTY
Angle
SciTegic.value.DoubleValue
2.241

@<SCITEGIC>MOL_PROPERTY
Pdih
SciTegic.value.DoubleValue
3.522

@<SCITEGIC>MOL_PROPERTY
Idih
SciTegic.value.DoubleValue
0.000

@<SCITEGIC>MOL_PROPERTY
Tether
SciTegic.value.DoubleValue
0.000

@<TRIPOS>MOLECULE
guest-6_confgen4.mol2 : confsearch ligand conformer 627
          13          12           1
SMALL
USER_CHARGES
 
@<TRIPOS>ATOM
       1    C1      19.813922   17.218300   22.228178 C.2        1 MOL1         0.6021
       2    O1      20.796068   16.506610   22.298782 O.co2      1 MOL1        -0.6904
       3    O2      18.827144   17.068273   22.920757 O.co2      1 MOL1        -0.6904
       4    C2      19.808028   18.336709   21.189018 C.3        1 MOL1        -0.2102
       5    H1      18.773060   18.663962   21.030800 H          1 MOL1         0.0687
       6    H2      20.151790   17.904649   20.241632 H          1 MOL1         0.0687
       7    C3      20.701098   19.549369   21.556742 C.3        1 MOL1        -0.1974
       8    H3      21.726094   19.204964   21.753442 H          1 MOL1         0.0689
       9    H4      20.756485   20.229696   20.695951 H          1 MOL1         0.0689
      10    C4      20.168682   20.325568   22.779025 C.3        1 MOL1        -0.2987
      11    H5      20.141672   19.686226   23.671404 H          1 MOL1         0.0700
      12    H6      20.811655   21.187452   23.000021 H          1 MOL1         0.0700
      13    H7      19.152485   20.698231   22.595024 H          1 MOL1         0.0700
@<TRIPOS>BOND
    1     1     2    1
    2     1     3    2
    3     1     4    1
    4     4     5    1
    5     4     6    1
    6     4     7    1
    7     7     8    1
    8     7     9    1
    9     7    10    1
   10    10    11    1
   11    10    12    1
   12    10    13    1
@<TRIPOS>SUBSTRUCTURE
       1 MOL1            1 RESIDUE      1      MOL     
@<SCITEGIC>MOL_PROPERTY
VConf Rank
SciTegic.value.IntegerValue
627

@<SCITEGIC>MOL_PROPERTY
Conf_Id
SciTegic.value.IntegerValue
4

@<SCITEGIC>MOL_PROPERTY
Delta U+W
SciTegic.value.DoubleValue
0.281

@<SCITEGIC>MOL_PROPERTY
U+W
SciTegic.value.DoubleValue
-58.051

@<SCITEGIC>MOL_PROPERTY
Grad RMS
SciTegic.value.DoubleValue
0.000000

@<SCITEGIC>MOL_PROPERTY
U
SciTegic.value.DoubleValue
9.781

@<SCITEGIC>MOL_PROPERTY
W
SciTegic.value.DoubleValue
-67.832

@<SCITEGIC>MOL_PROPERTY
W(PB)
SciTegic.value.DoubleValue
-69.535

@<SCITEGIC>MOL_PROPERTY
W(SA)
SciTegic.value.DoubleValue
1.703

@<SCITEGIC>MOL_PROPERTY
Valence
SciTegic.value.DoubleValue
6.123

@<SCITEGIC>MOL_PROPERTY
Coulomb
SciTegic.value.DoubleValue
3.449

@<SCITEGIC>MOL_PROPERTY
VdW
SciTegic.value.DoubleValue
0.209

@<SCITEGIC>MOL_PROPERTY
VdW6
SciTegic.value.DoubleValue
-3.762

@<SCITEGIC>MOL_PROPERTY
VdW12
SciTegic.value.DoubleValue
3.972

@<SCITEGIC>MOL_PROPERTY
Bond
SciTegic.value.DoubleValue
0.078

@<SCITEGIC>MOL_PROPERTY
Angle
SciTegic.value.DoubleValue
2.428

@<SCITEGIC>MOL_PROPERTY
Pdih
SciTegic.value.DoubleValue
3.616

@<SCITEGIC>MOL_PROPERTY
Idih
SciTegic.value.DoubleValue
0.002

@<SCITEGIC>MOL_PROPERTY
Tether
SciTegic.value.DoubleValue
0.000

@<TRIPOS>MOLECULE
guest-6_confgen4.mol2 : confsearch ligand conformer 628
          13          12           1
SMALL
USER_CHARGES
 
@<TRIPOS>ATOM
       1    C1      19.410567   17.751152   23.106278 C.2        1 MOL1         0.6021
       2    O1      18.281218   18.082044   23.407921 O.co2      1 MOL1        -0.6904
       3    O2      19.741633   16.598148   22.913731 O.co2      1 MOL1        -0.6904
       4    C2      20.479934   18.835318   22.997827 C.3        1 MOL1        -0.2102
       5    H1      21.353806   18.490420   23.563319 H          1 MOL1         0.0687
       6    H2      20.115143   19.740163   23.499293 H          1 MOL1         0.0687
       7    C3      20.904175   19.165034   21.543645 C.3        1 MOL1        -0.1974
       8    H3      21.773482   19.836367   21.565789 H          1 MOL1         0.0689
       9    H4      21.228639   18.244914   21.037657 H          1 MOL1         0.0689
      10    C4      19.772376   19.832702   20.735451 C.3        1 MOL1        -0.2987
      11    H5      19.447959   20.766859   21.212416 H          1 MOL1         0.0700
      12    H6      20.111324   20.070393   19.718734 H          1 MOL1         0.0700
      13    H7      18.900754   19.169661   20.654957 H          1 MOL1         0.0700
@<TRIPOS>BOND
    1     1     2    1
    2     1     3    2
    3     1     4    1
    4     4     5    1
    5     4     6    1
    6     4     7    1
    7     7     8    1
    8     7     9    1
    9     7    10    1
   10    10    11    1
   11    10    12    1
   12    10    13    1
@<TRIPOS>SUBSTRUCTURE
       1 MOL1            1 RESIDUE      1      MOL     
@<SCITEGIC>MOL_PROPERTY
VConf Rank
SciTegic.value.IntegerValue
628

@<SCITEGIC>MOL_PROPERTY
Conf_Id
SciTegic.value.IntegerValue
36

@<SCITEGIC>MOL_PROPERTY
Delta U+W
SciTegic.value.DoubleValue
0.272

@<SCITEGIC>MOL_PROPERTY
U+W
SciTegic.value.DoubleValue
-58.060

@<SCITEGIC>MOL_PROPERTY
Grad RMS
SciTegic.value.DoubleValue
0.000000

@<SCITEGIC>MOL_PROPERTY
U
SciTegic.value.DoubleValue
9.781

@<SCITEGIC>MOL_PROPERTY
W
SciTegic.value.DoubleValue
-67.841

@<SCITEGIC>MOL_PROPERTY
W(PB)
SciTegic.value.DoubleValue
-69.537

@<SCITEGIC>MOL_PROPERTY
W(SA)
SciTegic.value.DoubleValue
1.696

@<SCITEGIC>MOL_PROPERTY
Valence
SciTegic.value.DoubleValue
6.123

@<SCITEGIC>MOL_PROPERTY
Coulomb
SciTegic.value.DoubleValue
3.449

@<SCITEGIC>MOL_PROPERTY
VdW
SciTegic.value.DoubleValue
0.209

@<SCITEGIC>MOL_PROPERTY
VdW6
SciTegic.value.DoubleValue
-3.762

@<SCITEGIC>MOL_PROPERTY
VdW12
SciTegic.value.DoubleValue
3.972

@<SCITEGIC>MOL_PROPERTY
Bond
SciTegic.value.DoubleValue
0.078

@<SCITEGIC>MOL_PROPERTY
Angle
SciTegic.value.DoubleValue
2.428

@<SCITEGIC>MOL_PROPERTY
Pdih
SciTegic.value.DoubleValue
3.616

@<SCITEGIC>MOL_PROPERTY
Idih
SciTegic.value.DoubleValue
0.002

@<SCITEGIC>MOL_PROPERTY
Tether
SciTegic.value.DoubleValue
0.000

@<TRIPOS>MOLECULE
guest-6_confgen4.mol2 : confsearch ligand conformer 629
          13          12           1
SMALL
USER_CHARGES
 
@<TRIPOS>ATOM
       1    C1      20.897875   20.917503   22.148904 C.2        1 MOL1         0.6021
       2    O1      21.531506   20.693518   23.161658 O.co2      1 MOL1        -0.6904
       3    O2      20.882429   22.003173   21.604957 O.co2      1 MOL1        -0.6904
       4    C2      20.071856   19.801683   21.506002 C.3        1 MOL1        -0.2102
       5    H1      20.426298   19.683957   20.475056 H          1 MOL1         0.0687
       6    H2      19.034528   20.152592   21.449875 H          1 MOL1         0.0687
       7    C3      20.121852   18.433520   22.235101 C.3        1 MOL1        -0.1974
       8    H3      21.162519   18.085048   22.292851 H          1 MOL1         0.0689
       9    H4      19.769106   18.554272   23.268902 H          1 MOL1         0.0689
      10    C4      19.262029   17.373821   21.517064 C.3        1 MOL1        -0.2987
      11    H5      19.614578   17.211991   20.489912 H          1 MOL1         0.0700
      12    H6      19.309833   16.413545   22.047011 H          1 MOL1         0.0700
      13    H7      18.209983   17.685021   21.473759 H          1 MOL1         0.0700
@<TRIPOS>BOND
    1     1     2    1
    2     1     3    2
    3     1     4    1
    4     4     5    1
    5     4     6    1
    6     4     7    1
    7     7     8    1
    8     7     9    1
    9     7    10    1
   10    10    11    1
   11    10    12    1
   12    10    13    1
@<TRIPOS>SUBSTRUCTURE
       1 MOL1            1 RESIDUE      1      MOL     
@<SCITEGIC>MOL_PROPERTY
VConf Rank
SciTegic.value.IntegerValue
629

@<SCITEGIC>MOL_PROPERTY
Conf_Id
SciTegic.value.IntegerValue
0

@<SCITEGIC>MOL_PROPERTY
Delta U+W
SciTegic.value.DoubleValue
0.000

@<SCITEGIC>MOL_PROPERTY
U+W
SciTegic.value.DoubleValue
-58.332

@<SCITEGIC>MOL_PROPERTY
Grad RMS
SciTegic.value.DoubleValue
0.000000

@<SCITEGIC>MOL_PROPERTY
U
SciTegic.value.DoubleValue
8.390

@<SCITEGIC>MOL_PROPERTY
W
SciTegic.value.DoubleValue
-66.722

@<SCITEGIC>MOL_PROPERTY
W(PB)
SciTegic.value.DoubleValue
-68.455

@<SCITEGIC>MOL_PROPERTY
W(SA)
SciTegic.value.DoubleValue
1.733

@<SCITEGIC>MOL_PROPERTY
Valence
SciTegic.value.DoubleValue
6.333

@<SCITEGIC>MOL_PROPERTY
Coulomb
SciTegic.value.DoubleValue
1.215

@<SCITEGIC>MOL_PROPERTY
VdW
SciTegic.value.DoubleValue
0.842

@<SCITEGIC>MOL_PROPERTY
VdW6
SciTegic.value.DoubleValue
-3.344

@<SCITEGIC>MOL_PROPERTY
VdW12
SciTegic.value.DoubleValue
4.186

@<SCITEGIC>MOL_PROPERTY
Bond
SciTegic.value.DoubleValue
0.091

@<SCITEGIC>MOL_PROPERTY
Angle
SciTegic.value.DoubleValue
2.713

@<SCITEGIC>MOL_PROPERTY
Pdih
SciTegic.value.DoubleValue
3.529

@<SCITEGIC>MOL_PROPERTY
Idih
SciTegic.value.DoubleValue
0.000

@<SCITEGIC>MOL_PROPERTY
Tether
SciTegic.value.DoubleValue
0.000

@<TRIPOS>MOLECULE
guest-6_confgen4.mol2 : confsearch ligand conformer 630
          13          12           1
SMALL
USER_CHARGES
 
@<TRIPOS>ATOM
       1    C1      17.887113   18.960562   22.017015 C.2        1 MOL1         0.6021
       2    O1      17.366756   19.893243   22.595544 O.co2      1 MOL1        -0.6904
       3    O2      17.385074   17.857584   21.934817 O.co2      1 MOL1        -0.6904
       4    C2      19.252877   19.181077   21.375485 C.3        1 MOL1        -0.2102
       5    H1      19.304385   20.221168   21.031136 H          1 MOL1         0.0687
       6    H2      19.319480   18.542454   20.486247 H          1 MOL1         0.0687
       7    C3      20.427790   18.879540   22.336996 C.3        1 MOL1        -0.1974
       8    H3      20.345201   19.517611   23.227987 H          1 MOL1         0.0689
       9    H4      20.360369   17.838561   22.682887 H          1 MOL1         0.0689
      10    C4      21.793048   19.111916   21.659235 C.3        1 MOL1        -0.2987
      11    H5      22.612848   18.893135   22.355887 H          1 MOL1         0.0700
      12    H6      21.911507   18.462677   20.781732 H          1 MOL1         0.0700
      13    H7      21.896228   20.154609   21.331055 H          1 MOL1         0.0700
@<TRIPOS>BOND
    1     1     2    1
    2     1     3    2
    3     1     4    1
    4     4     5    1
    5     4     6    1
    6     4     7    1
    7     7     8    1
    8     7     9    1
    9     7    10    1
   10    10    11    1
   11    10    12    1
   12    10    13    1
@<TRIPOS>SUBSTRUCTURE
       1 MOL1            1 RESIDUE      1      MOL     
@<SCITEGIC>MOL_PROPERTY
VConf Rank
SciTegic.value.IntegerValue
630

@<SCITEGIC>MOL_PROPERTY
Conf_Id
SciTegic.value.IntegerValue
1

@<SCITEGIC>MOL_PROPERTY
Delta U+W
SciTegic.value.DoubleValue
-1.339

@<SCITEGIC>MOL_PROPERTY
U+W
SciTegic.value.DoubleValue
-59.672

@<SCITEGIC>MOL_PROPERTY
Grad RMS
SciTegic.value.DoubleValue
0.000000

@<SCITEGIC>MOL_PROPERTY
U
SciTegic.value.DoubleValue
7.389

@<SCITEGIC>MOL_PROPERTY
W
SciTegic.value.DoubleValue
-67.061

@<SCITEGIC>MOL_PROPERTY
W(PB)
SciTegic.value.DoubleValue
-68.767

@<SCITEGIC>MOL_PROPERTY
W(SA)
SciTegic.value.DoubleValue
1.707

@<SCITEGIC>MOL_PROPERTY
Valence
SciTegic.value.DoubleValue
5.822

@<SCITEGIC>MOL_PROPERTY
Coulomb
SciTegic.value.DoubleValue
1.255

@<SCITEGIC>MOL_PROPERTY
VdW
SciTegic.value.DoubleValue
0.312

@<SCITEGIC>MOL_PROPERTY
VdW6
SciTegic.value.DoubleValue
-3.061

@<SCITEGIC>MOL_PROPERTY
VdW12
SciTegic.value.DoubleValue
3.372

@<SCITEGIC>MOL_PROPERTY
Bond
SciTegic.value.DoubleValue
0.059

@<SCITEGIC>MOL_PROPERTY
Angle
SciTegic.value.DoubleValue
2.241

@<SCITEGIC>MOL_PROPERTY
Pdih
SciTegic.value.DoubleValue
3.522

@<SCITEGIC>MOL_PROPERTY
Idih
SciTegic.value.DoubleValue
0.000

@<SCITEGIC>MOL_PROPERTY
Tether
SciTegic.value.DoubleValue
0.000

@<TRIPOS>MOLECULE
guest-6_confgen4.mol2 : confsearch ligand conformer 631
          13          12           1
SMALL
USER_CHARGES
 
@<TRIPOS>ATOM
       1    C1      21.632764   18.018300   22.188783 C.2        1 MOL1         0.6021
       2    O1      21.678456   16.963043   21.588414 O.co2      1 MOL1        -0.6904
       3    O2      22.579418   18.773066   22.289172 O.co2      1 MOL1        -0.6904
       4    C2      20.326487   18.396235   22.882710 C.3        1 MOL1        -0.2102
       5    H1      20.535122   19.179079   23.622247 H          1 MOL1         0.0687
       6    H2      19.986173   17.515940   23.440968 H          1 MOL1         0.0687
       7    C3      19.205685   18.859230   21.916906 C.3        1 MOL1        -0.1974
       8    H3      19.033392   18.085455   21.155650 H          1 MOL1         0.0689
       9    H4      18.267291   18.963999   22.478433 H          1 MOL1         0.0689
      10    C4      19.534757   20.201138   21.230667 C.3        1 MOL1        -0.2987
      11    H5      20.445748   20.120636   20.622848 H          1 MOL1         0.0700
      12    H6      18.713872   20.509414   20.570205 H          1 MOL1         0.0700
      13    H7      19.689018   20.994475   21.973776 H          1 MOL1         0.0700
@<TRIPOS>BOND
    1     1     2    1
    2     1     3    2
    3     1     4    1
    4     4     5    1
    5     4     6    1
    6     4     7    1
    7     7     8    1
    8     7     9    1
    9     7    10    1
   10    10    11    1
   11    10    12    1
   12    10    13    1
@<TRIPOS>SUBSTRUCTURE
       1 MOL1            1 RESIDUE      1      MOL     
@<SCITEGIC>MOL_PROPERTY
VConf Rank
SciTegic.value.IntegerValue
631

@<SCITEGIC>MOL_PROPERTY
Conf_Id
SciTegic.value.IntegerValue
4

@<SCITEGIC>MOL_PROPERTY
Delta U+W
SciTegic.value.DoubleValue
0.281

@<SCITEGIC>MOL_PROPERTY
U+W
SciTegic.value.DoubleValue
-58.051

@<SCITEGIC>MOL_PROPERTY
Grad RMS
SciTegic.value.DoubleValue
0.000000

@<SCITEGIC>MOL_PROPERTY
U
SciTegic.value.DoubleValue
9.781

@<SCITEGIC>MOL_PROPERTY
W
SciTegic.value.DoubleValue
-67.832

@<SCITEGIC>MOL_PROPERTY
W(PB)
SciTegic.value.DoubleValue
-69.535

@<SCITEGIC>MOL_PROPERTY
W(SA)
SciTegic.value.DoubleValue
1.703

@<SCITEGIC>MOL_PROPERTY
Valence
SciTegic.value.DoubleValue
6.123

@<SCITEGIC>MOL_PROPERTY
Coulomb
SciTegic.value.DoubleValue
3.449

@<SCITEGIC>MOL_PROPERTY
VdW
SciTegic.value.DoubleValue
0.209

@<SCITEGIC>MOL_PROPERTY
VdW6
SciTegic.value.DoubleValue
-3.762

@<SCITEGIC>MOL_PROPERTY
VdW12
SciTegic.value.DoubleValue
3.972

@<SCITEGIC>MOL_PROPERTY
Bond
SciTegic.value.DoubleValue
0.078

@<SCITEGIC>MOL_PROPERTY
Angle
SciTegic.value.DoubleValue
2.428

@<SCITEGIC>MOL_PROPERTY
Pdih
SciTegic.value.DoubleValue
3.616

@<SCITEGIC>MOL_PROPERTY
Idih
SciTegic.value.DoubleValue
0.002

@<SCITEGIC>MOL_PROPERTY
Tether
SciTegic.value.DoubleValue
0.000

@<TRIPOS>MOLECULE
guest-6_confgen4.mol2 : confsearch ligand conformer 632
          13          12           1
SMALL
USER_CHARGES
 
@<TRIPOS>ATOM
       1    C1      20.451868   19.765587   23.565900 C.2        1 MOL1         0.6021
       2    O1      21.568935   20.242885   23.550031 O.co2      1 MOL1        -0.6904
       3    O2      19.503324   20.299151   24.105965 O.co2      1 MOL1        -0.6904
       4    C2      20.233615   18.407195   22.904188 C.3        1 MOL1        -0.2102
       5    H1      19.677322   17.783327   23.613915 H          1 MOL1         0.0687
       6    H2      21.208911   17.927085   22.757288 H          1 MOL1         0.0687
       7    C3      19.462814   18.472264   21.560697 C.3        1 MOL1        -0.1974
       8    H3      19.220332   17.451456   21.235082 H          1 MOL1         0.0689
       9    H4      18.505844   18.991559   21.710570 H          1 MOL1         0.0689
      10    C4      20.269728   19.176944   20.450631 C.3        1 MOL1        -0.2987
      11    H5      21.221354   18.660381   20.269082 H          1 MOL1         0.0700
      12    H6      19.704629   19.188455   19.509554 H          1 MOL1         0.0700
      13    H7      20.492334   20.216886   20.724115 H          1 MOL1         0.0700
@<TRIPOS>BOND
    1     1     2    1
    2     1     3    2
    3     1     4    1
    4     4     5    1
    5     4     6    1
    6     4     7    1
    7     7     8    1
    8     7     9    1
    9     7    10    1
   10    10    11    1
   11    10    12    1
   12    10    13    1
@<TRIPOS>SUBSTRUCTURE
       1 MOL1            1 RESIDUE      1      MOL     
@<SCITEGIC>MOL_PROPERTY
VConf Rank
SciTegic.value.IntegerValue
632

@<SCITEGIC>MOL_PROPERTY
Conf_Id
SciTegic.value.IntegerValue
36

@<SCITEGIC>MOL_PROPERTY
Delta U+W
SciTegic.value.DoubleValue
0.272

@<SCITEGIC>MOL_PROPERTY
U+W
SciTegic.value.DoubleValue
-58.060

@<SCITEGIC>MOL_PROPERTY
Grad RMS
SciTegic.value.DoubleValue
0.000000

@<SCITEGIC>MOL_PROPERTY
U
SciTegic.value.DoubleValue
9.781

@<SCITEGIC>MOL_PROPERTY
W
SciTegic.value.DoubleValue
-67.841

@<SCITEGIC>MOL_PROPERTY
W(PB)
SciTegic.value.DoubleValue
-69.537

@<SCITEGIC>MOL_PROPERTY
W(SA)
SciTegic.value.DoubleValue
1.696

@<SCITEGIC>MOL_PROPERTY
Valence
SciTegic.value.DoubleValue
6.123

@<SCITEGIC>MOL_PROPERTY
Coulomb
SciTegic.value.DoubleValue
3.449

@<SCITEGIC>MOL_PROPERTY
VdW
SciTegic.value.DoubleValue
0.209

@<SCITEGIC>MOL_PROPERTY
VdW6
SciTegic.value.DoubleValue
-3.762

@<SCITEGIC>MOL_PROPERTY
VdW12
SciTegic.value.DoubleValue
3.972

@<SCITEGIC>MOL_PROPERTY
Bond
SciTegic.value.DoubleValue
0.078

@<SCITEGIC>MOL_PROPERTY
Angle
SciTegic.value.DoubleValue
2.428

@<SCITEGIC>MOL_PROPERTY
Pdih
SciTegic.value.DoubleValue
3.616

@<SCITEGIC>MOL_PROPERTY
Idih
SciTegic.value.DoubleValue
0.002

@<SCITEGIC>MOL_PROPERTY
Tether
SciTegic.value.DoubleValue
0.000

@<TRIPOS>MOLECULE
guest-6_confgen4.mol2 : confsearch ligand conformer 633
          13          12           1
SMALL
USER_CHARGES
 
@<TRIPOS>ATOM
       1    C1      22.004953   19.786230   21.787945 C.2        1 MOL1         0.6021
       2    O1      22.645428   18.754094   21.830577 O.co2      1 MOL1        -0.6904
       3    O2      22.522109   20.884086   21.742573 O.co2      1 MOL1        -0.6904
       4    C2      20.475942   19.733313   21.790502 C.3        1 MOL1        -0.2102
       5    H1      20.128672   20.248958   20.887257 H          1 MOL1         0.0687
       6    H2      20.129102   20.321566   22.648405 H          1 MOL1         0.0687
       7    C3      19.860408   18.310773   21.849294 C.3        1 MOL1        -0.1974
       8    H3      20.211526   17.722019   20.990319 H          1 MOL1         0.0689
       9    H4      20.212019   17.794681   22.753602 H          1 MOL1         0.0689
      10    C4      18.319069   18.356696   21.847839 C.3        1 MOL1        -0.2987
      11    H5      17.941261   18.840978   20.937754 H          1 MOL1         0.0700
      12    H6      17.902134   17.341974   21.889805 H          1 MOL1         0.0700
      13    H7      17.941770   18.914275   22.715176 H          1 MOL1         0.0700
@<TRIPOS>BOND
    1     1     2    1
    2     1     3    2
    3     1     4    1
    4     4     5    1
    5     4     6    1
    6     4     7    1
    7     7     8    1
    8     7     9    1
    9     7    10    1
   10    10    11    1
   11    10    12    1
   12    10    13    1
@<TRIPOS>SUBSTRUCTURE
       1 MOL1            1 RESIDUE      1      MOL     
@<SCITEGIC>MOL_PROPERTY
VConf Rank
SciTegic.value.IntegerValue
633

@<SCITEGIC>MOL_PROPERTY
Conf_Id
SciTegic.value.IntegerValue
0

@<SCITEGIC>MOL_PROPERTY
Delta U+W
SciTegic.value.DoubleValue
0.000

@<SCITEGIC>MOL_PROPERTY
U+W
SciTegic.value.DoubleValue
-58.332

@<SCITEGIC>MOL_PROPERTY
Grad RMS
SciTegic.value.DoubleValue
0.000000

@<SCITEGIC>MOL_PROPERTY
U
SciTegic.value.DoubleValue
8.390

@<SCITEGIC>MOL_PROPERTY
W
SciTegic.value.DoubleValue
-66.722

@<SCITEGIC>MOL_PROPERTY
W(PB)
SciTegic.value.DoubleValue
-68.455

@<SCITEGIC>MOL_PROPERTY
W(SA)
SciTegic.value.DoubleValue
1.733

@<SCITEGIC>MOL_PROPERTY
Valence
SciTegic.value.DoubleValue
6.333

@<SCITEGIC>MOL_PROPERTY
Coulomb
SciTegic.value.DoubleValue
1.215

@<SCITEGIC>MOL_PROPERTY
VdW
SciTegic.value.DoubleValue
0.842

@<SCITEGIC>MOL_PROPERTY
VdW6
SciTegic.value.DoubleValue
-3.344

@<SCITEGIC>MOL_PROPERTY
VdW12
SciTegic.value.DoubleValue
4.186

@<SCITEGIC>MOL_PROPERTY
Bond
SciTegic.value.DoubleValue
0.091

@<SCITEGIC>MOL_PROPERTY
Angle
SciTegic.value.DoubleValue
2.713

@<SCITEGIC>MOL_PROPERTY
Pdih
SciTegic.value.DoubleValue
3.529

@<SCITEGIC>MOL_PROPERTY
Idih
SciTegic.value.DoubleValue
0.000

@<SCITEGIC>MOL_PROPERTY
Tether
SciTegic.value.DoubleValue
0.000

@<TRIPOS>MOLECULE
guest-6_confgen4.mol2 : confsearch ligand conformer 634
          13          12           1
SMALL
USER_CHARGES
 
@<TRIPOS>ATOM
       1    C1      20.361758   18.151620   19.952323 C.2        1 MOL1         0.6021
       2    O1      19.831760   18.682319   18.996906 O.co2      1 MOL1        -0.6904
       3    O2      20.698390   16.984697   19.970474 O.co2      1 MOL1        -0.6904
       4    C2      20.600263   18.990706   21.203142 C.3        1 MOL1        -0.2102
       5    H1      20.796005   20.023293   20.889347 H          1 MOL1         0.0687
       6    H2      21.510695   18.623342   21.692197 H          1 MOL1         0.0687
       7    C3      19.410943   18.951202   22.192995 C.3        1 MOL1        -0.1974
       8    H3      18.503003   19.311787   21.689562 H          1 MOL1         0.0689
       9    H4      19.217916   17.911603   22.492655 H          1 MOL1         0.0689
      10    C4      19.682950   19.808420   23.445385 C.3        1 MOL1        -0.2987
      11    H5      18.829369   19.767880   24.134601 H          1 MOL1         0.0700
      12    H6      20.570030   19.448174   23.982848 H          1 MOL1         0.0700
      13    H7      19.849591   20.859093   23.173590 H          1 MOL1         0.0700
@<TRIPOS>BOND
    1     1     2    1
    2     1     3    2
    3     1     4    1
    4     4     5    1
    5     4     6    1
    6     4     7    1
    7     7     8    1
    8     7     9    1
    9     7    10    1
   10    10    11    1
   11    10    12    1
   12    10    13    1
@<TRIPOS>SUBSTRUCTURE
       1 MOL1            1 RESIDUE      1      MOL     
@<SCITEGIC>MOL_PROPERTY
VConf Rank
SciTegic.value.IntegerValue
634

@<SCITEGIC>MOL_PROPERTY
Conf_Id
SciTegic.value.IntegerValue
1

@<SCITEGIC>MOL_PROPERTY
Delta U+W
SciTegic.value.DoubleValue
-1.339

@<SCITEGIC>MOL_PROPERTY
U+W
SciTegic.value.DoubleValue
-59.672

@<SCITEGIC>MOL_PROPERTY
Grad RMS
SciTegic.value.DoubleValue
0.000000

@<SCITEGIC>MOL_PROPERTY
U
SciTegic.value.DoubleValue
7.389

@<SCITEGIC>MOL_PROPERTY
W
SciTegic.value.DoubleValue
-67.061

@<SCITEGIC>MOL_PROPERTY
W(PB)
SciTegic.value.DoubleValue
-68.767

@<SCITEGIC>MOL_PROPERTY
W(SA)
SciTegic.value.DoubleValue
1.707

@<SCITEGIC>MOL_PROPERTY
Valence
SciTegic.value.DoubleValue
5.822

@<SCITEGIC>MOL_PROPERTY
Coulomb
SciTegic.value.DoubleValue
1.255

@<SCITEGIC>MOL_PROPERTY
VdW
SciTegic.value.DoubleValue
0.312

@<SCITEGIC>MOL_PROPERTY
VdW6
SciTegic.value.DoubleValue
-3.061

@<SCITEGIC>MOL_PROPERTY
VdW12
SciTegic.value.DoubleValue
3.372

@<SCITEGIC>MOL_PROPERTY
Bond
SciTegic.value.DoubleValue
0.059

@<SCITEGIC>MOL_PROPERTY
Angle
SciTegic.value.DoubleValue
2.241

@<SCITEGIC>MOL_PROPERTY
Pdih
SciTegic.value.DoubleValue
3.522

@<SCITEGIC>MOL_PROPERTY
Idih
SciTegic.value.DoubleValue
0.000

@<SCITEGIC>MOL_PROPERTY
Tether
SciTegic.value.DoubleValue
0.000

@<TRIPOS>MOLECULE
guest-6_confgen4.mol2 : confsearch ligand conformer 635
          13          12           1
SMALL
USER_CHARGES
 
@<TRIPOS>ATOM
       1    C1      19.578242   17.873570   23.306345 C.2        1 MOL1         0.6021
       2    O1      19.971520   18.141391   24.424247 O.co2      1 MOL1        -0.6904
       3    O2      18.452417   17.484190   23.068004 O.co2      1 MOL1        -0.6904
       4    C2      20.563281   17.999574   22.146799 C.3        1 MOL1        -0.2102
       5    H1      20.173953   17.433239   21.291828 H          1 MOL1         0.0687
       6    H2      21.494508   17.508834   22.454005 H          1 MOL1         0.0687
       7    C3      20.865016   19.460921   21.726371 C.3        1 MOL1        -0.1974
       8    H3      21.214969   20.029867   22.599158 H          1 MOL1         0.0689
       9    H4      21.687182   19.463331   20.997734 H          1 MOL1         0.0689
      10    C4      19.639064   20.161610   21.105079 C.3        1 MOL1        -0.2987
      11    H5      18.810100   20.216858   21.823127 H          1 MOL1         0.0700
      12    H6      19.891703   21.185721   20.800997 H          1 MOL1         0.0700
      13    H7      19.286229   19.620904   20.217082 H          1 MOL1         0.0700
@<TRIPOS>BOND
    1     1     2    1
    2     1     3    2
    3     1     4    1
    4     4     5    1
    5     4     6    1
    6     4     7    1
    7     7     8    1
    8     7     9    1
    9     7    10    1
   10    10    11    1
   11    10    12    1
   12    10    13    1
@<TRIPOS>SUBSTRUCTURE
       1 MOL1            1 RESIDUE      1      MOL     
@<SCITEGIC>MOL_PROPERTY
VConf Rank
SciTegic.value.IntegerValue
635

@<SCITEGIC>MOL_PROPERTY
Conf_Id
SciTegic.value.IntegerValue
4

@<SCITEGIC>MOL_PROPERTY
Delta U+W
SciTegic.value.DoubleValue
0.281

@<SCITEGIC>MOL_PROPERTY
U+W
SciTegic.value.DoubleValue
-58.051

@<SCITEGIC>MOL_PROPERTY
Grad RMS
SciTegic.value.DoubleValue
0.000000

@<SCITEGIC>MOL_PROPERTY
U
SciTegic.value.DoubleValue
9.781

@<SCITEGIC>MOL_PROPERTY
W
SciTegic.value.DoubleValue
-67.832

@<SCITEGIC>MOL_PROPERTY
W(PB)
SciTegic.value.DoubleValue
-69.535

@<SCITEGIC>MOL_PROPERTY
W(SA)
SciTegic.value.DoubleValue
1.703

@<SCITEGIC>MOL_PROPERTY
Valence
SciTegic.value.DoubleValue
6.123

@<SCITEGIC>MOL_PROPERTY
Coulomb
SciTegic.value.DoubleValue
3.449

@<SCITEGIC>MOL_PROPERTY
VdW
SciTegic.value.DoubleValue
0.209

@<SCITEGIC>MOL_PROPERTY
VdW6
SciTegic.value.DoubleValue
-3.762

@<SCITEGIC>MOL_PROPERTY
VdW12
SciTegic.value.DoubleValue
3.972

@<SCITEGIC>MOL_PROPERTY
Bond
SciTegic.value.DoubleValue
0.078

@<SCITEGIC>MOL_PROPERTY
Angle
SciTegic.value.DoubleValue
2.428

@<SCITEGIC>MOL_PROPERTY
Pdih
SciTegic.value.DoubleValue
3.616

@<SCITEGIC>MOL_PROPERTY
Idih
SciTegic.value.DoubleValue
0.002

@<SCITEGIC>MOL_PROPERTY
Tether
SciTegic.value.DoubleValue
0.000

@<TRIPOS>MOLECULE
guest-6_confgen4.mol2 : confsearch ligand conformer 636
          13          12           1
SMALL
USER_CHARGES
 
@<TRIPOS>ATOM
       1    C1      19.301239   20.090125   23.130720 C.2        1 MOL1         0.6021
       2    O1      20.062230   20.987239   23.434012 O.co2      1 MOL1        -0.6904
       3    O2      18.110133   20.253062   22.955177 O.co2      1 MOL1        -0.6904
       4    C2      19.862214   18.676513   22.997559 C.3        1 MOL1        -0.2102
       5    H1      19.202087   18.008112   23.563120 H          1 MOL1         0.0687
       6    H2      20.843601   18.640386   23.486293 H          1 MOL1         0.0687
       7    C3      19.975087   18.173666   21.535457 C.3        1 MOL1        -0.1974
       8    H3      20.240254   17.107586   21.540971 H          1 MOL1         0.0689
       9    H4      18.995881   18.252912   21.042711 H          1 MOL1         0.0689
      10    C4      21.031386   18.951441   20.723530 C.3        1 MOL1        -0.2987
      11    H5      22.023058   18.866869   21.187025 H          1 MOL1         0.0700
      12    H6      21.099834   18.558230   19.700889 H          1 MOL1         0.0700
      13    H7      20.774006   20.017034   20.659553 H          1 MOL1         0.0700
@<TRIPOS>BOND
    1     1     2    1
    2     1     3    2
    3     1     4    1
    4     4     5    1
    5     4     6    1
    6     4     7    1
    7     7     8    1
    8     7     9    1
    9     7    10    1
   10    10    11    1
   11    10    12    1
   12    10    13    1
@<TRIPOS>SUBSTRUCTURE
       1 MOL1            1 RESIDUE      1      MOL     
@<SCITEGIC>MOL_PROPERTY
VConf Rank
SciTegic.value.IntegerValue
636

@<SCITEGIC>MOL_PROPERTY
Conf_Id
SciTegic.value.IntegerValue
36

@<SCITEGIC>MOL_PROPERTY
Delta U+W
SciTegic.value.DoubleValue
0.272

@<SCITEGIC>MOL_PROPERTY
U+W
SciTegic.value.DoubleValue
-58.060

@<SCITEGIC>MOL_PROPERTY
Grad RMS
SciTegic.value.DoubleValue
0.000000

@<SCITEGIC>MOL_PROPERTY
U
SciTegic.value.DoubleValue
9.781

@<SCITEGIC>MOL_PROPERTY
W
SciTegic.value.DoubleValue
-67.841

@<SCITEGIC>MOL_PROPERTY
W(PB)
SciTegic.value.DoubleValue
-69.537

@<SCITEGIC>MOL_PROPERTY
W(SA)
SciTegic.value.DoubleValue
1.696

@<SCITEGIC>MOL_PROPERTY
Valence
SciTegic.value.DoubleValue
6.123

@<SCITEGIC>MOL_PROPERTY
Coulomb
SciTegic.value.DoubleValue
3.449

@<SCITEGIC>MOL_PROPERTY
VdW
SciTegic.value.DoubleValue
0.209

@<SCITEGIC>MOL_PROPERTY
VdW6
SciTegic.value.DoubleValue
-3.762

@<SCITEGIC>MOL_PROPERTY
VdW12
SciTegic.value.DoubleValue
3.972

@<SCITEGIC>MOL_PROPERTY
Bond
SciTegic.value.DoubleValue
0.078

@<SCITEGIC>MOL_PROPERTY
Angle
SciTegic.value.DoubleValue
2.428

@<SCITEGIC>MOL_PROPERTY
Pdih
SciTegic.value.DoubleValue
3.616

@<SCITEGIC>MOL_PROPERTY
Idih
SciTegic.value.DoubleValue
0.002

@<SCITEGIC>MOL_PROPERTY
Tether
SciTegic.value.DoubleValue
0.000

@<TRIPOS>MOLECULE
guest-6_confgen4.mol2 : confsearch ligand conformer 637
          13          12           1
SMALL
USER_CHARGES
 
@<TRIPOS>ATOM
       1    C1      21.996930   19.712730   22.198858 C.2        1 MOL1         0.6021
       2    O1      22.176640   20.385763   21.202836 O.co2      1 MOL1        -0.6904
       3    O2      22.830217   19.590711   23.073810 O.co2      1 MOL1        -0.6904
       4    C2      20.671153   18.973001   22.388060 C.3        1 MOL1        -0.2102
       5    H1      20.238365   19.313404   23.336300 H          1 MOL1         0.0687
       6    H2      20.904047   17.908059   22.506367 H          1 MOL1         0.0687
       7    C3      19.638075   19.158144   21.245944 C.3        1 MOL1        -0.1974
       8    H3      19.408264   20.226234   21.127096 H          1 MOL1         0.0689
       9    H4      20.074793   18.819229   20.296119 H          1 MOL1         0.0689
      10    C4      18.337006   18.378193   21.522948 C.3        1 MOL1        -0.2987
      11    H5      17.863988   18.720637   22.452738 H          1 MOL1         0.0700
      12    H6      17.619025   18.521205   20.704835 H          1 MOL1         0.0700
      13    H7      18.535891   17.302336   21.615140 H          1 MOL1         0.0700
@<TRIPOS>BOND
    1     1     2    1
    2     1     3    2
    3     1     4    1
    4     4     5    1
    5     4     6    1
    6     4     7    1
    7     7     8    1
    8     7     9    1
    9     7    10    1
   10    10    11    1
   11    10    12    1
   12    10    13    1
@<TRIPOS>SUBSTRUCTURE
       1 MOL1            1 RESIDUE      1      MOL     
@<SCITEGIC>MOL_PROPERTY
VConf Rank
SciTegic.value.IntegerValue
637

@<SCITEGIC>MOL_PROPERTY
Conf_Id
SciTegic.value.IntegerValue
0

@<SCITEGIC>MOL_PROPERTY
Delta U+W
SciTegic.value.DoubleValue
0.000

@<SCITEGIC>MOL_PROPERTY
U+W
SciTegic.value.DoubleValue
-58.332

@<SCITEGIC>MOL_PROPERTY
Grad RMS
SciTegic.value.DoubleValue
0.000000

@<SCITEGIC>MOL_PROPERTY
U
SciTegic.value.DoubleValue
8.390

@<SCITEGIC>MOL_PROPERTY
W
SciTegic.value.DoubleValue
-66.722

@<SCITEGIC>MOL_PROPERTY
W(PB)
SciTegic.value.DoubleValue
-68.455

@<SCITEGIC>MOL_PROPERTY
W(SA)
SciTegic.value.DoubleValue
1.733

@<SCITEGIC>MOL_PROPERTY
Valence
SciTegic.value.DoubleValue
6.333

@<SCITEGIC>MOL_PROPERTY
Coulomb
SciTegic.value.DoubleValue
1.215

@<SCITEGIC>MOL_PROPERTY
VdW
SciTegic.value.DoubleValue
0.842

@<SCITEGIC>MOL_PROPERTY
VdW6
SciTegic.value.DoubleValue
-3.344

@<SCITEGIC>MOL_PROPERTY
VdW12
SciTegic.value.DoubleValue
4.186

@<SCITEGIC>MOL_PROPERTY
Bond
SciTegic.value.DoubleValue
0.091

@<SCITEGIC>MOL_PROPERTY
Angle
SciTegic.value.DoubleValue
2.713

@<SCITEGIC>MOL_PROPERTY
Pdih
SciTegic.value.DoubleValue
3.529

@<SCITEGIC>MOL_PROPERTY
Idih
SciTegic.value.DoubleValue
0.000

@<SCITEGIC>MOL_PROPERTY
Tether
SciTegic.value.DoubleValue
0.000

@<TRIPOS>MOLECULE
guest-6_confgen4.mol2 : confsearch ligand conformer 638
          13          12           1
SMALL
USER_CHARGES
 
@<TRIPOS>ATOM
       1    C1      19.618197   20.795003   22.945912 C.2        1 MOL1         0.6021
       2    O1      18.458687   21.005058   23.240484 O.co2      1 MOL1        -0.6904
       3    O2      20.457820   21.668613   22.861058 O.co2      1 MOL1        -0.6904
       4    C2      20.038149   19.359556   22.648201 C.3        1 MOL1        -0.2102
       5    H1      19.433991   18.690531   23.273033 H          1 MOL1         0.0687
       6    H2      21.082593   19.237735   22.960157 H          1 MOL1         0.0687
       7    C3      19.880489   18.981157   21.155617 C.3        1 MOL1        -0.1974
       8    H3      18.832977   19.116447   20.851913 H          1 MOL1         0.0689
       9    H4      20.481981   19.663663   20.539001 H          1 MOL1         0.0689
      10    C4      20.312707   17.525554   20.887854 C.3        1 MOL1        -0.2987
      11    H5      20.193885   17.276109   19.825347 H          1 MOL1         0.0700
      12    H6      21.366440   17.373056   21.156083 H          1 MOL1         0.0700
      13    H7      19.704761   16.821654   21.471363 H          1 MOL1         0.0700
@<TRIPOS>BOND
    1     1     2    1
    2     1     3    2
    3     1     4    1
    4     4     5    1
    5     4     6    1
    6     4     7    1
    7     7     8    1
    8     7     9    1
    9     7    10    1
   10    10    11    1
   11    10    12    1
   12    10    13    1
@<TRIPOS>SUBSTRUCTURE
       1 MOL1            1 RESIDUE      1      MOL     
@<SCITEGIC>MOL_PROPERTY
VConf Rank
SciTegic.value.IntegerValue
638

@<SCITEGIC>MOL_PROPERTY
Conf_Id
SciTegic.value.IntegerValue
1

@<SCITEGIC>MOL_PROPERTY
Delta U+W
SciTegic.value.DoubleValue
-1.339

@<SCITEGIC>MOL_PROPERTY
U+W
SciTegic.value.DoubleValue
-59.672

@<SCITEGIC>MOL_PROPERTY
Grad RMS
SciTegic.value.DoubleValue
0.000000

@<SCITEGIC>MOL_PROPERTY
U
SciTegic.value.DoubleValue
7.389

@<SCITEGIC>MOL_PROPERTY
W
SciTegic.value.DoubleValue
-67.061

@<SCITEGIC>MOL_PROPERTY
W(PB)
SciTegic.value.DoubleValue
-68.767

@<SCITEGIC>MOL_PROPERTY
W(SA)
SciTegic.value.DoubleValue
1.707

@<SCITEGIC>MOL_PROPERTY
Valence
SciTegic.value.DoubleValue
5.822

@<SCITEGIC>MOL_PROPERTY
Coulomb
SciTegic.value.DoubleValue
1.255

@<SCITEGIC>MOL_PROPERTY
VdW
SciTegic.value.DoubleValue
0.312

@<SCITEGIC>MOL_PROPERTY
VdW6
SciTegic.value.DoubleValue
-3.061

@<SCITEGIC>MOL_PROPERTY
VdW12
SciTegic.value.DoubleValue
3.372

@<SCITEGIC>MOL_PROPERTY
Bond
SciTegic.value.DoubleValue
0.059

@<SCITEGIC>MOL_PROPERTY
Angle
SciTegic.value.DoubleValue
2.241

@<SCITEGIC>MOL_PROPERTY
Pdih
SciTegic.value.DoubleValue
3.522

@<SCITEGIC>MOL_PROPERTY
Idih
SciTegic.value.DoubleValue
0.000

@<SCITEGIC>MOL_PROPERTY
Tether
SciTegic.value.DoubleValue
0.000

@<TRIPOS>MOLECULE
guest-6_confgen4.mol2 : confsearch ligand conformer 639
          13          12           1
SMALL
USER_CHARGES
 
@<TRIPOS>ATOM
       1    C1      21.789170   19.598140   22.208256 C.2        1 MOL1         0.6021
       2    O1      22.675214   18.767215   22.232524 O.co2      1 MOL1        -0.6904
       3    O2      21.892476   20.670939   21.647602 O.co2      1 MOL1        -0.6904
       4    C2      20.492248   19.290107   22.952458 C.3        1 MOL1        -0.2102
       5    H1      19.944814   20.227949   23.107552 H          1 MOL1         0.0687
       6    H2      20.766338   18.915508   23.945905 H          1 MOL1         0.0687
       7    C3      19.584333   18.253043   22.242861 C.3        1 MOL1        -0.1974
       8    H3      20.154610   17.332436   22.055274 H          1 MOL1         0.0689
       9    H4      18.757153   17.980930   22.912637 H          1 MOL1         0.0689
      10    C4      19.004210   18.785969   20.916446 C.3        1 MOL1        -0.2987
      11    H5      19.804517   19.027065   20.204260 H          1 MOL1         0.0700
      12    H6      18.351747   18.036059   20.450589 H          1 MOL1         0.0700
      13    H7      18.411353   19.694649   21.084411 H          1 MOL1         0.0700
@<TRIPOS>BOND
    1     1     2    1
    2     1     3    2
    3     1     4    1
    4     4     5    1
    5     4     6    1
    6     4     7    1
    7     7     8    1
    8     7     9    1
    9     7    10    1
   10    10    11    1
   11    10    12    1
   12    10    13    1
@<TRIPOS>SUBSTRUCTURE
       1 MOL1            1 RESIDUE      1      MOL     
@<SCITEGIC>MOL_PROPERTY
VConf Rank
SciTegic.value.IntegerValue
639

@<SCITEGIC>MOL_PROPERTY
Conf_Id
SciTegic.value.IntegerValue
4

@<SCITEGIC>MOL_PROPERTY
Delta U+W
SciTegic.value.DoubleValue
0.281

@<SCITEGIC>MOL_PROPERTY
U+W
SciTegic.value.DoubleValue
-58.051

@<SCITEGIC>MOL_PROPERTY
Grad RMS
SciTegic.value.DoubleValue
0.000000

@<SCITEGIC>MOL_PROPERTY
U
SciTegic.value.DoubleValue
9.781

@<SCITEGIC>MOL_PROPERTY
W
SciTegic.value.DoubleValue
-67.832

@<SCITEGIC>MOL_PROPERTY
W(PB)
SciTegic.value.DoubleValue
-69.535

@<SCITEGIC>MOL_PROPERTY
W(SA)
SciTegic.value.DoubleValue
1.703

@<SCITEGIC>MOL_PROPERTY
Valence
SciTegic.value.DoubleValue
6.123

@<SCITEGIC>MOL_PROPERTY
Coulomb
SciTegic.value.DoubleValue
3.449

@<SCITEGIC>MOL_PROPERTY
VdW
SciTegic.value.DoubleValue
0.209

@<SCITEGIC>MOL_PROPERTY
VdW6
SciTegic.value.DoubleValue
-3.762

@<SCITEGIC>MOL_PROPERTY
VdW12
SciTegic.value.DoubleValue
3.972

@<SCITEGIC>MOL_PROPERTY
Bond
SciTegic.value.DoubleValue
0.078

@<SCITEGIC>MOL_PROPERTY
Angle
SciTegic.value.DoubleValue
2.428

@<SCITEGIC>MOL_PROPERTY
Pdih
SciTegic.value.DoubleValue
3.616

@<SCITEGIC>MOL_PROPERTY
Idih
SciTegic.value.DoubleValue
0.002

@<SCITEGIC>MOL_PROPERTY
Tether
SciTegic.value.DoubleValue
0.000

@<TRIPOS>MOLECULE
guest-6_confgen4.mol2 : confsearch ligand conformer 640
          13          12           1
SMALL
USER_CHARGES
 
@<TRIPOS>ATOM
       1    C1      21.620541   19.574788   21.233878 C.2        1 MOL1         0.6021
       2    O1      21.363589   20.533395   20.533196 O.co2      1 MOL1        -0.6904
       3    O2      22.631120   19.485685   21.902374 O.co2      1 MOL1        -0.6904
       4    C2      20.641125   18.403793   21.249291 C.3        1 MOL1        -0.2102
       5    H1      21.225574   17.486772   21.108304 H          1 MOL1         0.0687
       6    H2      19.975047   18.491308   20.382130 H          1 MOL1         0.0687
       7    C3      19.808981   18.289577   22.552298 C.3        1 MOL1        -0.1974
       8    H3      19.248575   17.344770   22.539784 H          1 MOL1         0.0689
       9    H4      20.485080   18.244207   23.417603 H          1 MOL1         0.0689
      10    C4      18.819241   19.460231   22.725242 C.3        1 MOL1        -0.2987
      11    H5      18.119157   19.510212   21.880981 H          1 MOL1         0.0700
      12    H6      18.233298   19.338665   23.645562 H          1 MOL1         0.0700
      13    H7      19.349683   20.419773   22.786376 H          1 MOL1         0.0700
@<TRIPOS>BOND
    1     1     2    1
    2     1     3    2
    3     1     4    1
    4     4     5    1
    5     4     6    1
    6     4     7    1
    7     7     8    1
    8     7     9    1
    9     7    10    1
   10    10    11    1
   11    10    12    1
   12    10    13    1
@<TRIPOS>SUBSTRUCTURE
       1 MOL1            1 RESIDUE      1      MOL     
@<SCITEGIC>MOL_PROPERTY
VConf Rank
SciTegic.value.IntegerValue
640

@<SCITEGIC>MOL_PROPERTY
Conf_Id
SciTegic.value.IntegerValue
36

@<SCITEGIC>MOL_PROPERTY
Delta U+W
SciTegic.value.DoubleValue
0.272

@<SCITEGIC>MOL_PROPERTY
U+W
SciTegic.value.DoubleValue
-58.060

@<SCITEGIC>MOL_PROPERTY
Grad RMS
SciTegic.value.DoubleValue
0.000000

@<SCITEGIC>MOL_PROPERTY
U
SciTegic.value.DoubleValue
9.781

@<SCITEGIC>MOL_PROPERTY
W
SciTegic.value.DoubleValue
-67.841

@<SCITEGIC>MOL_PROPERTY
W(PB)
SciTegic.value.DoubleValue
-69.537

@<SCITEGIC>MOL_PROPERTY
W(SA)
SciTegic.value.DoubleValue
1.696

@<SCITEGIC>MOL_PROPERTY
Valence
SciTegic.value.DoubleValue
6.123

@<SCITEGIC>MOL_PROPERTY
Coulomb
SciTegic.value.DoubleValue
3.449

@<SCITEGIC>MOL_PROPERTY
VdW
SciTegic.value.DoubleValue
0.209

@<SCITEGIC>MOL_PROPERTY
VdW6
SciTegic.value.DoubleValue
-3.762

@<SCITEGIC>MOL_PROPERTY
VdW12
SciTegic.value.DoubleValue
3.972

@<SCITEGIC>MOL_PROPERTY
Bond
SciTegic.value.DoubleValue
0.078

@<SCITEGIC>MOL_PROPERTY
Angle
SciTegic.value.DoubleValue
2.428

@<SCITEGIC>MOL_PROPERTY
Pdih
SciTegic.value.DoubleValue
3.616

@<SCITEGIC>MOL_PROPERTY
Idih
SciTegic.value.DoubleValue
0.002

@<SCITEGIC>MOL_PROPERTY
Tether
SciTegic.value.DoubleValue
0.000

@<TRIPOS>MOLECULE
guest-6_confgen4.mol2 : confsearch ligand conformer 641
          13          12           1
SMALL
USER_CHARGES
 
@<TRIPOS>ATOM
       1    C1      18.044052   19.655622   21.369278 C.2        1 MOL1         0.6021
       2    O1      17.460449   18.589446   21.367088 O.co2      1 MOL1        -0.6904
       3    O2      17.489245   20.713710   21.151485 O.co2      1 MOL1        -0.6904
       4    C2      19.546275   19.699927   21.655715 C.3        1 MOL1        -0.2102
       5    H1      19.696087   20.360063   22.518335 H          1 MOL1         0.0687
       6    H2      20.029622   20.180638   20.796861 H          1 MOL1         0.0687
       7    C3      20.211636   18.325456   21.927892 C.3        1 MOL1        -0.1974
       8    H3      19.723903   17.844131   22.787078 H          1 MOL1         0.0689
       9    H4      20.057784   17.664451   21.063510 H          1 MOL1         0.0689
      10    C4      21.721687   18.468744   22.205468 C.3        1 MOL1        -0.2987
      11    H5      21.901257   19.100812   23.085108 H          1 MOL1         0.0700
      12    H6      22.174592   17.486902   22.395523 H          1 MOL1         0.0700
      13    H7      22.237802   18.919742   21.347710 H          1 MOL1         0.0700
@<TRIPOS>BOND
    1     1     2    1
    2     1     3    2
    3     1     4    1
    4     4     5    1
    5     4     6    1
    6     4     7    1
    7     7     8    1
    8     7     9    1
    9     7    10    1
   10    10    11    1
   11    10    12    1
   12    10    13    1
@<TRIPOS>SUBSTRUCTURE
       1 MOL1            1 RESIDUE      1      MOL     
@<SCITEGIC>MOL_PROPERTY
VConf Rank
SciTegic.value.IntegerValue
641

@<SCITEGIC>MOL_PROPERTY
Conf_Id
SciTegic.value.IntegerValue
0

@<SCITEGIC>MOL_PROPERTY
Delta U+W
SciTegic.value.DoubleValue
0.000

@<SCITEGIC>MOL_PROPERTY
U+W
SciTegic.value.DoubleValue
-58.332

@<SCITEGIC>MOL_PROPERTY
Grad RMS
SciTegic.value.DoubleValue
0.000000

@<SCITEGIC>MOL_PROPERTY
U
SciTegic.value.DoubleValue
8.390

@<SCITEGIC>MOL_PROPERTY
W
SciTegic.value.DoubleValue
-66.722

@<SCITEGIC>MOL_PROPERTY
W(PB)
SciTegic.value.DoubleValue
-68.455

@<SCITEGIC>MOL_PROPERTY
W(SA)
SciTegic.value.DoubleValue
1.733

@<SCITEGIC>MOL_PROPERTY
Valence
SciTegic.value.DoubleValue
6.333

@<SCITEGIC>MOL_PROPERTY
Coulomb
SciTegic.value.DoubleValue
1.215

@<SCITEGIC>MOL_PROPERTY
VdW
SciTegic.value.DoubleValue
0.842

@<SCITEGIC>MOL_PROPERTY
VdW6
SciTegic.value.DoubleValue
-3.344

@<SCITEGIC>MOL_PROPERTY
VdW12
SciTegic.value.DoubleValue
4.186

@<SCITEGIC>MOL_PROPERTY
Bond
SciTegic.value.DoubleValue
0.091

@<SCITEGIC>MOL_PROPERTY
Angle
SciTegic.value.DoubleValue
2.713

@<SCITEGIC>MOL_PROPERTY
Pdih
SciTegic.value.DoubleValue
3.529

@<SCITEGIC>MOL_PROPERTY
Idih
SciTegic.value.DoubleValue
0.000

@<SCITEGIC>MOL_PROPERTY
Tether
SciTegic.value.DoubleValue
0.000

@<TRIPOS>MOLECULE
guest-6_confgen4.mol2 : confsearch ligand conformer 642
          13          12           1
SMALL
USER_CHARGES
 
@<TRIPOS>ATOM
       1    C1      19.799753   17.228861   22.902357 C.2        1 MOL1         0.6021
       2    O1      18.720898   16.675692   22.828613 O.co2      1 MOL1        -0.6904
       3    O2      20.573035   17.071031   23.825658 O.co2      1 MOL1        -0.6904
       4    C2      20.196668   18.187614   21.784883 C.3        1 MOL1        -0.2102
       5    H1      19.759362   17.820255   20.848491 H          1 MOL1         0.0687
       6    H2      21.286747   18.146257   21.670703 H          1 MOL1         0.0687
       7    C3      19.743668   19.643940   22.048991 C.3        1 MOL1        -0.1974
       8    H3      18.651857   19.671627   22.171480 H          1 MOL1         0.0689
       9    H4      20.179627   19.997725   22.993766 H          1 MOL1         0.0689
      10    C4      20.159510   20.587090   20.902329 C.3        1 MOL1        -0.2987
      11    H5      19.829922   21.614002   21.107480 H          1 MOL1         0.0700
      12    H6      21.250575   20.599312   20.779922 H          1 MOL1         0.0700
      13    H7      19.711053   20.270731   19.951350 H          1 MOL1         0.0700
@<TRIPOS>BOND
    1     1     2    1
    2     1     3    2
    3     1     4    1
    4     4     5    1
    5     4     6    1
    6     4     7    1
    7     7     8    1
    8     7     9    1
    9     7    10    1
   10    10    11    1
   11    10    12    1
   12    10    13    1
@<TRIPOS>SUBSTRUCTURE
       1 MOL1            1 RESIDUE      1      MOL     
@<SCITEGIC>MOL_PROPERTY
VConf Rank
SciTegic.value.IntegerValue
642

@<SCITEGIC>MOL_PROPERTY
Conf_Id
SciTegic.value.IntegerValue
1

@<SCITEGIC>MOL_PROPERTY
Delta U+W
SciTegic.value.DoubleValue
-1.339

@<SCITEGIC>MOL_PROPERTY
U+W
SciTegic.value.DoubleValue
-59.672

@<SCITEGIC>MOL_PROPERTY
Grad RMS
SciTegic.value.DoubleValue
0.000000

@<SCITEGIC>MOL_PROPERTY
U
SciTegic.value.DoubleValue
7.389

@<SCITEGIC>MOL_PROPERTY
W
SciTegic.value.DoubleValue
-67.061

@<SCITEGIC>MOL_PROPERTY
W(PB)
SciTegic.value.DoubleValue
-68.767

@<SCITEGIC>MOL_PROPERTY
W(SA)
SciTegic.value.DoubleValue
1.707

@<SCITEGIC>MOL_PROPERTY
Valence
SciTegic.value.DoubleValue
5.822

@<SCITEGIC>MOL_PROPERTY
Coulomb
SciTegic.value.DoubleValue
1.255

@<SCITEGIC>MOL_PROPERTY
VdW
SciTegic.value.DoubleValue
0.312

@<SCITEGIC>MOL_PROPERTY
VdW6
SciTegic.value.DoubleValue
-3.061

@<SCITEGIC>MOL_PROPERTY
VdW12
SciTegic.value.DoubleValue
3.372

@<SCITEGIC>MOL_PROPERTY
Bond
SciTegic.value.DoubleValue
0.059

@<SCITEGIC>MOL_PROPERTY
Angle
SciTegic.value.DoubleValue
2.241

@<SCITEGIC>MOL_PROPERTY
Pdih
SciTegic.value.DoubleValue
3.522

@<SCITEGIC>MOL_PROPERTY
Idih
SciTegic.value.DoubleValue
0.000

@<SCITEGIC>MOL_PROPERTY
Tether
SciTegic.value.DoubleValue
0.000

@<TRIPOS>MOLECULE
guest-6_confgen4.mol2 : confsearch ligand conformer 643
          13          12           1
SMALL
USER_CHARGES
 
@<TRIPOS>ATOM
       1    C1      21.619639   19.642058   21.273957 C.2        1 MOL1         0.6021
       2    O1      21.490285   20.676163   20.649462 O.co2      1 MOL1        -0.6904
       3    O2      22.563862   19.414152   22.003619 O.co2      1 MOL1        -0.6904
       4    C2      20.556639   18.559666   21.103121 C.3        1 MOL1        -0.2102
       5    H1      20.966425   17.605682   21.457067 H          1 MOL1         0.0687
       6    H2      20.374920   18.446631   20.027674 H          1 MOL1         0.0687
       7    C3      19.218052   18.865570   21.822806 C.3        1 MOL1        -0.1974
       8    H3      18.837341   19.841996   21.491786 H          1 MOL1         0.0689
       9    H4      18.470291   18.117852   21.525071 H          1 MOL1         0.0689
      10    C4      19.357761   18.854423   23.359128 C.3        1 MOL1        -0.2987
      11    H5      20.066688   19.622147   23.696543 H          1 MOL1         0.0700
      12    H6      18.389959   19.054563   23.837039 H          1 MOL1         0.0700
      13    H7      19.716322   17.879105   23.713501 H          1 MOL1         0.0700
@<TRIPOS>BOND
    1     1     2    1
    2     1     3    2
    3     1     4    1
    4     4     5    1
    5     4     6    1
    6     4     7    1
    7     7     8    1
    8     7     9    1
    9     7    10    1
   10    10    11    1
   11    10    12    1
   12    10    13    1
@<TRIPOS>SUBSTRUCTURE
       1 MOL1            1 RESIDUE      1      MOL     
@<SCITEGIC>MOL_PROPERTY
VConf Rank
SciTegic.value.IntegerValue
643

@<SCITEGIC>MOL_PROPERTY
Conf_Id
SciTegic.value.IntegerValue
4

@<SCITEGIC>MOL_PROPERTY
Delta U+W
SciTegic.value.DoubleValue
0.281

@<SCITEGIC>MOL_PROPERTY
U+W
SciTegic.value.DoubleValue
-58.051

@<SCITEGIC>MOL_PROPERTY
Grad RMS
SciTegic.value.DoubleValue
0.000000

@<SCITEGIC>MOL_PROPERTY
U
SciTegic.value.DoubleValue
9.781

@<SCITEGIC>MOL_PROPERTY
W
SciTegic.value.DoubleValue
-67.832

@<SCITEGIC>MOL_PROPERTY
W(PB)
SciTegic.value.DoubleValue
-69.535

@<SCITEGIC>MOL_PROPERTY
W(SA)
SciTegic.value.DoubleValue
1.703

@<SCITEGIC>MOL_PROPERTY
Valence
SciTegic.value.DoubleValue
6.123

@<SCITEGIC>MOL_PROPERTY
Coulomb
SciTegic.value.DoubleValue
3.449

@<SCITEGIC>MOL_PROPERTY
VdW
SciTegic.value.DoubleValue
0.209

@<SCITEGIC>MOL_PROPERTY
VdW6
SciTegic.value.DoubleValue
-3.762

@<SCITEGIC>MOL_PROPERTY
VdW12
SciTegic.value.DoubleValue
3.972

@<SCITEGIC>MOL_PROPERTY
Bond
SciTegic.value.DoubleValue
0.078

@<SCITEGIC>MOL_PROPERTY
Angle
SciTegic.value.DoubleValue
2.428

@<SCITEGIC>MOL_PROPERTY
Pdih
SciTegic.value.DoubleValue
3.616

@<SCITEGIC>MOL_PROPERTY
Idih
SciTegic.value.DoubleValue
0.002

@<SCITEGIC>MOL_PROPERTY
Tether
SciTegic.value.DoubleValue
0.000

@<TRIPOS>MOLECULE
guest-6_confgen4.mol2 : confsearch ligand conformer 644
          13          12           1
SMALL
USER_CHARGES
 
@<TRIPOS>ATOM
       1    C1      19.545889   18.380554   23.590307 C.2        1 MOL1         0.6021
       2    O1      18.823475   19.215490   24.097164 O.co2      1 MOL1        -0.6904
       3    O2      19.352208   17.184470   23.679577 O.co2      1 MOL1        -0.6904
       4    C2      20.782365   18.855332   22.831072 C.3        1 MOL1        -0.2102
       5    H1      21.632527   18.260858   23.186332 H          1 MOL1         0.0687
       6    H2      20.986436   19.896916   23.108099 H          1 MOL1         0.0687
       7    C3      20.669992   18.724859   21.290394 C.3        1 MOL1        -0.1974
       8    H3      21.647277   18.942981   20.838500 H          1 MOL1         0.0689
       9    H4      20.424639   17.686628   21.026200 H          1 MOL1         0.0689
      10    C4      19.614440   19.677958   20.692616 C.3        1 MOL1        -0.2987
      11    H5      19.852976   20.723859   20.926247 H          1 MOL1         0.0700
      12    H6      19.574241   19.574596   19.600464 H          1 MOL1         0.0700
      13    H7      18.614546   19.458674   21.090046 H          1 MOL1         0.0700
@<TRIPOS>BOND
    1     1     2    1
    2     1     3    2
    3     1     4    1
    4     4     5    1
    5     4     6    1
    6     4     7    1
    7     7     8    1
    8     7     9    1
    9     7    10    1
   10    10    11    1
   11    10    12    1
   12    10    13    1
@<TRIPOS>SUBSTRUCTURE
       1 MOL1            1 RESIDUE      1      MOL     
@<SCITEGIC>MOL_PROPERTY
VConf Rank
SciTegic.value.IntegerValue
644

@<SCITEGIC>MOL_PROPERTY
Conf_Id
SciTegic.value.IntegerValue
36

@<SCITEGIC>MOL_PROPERTY
Delta U+W
SciTegic.value.DoubleValue
0.272

@<SCITEGIC>MOL_PROPERTY
U+W
SciTegic.value.DoubleValue
-58.060

@<SCITEGIC>MOL_PROPERTY
Grad RMS
SciTegic.value.DoubleValue
0.000000

@<SCITEGIC>MOL_PROPERTY
U
SciTegic.value.DoubleValue
9.781

@<SCITEGIC>MOL_PROPERTY
W
SciTegic.value.DoubleValue
-67.841

@<SCITEGIC>MOL_PROPERTY
W(PB)
SciTegic.value.DoubleValue
-69.537

@<SCITEGIC>MOL_PROPERTY
W(SA)
SciTegic.value.DoubleValue
1.696

@<SCITEGIC>MOL_PROPERTY
Valence
SciTegic.value.DoubleValue
6.123

@<SCITEGIC>MOL_PROPERTY
Coulomb
SciTegic.value.DoubleValue
3.449

@<SCITEGIC>MOL_PROPERTY
VdW
SciTegic.value.DoubleValue
0.209

@<SCITEGIC>MOL_PROPERTY
VdW6
SciTegic.value.DoubleValue
-3.762

@<SCITEGIC>MOL_PROPERTY
VdW12
SciTegic.value.DoubleValue
3.972

@<SCITEGIC>MOL_PROPERTY
Bond
SciTegic.value.DoubleValue
0.078

@<SCITEGIC>MOL_PROPERTY
Angle
SciTegic.value.DoubleValue
2.428

@<SCITEGIC>MOL_PROPERTY
Pdih
SciTegic.value.DoubleValue
3.616

@<SCITEGIC>MOL_PROPERTY
Idih
SciTegic.value.DoubleValue
0.002

@<SCITEGIC>MOL_PROPERTY
Tether
SciTegic.value.DoubleValue
0.000

@<TRIPOS>MOLECULE
guest-6_confgen4.mol2 : confsearch ligand conformer 645
          13          12           1
SMALL
USER_CHARGES
 
@<TRIPOS>ATOM
       1    C1      19.787082   18.441050   23.865079 C.2        1 MOL1         0.6021
       2    O1      19.660172   19.537324   24.374398 O.co2      1 MOL1        -0.6904
       3    O2      19.761098   17.408242   24.503380 O.co2      1 MOL1        -0.6904
       4    C2      19.990702   18.323602   22.353316 C.3        1 MOL1        -0.2102
       5    H1      19.186697   17.688512   21.962709 H          1 MOL1         0.0687
       6    H2      20.931915   17.785208   22.190260 H          1 MOL1         0.0687
       7    C3      20.017045   19.667926   21.579974 C.3        1 MOL1        -0.1974
       8    H3      19.074158   20.207189   21.747050 H          1 MOL1         0.0689
       9    H4      20.821480   20.304043   21.974933 H          1 MOL1         0.0689
      10    C4      20.226306   19.450952   20.067702 C.3        1 MOL1        -0.2987
      11    H5      19.417125   18.842835   19.642329 H          1 MOL1         0.0700
      12    H6      20.242151   20.412345   19.537864 H          1 MOL1         0.0700
      13    H7      21.178461   18.940415   19.872057 H          1 MOL1         0.0700
@<TRIPOS>BOND
    1     1     2    1
    2     1     3    2
    3     1     4    1
    4     4     5    1
    5     4     6    1
    6     4     7    1
    7     7     8    1
    8     7     9    1
    9     7    10    1
   10    10    11    1
   11    10    12    1
   12    10    13    1
@<TRIPOS>SUBSTRUCTURE
       1 MOL1            1 RESIDUE      1      MOL     
@<SCITEGIC>MOL_PROPERTY
VConf Rank
SciTegic.value.IntegerValue
645

@<SCITEGIC>MOL_PROPERTY
Conf_Id
SciTegic.value.IntegerValue
0

@<SCITEGIC>MOL_PROPERTY
Delta U+W
SciTegic.value.DoubleValue
0.000

@<SCITEGIC>MOL_PROPERTY
U+W
SciTegic.value.DoubleValue
-58.332

@<SCITEGIC>MOL_PROPERTY
Grad RMS
SciTegic.value.DoubleValue
0.000000

@<SCITEGIC>MOL_PROPERTY
U
SciTegic.value.DoubleValue
8.390

@<SCITEGIC>MOL_PROPERTY
W
SciTegic.value.DoubleValue
-66.722

@<SCITEGIC>MOL_PROPERTY
W(PB)
SciTegic.value.DoubleValue
-68.455

@<SCITEGIC>MOL_PROPERTY
W(SA)
SciTegic.value.DoubleValue
1.733

@<SCITEGIC>MOL_PROPERTY
Valence
SciTegic.value.DoubleValue
6.333

@<SCITEGIC>MOL_PROPERTY
Coulomb
SciTegic.value.DoubleValue
1.215

@<SCITEGIC>MOL_PROPERTY
VdW
SciTegic.value.DoubleValue
0.842

@<SCITEGIC>MOL_PROPERTY
VdW6
SciTegic.value.DoubleValue
-3.344

@<SCITEGIC>MOL_PROPERTY
VdW12
SciTegic.value.DoubleValue
4.186

@<SCITEGIC>MOL_PROPERTY
Bond
SciTegic.value.DoubleValue
0.091

@<SCITEGIC>MOL_PROPERTY
Angle
SciTegic.value.DoubleValue
2.713

@<SCITEGIC>MOL_PROPERTY
Pdih
SciTegic.value.DoubleValue
3.529

@<SCITEGIC>MOL_PROPERTY
Idih
SciTegic.value.DoubleValue
0.000

@<SCITEGIC>MOL_PROPERTY
Tether
SciTegic.value.DoubleValue
0.000

@<TRIPOS>MOLECULE
guest-6_confgen4.mol2 : confsearch ligand conformer 646
          13          12           1
SMALL
USER_CHARGES
 
@<TRIPOS>ATOM
       1    C1      19.264915   17.487926   20.595972 C.2        1 MOL1         0.6021
       2    O1      19.863306   17.312284   19.553649 O.co2      1 MOL1        -0.6904
       3    O2      18.106173   17.166268   20.766895 O.co2      1 MOL1        -0.6904
       4    C2      20.002453   18.165852   21.745734 C.3        1 MOL1        -0.2102
       5    H1      21.060395   17.882427   21.687010 H          1 MOL1         0.0687
       6    H2      19.611369   17.761995   22.687526 H          1 MOL1         0.0687
       7    C3      19.862211   19.707238   21.728175 C.3        1 MOL1        -0.1974
       8    H3      20.247760   20.099498   20.776699 H          1 MOL1         0.0689
       9    H4      18.798485   19.979036   21.777532 H          1 MOL1         0.0689
      10    C4      20.618244   20.361812   22.901733 C.3        1 MOL1        -0.2987
      11    H5      20.507185   21.453629   22.872357 H          1 MOL1         0.0700
      12    H6      20.229896   20.007378   23.865641 H          1 MOL1         0.0700
      13    H7      21.690283   20.128793   22.857100 H          1 MOL1         0.0700
@<TRIPOS>BOND
    1     1     2    1
    2     1     3    2
    3     1     4    1
    4     4     5    1
    5     4     6    1
    6     4     7    1
    7     7     8    1
    8     7     9    1
    9     7    10    1
   10    10    11    1
   11    10    12    1
   12    10    13    1
@<TRIPOS>SUBSTRUCTURE
       1 MOL1            1 RESIDUE      1      MOL     
@<SCITEGIC>MOL_PROPERTY
VConf Rank
SciTegic.value.IntegerValue
646

@<SCITEGIC>MOL_PROPERTY
Conf_Id
SciTegic.value.IntegerValue
1

@<SCITEGIC>MOL_PROPERTY
Delta U+W
SciTegic.value.DoubleValue
-1.339

@<SCITEGIC>MOL_PROPERTY
U+W
SciTegic.value.DoubleValue
-59.672

@<SCITEGIC>MOL_PROPERTY
Grad RMS
SciTegic.value.DoubleValue
0.000000

@<SCITEGIC>MOL_PROPERTY
U
SciTegic.value.DoubleValue
7.389

@<SCITEGIC>MOL_PROPERTY
W
SciTegic.value.DoubleValue
-67.061

@<SCITEGIC>MOL_PROPERTY
W(PB)
SciTegic.value.DoubleValue
-68.767

@<SCITEGIC>MOL_PROPERTY
W(SA)
SciTegic.value.DoubleValue
1.707

@<SCITEGIC>MOL_PROPERTY
Valence
SciTegic.value.DoubleValue
5.822

@<SCITEGIC>MOL_PROPERTY
Coulomb
SciTegic.value.DoubleValue
1.255

@<SCITEGIC>MOL_PROPERTY
VdW
SciTegic.value.DoubleValue
0.312

@<SCITEGIC>MOL_PROPERTY
VdW6
SciTegic.value.DoubleValue
-3.061

@<SCITEGIC>MOL_PROPERTY
VdW12
SciTegic.value.DoubleValue
3.372

@<SCITEGIC>MOL_PROPERTY
Bond
SciTegic.value.DoubleValue
0.059

@<SCITEGIC>MOL_PROPERTY
Angle
SciTegic.value.DoubleValue
2.241

@<SCITEGIC>MOL_PROPERTY
Pdih
SciTegic.value.DoubleValue
3.522

@<SCITEGIC>MOL_PROPERTY
Idih
SciTegic.value.DoubleValue
0.000

@<SCITEGIC>MOL_PROPERTY
Tether
SciTegic.value.DoubleValue
0.000

@<TRIPOS>MOLECULE
guest-6_confgen4.mol2 : confsearch ligand conformer 647
          13          12           1
SMALL
USER_CHARGES
 
@<TRIPOS>ATOM
       1    C1      19.281425   17.590663   22.773195 C.2        1 MOL1         0.6021
       2    O1      19.456560   17.463279   23.968686 O.co2      1 MOL1        -0.6904
       3    O2      18.209149   17.412013   22.230780 O.co2      1 MOL1        -0.6904
       4    C2      20.481533   17.959667   21.904687 C.3        1 MOL1        -0.2102
       5    H1      20.244878   17.724026   20.859816 H          1 MOL1         0.0687
       6    H2      21.310630   17.304308   22.197070 H          1 MOL1         0.0687
       7    C3      20.925105   19.439752   22.030915 C.3        1 MOL1        -0.1974
       8    H3      21.119787   19.676560   23.086350 H          1 MOL1         0.0689
       9    H4      21.874772   19.577712   21.496151 H          1 MOL1         0.0689
      10    C4      19.879049   20.420197   21.461333 C.3        1 MOL1        -0.2987
      11    H5      18.927380   20.340764   22.003405 H          1 MOL1         0.0700
      12    H6      20.232102   21.456010   21.548173 H          1 MOL1         0.0700
      13    H7      19.685814   20.215056   20.400216 H          1 MOL1         0.0700
@<TRIPOS>BOND
    1     1     2    1
    2     1     3    2
    3     1     4    1
    4     4     5    1
    5     4     6    1
    6     4     7    1
    7     7     8    1
    8     7     9    1
    9     7    10    1
   10    10    11    1
   11    10    12    1
   12    10    13    1
@<TRIPOS>SUBSTRUCTURE
       1 MOL1            1 RESIDUE      1      MOL     
@<SCITEGIC>MOL_PROPERTY
VConf Rank
SciTegic.value.IntegerValue
647

@<SCITEGIC>MOL_PROPERTY
Conf_Id
SciTegic.value.IntegerValue
4

@<SCITEGIC>MOL_PROPERTY
Delta U+W
SciTegic.value.DoubleValue
0.281

@<SCITEGIC>MOL_PROPERTY
U+W
SciTegic.value.DoubleValue
-58.051

@<SCITEGIC>MOL_PROPERTY
Grad RMS
SciTegic.value.DoubleValue
0.000000

@<SCITEGIC>MOL_PROPERTY
U
SciTegic.value.DoubleValue
9.781

@<SCITEGIC>MOL_PROPERTY
W
SciTegic.value.DoubleValue
-67.832

@<SCITEGIC>MOL_PROPERTY
W(PB)
SciTegic.value.DoubleValue
-69.535

@<SCITEGIC>MOL_PROPERTY
W(SA)
SciTegic.value.DoubleValue
1.703

@<SCITEGIC>MOL_PROPERTY
Valence
SciTegic.value.DoubleValue
6.123

@<SCITEGIC>MOL_PROPERTY
Coulomb
SciTegic.value.DoubleValue
3.449

@<SCITEGIC>MOL_PROPERTY
VdW
SciTegic.value.DoubleValue
0.209

@<SCITEGIC>MOL_PROPERTY
VdW6
SciTegic.value.DoubleValue
-3.762

@<SCITEGIC>MOL_PROPERTY
VdW12
SciTegic.value.DoubleValue
3.972

@<SCITEGIC>MOL_PROPERTY
Bond
SciTegic.value.DoubleValue
0.078

@<SCITEGIC>MOL_PROPERTY
Angle
SciTegic.value.DoubleValue
2.428

@<SCITEGIC>MOL_PROPERTY
Pdih
SciTegic.value.DoubleValue
3.616

@<SCITEGIC>MOL_PROPERTY
Idih
SciTegic.value.DoubleValue
0.002

@<SCITEGIC>MOL_PROPERTY
Tether
SciTegic.value.DoubleValue
0.000

@<TRIPOS>MOLECULE
guest-6_confgen4.mol2 : confsearch ligand conformer 648
          13          12           1
SMALL
USER_CHARGES
 
@<TRIPOS>ATOM
       1    C1      20.979714   17.865062   20.878577 C.2        1 MOL1         0.6021
       2    O1      21.086746   16.768358   21.390133 O.co2      1 MOL1        -0.6904
       3    O2      20.767752   18.033685   19.694205 O.co2      1 MOL1        -0.6904
       4    C2      21.155910   19.098008   21.761484 C.3        1 MOL1        -0.2102
       5    H1      21.848779   19.773372   21.245536 H          1 MOL1         0.0687
       6    H2      21.645538   18.794671   22.695046 H          1 MOL1         0.0687
       7    C3      19.836490   19.850868   22.070787 C.3        1 MOL1        -0.1974
       8    H3      20.072102   20.796733   22.577442 H          1 MOL1         0.0689
       9    H4      19.333692   20.113627   21.129472 H          1 MOL1         0.0689
      10    C4      18.881351   19.027533   22.959468 C.3        1 MOL1        -0.2987
      11    H5      19.356782   18.772889   23.915770 H          1 MOL1         0.0700
      12    H6      17.967372   19.595987   23.175332 H          1 MOL1         0.0700
      13    H7      18.588782   18.092381   22.463765 H          1 MOL1         0.0700
@<TRIPOS>BOND
    1     1     2    1
    2     1     3    2
    3     1     4    1
    4     4     5    1
    5     4     6    1
    6     4     7    1
    7     7     8    1
    8     7     9    1
    9     7    10    1
   10    10    11    1
   11    10    12    1
   12    10    13    1
@<TRIPOS>SUBSTRUCTURE
       1 MOL1            1 RESIDUE      1      MOL     
@<SCITEGIC>MOL_PROPERTY
VConf Rank
SciTegic.value.IntegerValue
648

@<SCITEGIC>MOL_PROPERTY
Conf_Id
SciTegic.value.IntegerValue
36

@<SCITEGIC>MOL_PROPERTY
Delta U+W
SciTegic.value.DoubleValue
0.272

@<SCITEGIC>MOL_PROPERTY
U+W
SciTegic.value.DoubleValue
-58.060

@<SCITEGIC>MOL_PROPERTY
Grad RMS
SciTegic.value.DoubleValue
0.000000

@<SCITEGIC>MOL_PROPERTY
U
SciTegic.value.DoubleValue
9.781

@<SCITEGIC>MOL_PROPERTY
W
SciTegic.value.DoubleValue
-67.841

@<SCITEGIC>MOL_PROPERTY
W(PB)
SciTegic.value.DoubleValue
-69.537

@<SCITEGIC>MOL_PROPERTY
W(SA)
SciTegic.value.DoubleValue
1.696

@<SCITEGIC>MOL_PROPERTY
Valence
SciTegic.value.DoubleValue
6.123

@<SCITEGIC>MOL_PROPERTY
Coulomb
SciTegic.value.DoubleValue
3.449

@<SCITEGIC>MOL_PROPERTY
VdW
SciTegic.value.DoubleValue
0.209

@<SCITEGIC>MOL_PROPERTY
VdW6
SciTegic.value.DoubleValue
-3.762

@<SCITEGIC>MOL_PROPERTY
VdW12
SciTegic.value.DoubleValue
3.972

@<SCITEGIC>MOL_PROPERTY
Bond
SciTegic.value.DoubleValue
0.078

@<SCITEGIC>MOL_PROPERTY
Angle
SciTegic.value.DoubleValue
2.428

@<SCITEGIC>MOL_PROPERTY
Pdih
SciTegic.value.DoubleValue
3.616

@<SCITEGIC>MOL_PROPERTY
Idih
SciTegic.value.DoubleValue
0.002

@<SCITEGIC>MOL_PROPERTY
Tether
SciTegic.value.DoubleValue
0.000

@<TRIPOS>MOLECULE
guest-6_confgen4.mol2 : confsearch ligand conformer 649
          13          12           1
SMALL
USER_CHARGES
 
@<TRIPOS>ATOM
       1    C1      18.133003   19.299925   20.878853 C.2        1 MOL1         0.6021
       2    O1      17.751731   18.149054   20.792507 O.co2      1 MOL1        -0.6904
       3    O2      17.480913   20.244232   20.481538 O.co2      1 MOL1        -0.6904
       4    C2      19.491991   19.605593   21.511626 C.3        1 MOL1        -0.2102
       5    H1      19.316546   20.289968   22.350189 H          1 MOL1         0.0687
       6    H2      20.083365   20.154204   20.768901 H          1 MOL1         0.0687
       7    C3      20.288777   18.369271   22.004168 C.3        1 MOL1        -0.1974
       8    H3      19.693232   17.819302   22.746203 H          1 MOL1         0.0689
       9    H4      20.460932   17.683327   21.162980 H          1 MOL1         0.0689
      10    C4      21.641058   18.773697   22.625144 C.3        1 MOL1        -0.2987
      11    H5      21.494556   19.435727   23.488727 H          1 MOL1         0.0700
      12    H6      22.189896   17.886635   22.967422 H          1 MOL1         0.0700
      13    H7      22.268393   19.298709   21.892793 H          1 MOL1         0.0700
@<TRIPOS>BOND
    1     1     2    1
    2     1     3    2
    3     1     4    1
    4     4     5    1
    5     4     6    1
    6     4     7    1
    7     7     8    1
    8     7     9    1
    9     7    10    1
   10    10    11    1
   11    10    12    1
   12    10    13    1
@<TRIPOS>SUBSTRUCTURE
       1 MOL1            1 RESIDUE      1      MOL     
@<SCITEGIC>MOL_PROPERTY
VConf Rank
SciTegic.value.IntegerValue
649

@<SCITEGIC>MOL_PROPERTY
Conf_Id
SciTegic.value.IntegerValue
0

@<SCITEGIC>MOL_PROPERTY
Delta U+W
SciTegic.value.DoubleValue
0.000

@<SCITEGIC>MOL_PROPERTY
U+W
SciTegic.value.DoubleValue
-58.332

@<SCITEGIC>MOL_PROPERTY
Grad RMS
SciTegic.value.DoubleValue
0.000000

@<SCITEGIC>MOL_PROPERTY
U
SciTegic.value.DoubleValue
8.390

@<SCITEGIC>MOL_PROPERTY
W
SciTegic.value.DoubleValue
-66.722

@<SCITEGIC>MOL_PROPERTY
W(PB)
SciTegic.value.DoubleValue
-68.455

@<SCITEGIC>MOL_PROPERTY
W(SA)
SciTegic.value.DoubleValue
1.733

@<SCITEGIC>MOL_PROPERTY
Valence
SciTegic.value.DoubleValue
6.333

@<SCITEGIC>MOL_PROPERTY
Coulomb
SciTegic.value.DoubleValue
1.215

@<SCITEGIC>MOL_PROPERTY
VdW
SciTegic.value.DoubleValue
0.842

@<SCITEGIC>MOL_PROPERTY
VdW6
SciTegic.value.DoubleValue
-3.344

@<SCITEGIC>MOL_PROPERTY
VdW12
SciTegic.value.DoubleValue
4.186

@<SCITEGIC>MOL_PROPERTY
Bond
SciTegic.value.DoubleValue
0.091

@<SCITEGIC>MOL_PROPERTY
Angle
SciTegic.value.DoubleValue
2.713

@<SCITEGIC>MOL_PROPERTY
Pdih
SciTegic.value.DoubleValue
3.529

@<SCITEGIC>MOL_PROPERTY
Idih
SciTegic.value.DoubleValue
0.000

@<SCITEGIC>MOL_PROPERTY
Tether
SciTegic.value.DoubleValue
0.000

@<TRIPOS>MOLECULE
guest-6_confgen4.mol2 : confsearch ligand conformer 650
          13          12           1
SMALL
USER_CHARGES
 
@<TRIPOS>ATOM
       1    C1      20.111114   17.716600   23.473719 C.2        1 MOL1         0.6021
       2    O1      20.032469   18.223526   24.574719 O.co2      1 MOL1        -0.6904
       3    O2      20.657297   16.652459   23.262415 O.co2      1 MOL1        -0.6904
       4    C2      19.508156   18.465510   22.290049 C.3        1 MOL1        -0.2102
       5    H1      18.632486   19.020812   22.647624 H          1 MOL1         0.0687
       6    H2      19.147738   17.725211   21.565429 H          1 MOL1         0.0687
       7    C3      20.510355   19.430607   21.611790 C.3        1 MOL1        -0.1974
       8    H3      20.871954   20.161024   22.349054 H          1 MOL1         0.0689
       9    H4      21.387228   18.865166   21.266549 H          1 MOL1         0.0689
      10    C4      19.870910   20.171577   20.420419 C.3        1 MOL1        -0.2987
      11    H5      20.596093   20.850423   19.952936 H          1 MOL1         0.0700
      12    H6      19.528033   19.462701   19.655249 H          1 MOL1         0.0700
      13    H7      19.008841   20.768521   20.746072 H          1 MOL1         0.0700
@<TRIPOS>BOND
    1     1     2    1
    2     1     3    2
    3     1     4    1
    4     4     5    1
    5     4     6    1
    6     4     7    1
    7     7     8    1
    8     7     9    1
    9     7    10    1
   10    10    11    1
   11    10    12    1
   12    10    13    1
@<TRIPOS>SUBSTRUCTURE
       1 MOL1            1 RESIDUE      1      MOL     
@<SCITEGIC>MOL_PROPERTY
VConf Rank
SciTegic.value.IntegerValue
650

@<SCITEGIC>MOL_PROPERTY
Conf_Id
SciTegic.value.IntegerValue
1

@<SCITEGIC>MOL_PROPERTY
Delta U+W
SciTegic.value.DoubleValue
-1.339

@<SCITEGIC>MOL_PROPERTY
U+W
SciTegic.value.DoubleValue
-59.672

@<SCITEGIC>MOL_PROPERTY
Grad RMS
SciTegic.value.DoubleValue
0.000000

@<SCITEGIC>MOL_PROPERTY
U
SciTegic.value.DoubleValue
7.389

@<SCITEGIC>MOL_PROPERTY
W
SciTegic.value.DoubleValue
-67.061

@<SCITEGIC>MOL_PROPERTY
W(PB)
SciTegic.value.DoubleValue
-68.767

@<SCITEGIC>MOL_PROPERTY
W(SA)
SciTegic.value.DoubleValue
1.707

@<SCITEGIC>MOL_PROPERTY
Valence
SciTegic.value.DoubleValue
5.822

@<SCITEGIC>MOL_PROPERTY
Coulomb
SciTegic.value.DoubleValue
1.255

@<SCITEGIC>MOL_PROPERTY
VdW
SciTegic.value.DoubleValue
0.312

@<SCITEGIC>MOL_PROPERTY
VdW6
SciTegic.value.DoubleValue
-3.061

@<SCITEGIC>MOL_PROPERTY
VdW12
SciTegic.value.DoubleValue
3.372

@<SCITEGIC>MOL_PROPERTY
Bond
SciTegic.value.DoubleValue
0.059

@<SCITEGIC>MOL_PROPERTY
Angle
SciTegic.value.DoubleValue
2.241

@<SCITEGIC>MOL_PROPERTY
Pdih
SciTegic.value.DoubleValue
3.522

@<SCITEGIC>MOL_PROPERTY
Idih
SciTegic.value.DoubleValue
0.000

@<SCITEGIC>MOL_PROPERTY
Tether
SciTegic.value.DoubleValue
0.000

@<TRIPOS>MOLECULE
guest-6_confgen4.mol2 : confsearch ligand conformer 651
          13          12           1
SMALL
USER_CHARGES
 
@<TRIPOS>ATOM
       1    C1      20.388765   17.365628   21.238898 C.2        1 MOL1         0.6021
       2    O1      21.537122   16.969686   21.214302 O.co2      1 MOL1        -0.6904
       3    O2      19.437044   16.645748   21.466724 O.co2      1 MOL1        -0.6904
       4    C2      20.127831   18.838137   20.931721 C.3        1 MOL1        -0.2102
       5    H1      19.067436   18.962018   20.679723 H          1 MOL1         0.0687
       6    H2      20.699013   19.090354   20.030319 H          1 MOL1         0.0687
       7    C3      20.520583   19.804874   22.078240 C.3        1 MOL1        -0.1974
       8    H3      21.573038   19.643732   22.350808 H          1 MOL1         0.0689
       9    H4      20.442613   20.840034   21.718745 H          1 MOL1         0.0689
      10    C4      19.627745   19.635825   23.324912 C.3        1 MOL1        -0.2987
      11    H5      19.715158   18.622341   23.738478 H          1 MOL1         0.0700
      12    H6      19.919106   20.347055   24.108721 H          1 MOL1         0.0700
      13    H7      18.572730   19.814578   23.079185 H          1 MOL1         0.0700
@<TRIPOS>BOND
    1     1     2    1
    2     1     3    2
    3     1     4    1
    4     4     5    1
    5     4     6    1
    6     4     7    1
    7     7     8    1
    8     7     9    1
    9     7    10    1
   10    10    11    1
   11    10    12    1
   12    10    13    1
@<TRIPOS>SUBSTRUCTURE
       1 MOL1            1 RESIDUE      1      MOL     
@<SCITEGIC>MOL_PROPERTY
VConf Rank
SciTegic.value.IntegerValue
651

@<SCITEGIC>MOL_PROPERTY
Conf_Id
SciTegic.value.IntegerValue
4

@<SCITEGIC>MOL_PROPERTY
Delta U+W
SciTegic.value.DoubleValue
0.281

@<SCITEGIC>MOL_PROPERTY
U+W
SciTegic.value.DoubleValue
-58.051

@<SCITEGIC>MOL_PROPERTY
Grad RMS
SciTegic.value.DoubleValue
0.000000

@<SCITEGIC>MOL_PROPERTY
U
SciTegic.value.DoubleValue
9.781

@<SCITEGIC>MOL_PROPERTY
W
SciTegic.value.DoubleValue
-67.832

@<SCITEGIC>MOL_PROPERTY
W(PB)
SciTegic.value.DoubleValue
-69.535

@<SCITEGIC>MOL_PROPERTY
W(SA)
SciTegic.value.DoubleValue
1.703

@<SCITEGIC>MOL_PROPERTY
Valence
SciTegic.value.DoubleValue
6.123

@<SCITEGIC>MOL_PROPERTY
Coulomb
SciTegic.value.DoubleValue
3.449

@<SCITEGIC>MOL_PROPERTY
VdW
SciTegic.value.DoubleValue
0.209

@<SCITEGIC>MOL_PROPERTY
VdW6
SciTegic.value.DoubleValue
-3.762

@<SCITEGIC>MOL_PROPERTY
VdW12
SciTegic.value.DoubleValue
3.972

@<SCITEGIC>MOL_PROPERTY
Bond
SciTegic.value.DoubleValue
0.078

@<SCITEGIC>MOL_PROPERTY
Angle
SciTegic.value.DoubleValue
2.428

@<SCITEGIC>MOL_PROPERTY
Pdih
SciTegic.value.DoubleValue
3.616

@<SCITEGIC>MOL_PROPERTY
Idih
SciTegic.value.DoubleValue
0.002

@<SCITEGIC>MOL_PROPERTY
Tether
SciTegic.value.DoubleValue
0.000

@<TRIPOS>MOLECULE
guest-6_confgen4.mol2 : confsearch ligand conformer 652
          13          12           1
SMALL
USER_CHARGES
 
@<TRIPOS>ATOM
       1    C1      21.838541   19.381922   22.271839 C.2        1 MOL1         0.6021
       2    O1      22.352251   18.538492   22.979394 O.co2      1 MOL1        -0.6904
       3    O2      22.412520   19.918747   21.345306 O.co2      1 MOL1        -0.6904
       4    C2      20.408946   19.817793   22.583283 C.3        1 MOL1        -0.2102
       5    H1      20.394552   20.914230   22.585700 H          1 MOL1         0.0687
       6    H2      20.157128   19.495505   23.601126 H          1 MOL1         0.0687
       7    C3      19.351787   19.290536   21.579415 C.3        1 MOL1        -0.1974
       8    H3      18.385992   19.770488   21.788602 H          1 MOL1         0.0689
       9    H4      19.635503   19.583580   20.558850 H          1 MOL1         0.0689
      10    C4      19.179890   17.759209   21.653010 C.3        1 MOL1        -0.2987
      11    H5      18.874389   17.446561   22.660141 H          1 MOL1         0.0700
      12    H6      18.411817   17.421686   20.945029 H          1 MOL1         0.0700
      13    H7      20.117694   17.244427   21.405323 H          1 MOL1         0.0700
@<TRIPOS>BOND
    1     1     2    1
    2     1     3    2
    3     1     4    1
    4     4     5    1
    5     4     6    1
    6     4     7    1
    7     7     8    1
    8     7     9    1
    9     7    10    1
   10    10    11    1
   11    10    12    1
   12    10    13    1
@<TRIPOS>SUBSTRUCTURE
       1 MOL1            1 RESIDUE      1      MOL     
@<SCITEGIC>MOL_PROPERTY
VConf Rank
SciTegic.value.IntegerValue
652

@<SCITEGIC>MOL_PROPERTY
Conf_Id
SciTegic.value.IntegerValue
36

@<SCITEGIC>MOL_PROPERTY
Delta U+W
SciTegic.value.DoubleValue
0.272

@<SCITEGIC>MOL_PROPERTY
U+W
SciTegic.value.DoubleValue
-58.060

@<SCITEGIC>MOL_PROPERTY
Grad RMS
SciTegic.value.DoubleValue
0.000000

@<SCITEGIC>MOL_PROPERTY
U
SciTegic.value.DoubleValue
9.781

@<SCITEGIC>MOL_PROPERTY
W
SciTegic.value.DoubleValue
-67.841

@<SCITEGIC>MOL_PROPERTY
W(PB)
SciTegic.value.DoubleValue
-69.537

@<SCITEGIC>MOL_PROPERTY
W(SA)
SciTegic.value.DoubleValue
1.696

@<SCITEGIC>MOL_PROPERTY
Valence
SciTegic.value.DoubleValue
6.123

@<SCITEGIC>MOL_PROPERTY
Coulomb
SciTegic.value.DoubleValue
3.449

@<SCITEGIC>MOL_PROPERTY
VdW
SciTegic.value.DoubleValue
0.209

@<SCITEGIC>MOL_PROPERTY
VdW6
SciTegic.value.DoubleValue
-3.762

@<SCITEGIC>MOL_PROPERTY
VdW12
SciTegic.value.DoubleValue
3.972

@<SCITEGIC>MOL_PROPERTY
Bond
SciTegic.value.DoubleValue
0.078

@<SCITEGIC>MOL_PROPERTY
Angle
SciTegic.value.DoubleValue
2.428

@<SCITEGIC>MOL_PROPERTY
Pdih
SciTegic.value.DoubleValue
3.616

@<SCITEGIC>MOL_PROPERTY
Idih
SciTegic.value.DoubleValue
0.002

@<SCITEGIC>MOL_PROPERTY
Tether
SciTegic.value.DoubleValue
0.000

@<TRIPOS>MOLECULE
guest-6_confgen4.mol2 : confsearch ligand conformer 653
          13          12           1
SMALL
USER_CHARGES
 
@<TRIPOS>ATOM
       1    C1      18.221700   17.944001   21.387825 C.2        1 MOL1         0.6021
       2    O1      18.230564   17.993608   20.173416 O.co2      1 MOL1        -0.6904
       3    O2      17.341556   17.396954   22.020977 O.co2      1 MOL1        -0.6904
       4    C2      19.356761   18.591019   22.183869 C.3        1 MOL1        -0.2102
       5    H1      19.805957   17.809609   22.808337 H          1 MOL1         0.0687
       6    H2      18.904573   19.323348   22.863249 H          1 MOL1         0.0687
       7    C3      20.457554   19.277348   21.333479 C.3        1 MOL1        -0.1974
       8    H3      20.907400   18.542455   20.651332 H          1 MOL1         0.0689
       9    H4      20.004895   20.058012   20.706249 H          1 MOL1         0.0689
      10    C4      21.556125   19.899465   22.218887 C.3        1 MOL1        -0.2987
      11    H5      22.045921   19.133101   22.833956 H          1 MOL1         0.0700
      12    H6      22.325243   20.379931   21.600125 H          1 MOL1         0.0700
      13    H7      21.136145   20.660792   22.889350 H          1 MOL1         0.0700
@<TRIPOS>BOND
    1     1     2    1
    2     1     3    2
    3     1     4    1
    4     4     5    1
    5     4     6    1
    6     4     7    1
    7     7     8    1
    8     7     9    1
    9     7    10    1
   10    10    11    1
   11    10    12    1
   12    10    13    1
@<TRIPOS>SUBSTRUCTURE
       1 MOL1            1 RESIDUE      1      MOL     
@<SCITEGIC>MOL_PROPERTY
VConf Rank
SciTegic.value.IntegerValue
653

@<SCITEGIC>MOL_PROPERTY
Conf_Id
SciTegic.value.IntegerValue
0

@<SCITEGIC>MOL_PROPERTY
Delta U+W
SciTegic.value.DoubleValue
0.000

@<SCITEGIC>MOL_PROPERTY
U+W
SciTegic.value.DoubleValue
-58.332

@<SCITEGIC>MOL_PROPERTY
Grad RMS
SciTegic.value.DoubleValue
0.000000

@<SCITEGIC>MOL_PROPERTY
U
SciTegic.value.DoubleValue
8.390

@<SCITEGIC>MOL_PROPERTY
W
SciTegic.value.DoubleValue
-66.722

@<SCITEGIC>MOL_PROPERTY
W(PB)
SciTegic.value.DoubleValue
-68.455

@<SCITEGIC>MOL_PROPERTY
W(SA)
SciTegic.value.DoubleValue
1.733

@<SCITEGIC>MOL_PROPERTY
Valence
SciTegic.value.DoubleValue
6.333

@<SCITEGIC>MOL_PROPERTY
Coulomb
SciTegic.value.DoubleValue
1.215

@<SCITEGIC>MOL_PROPERTY
VdW
SciTegic.value.DoubleValue
0.842

@<SCITEGIC>MOL_PROPERTY
VdW6
SciTegic.value.DoubleValue
-3.344

@<SCITEGIC>MOL_PROPERTY
VdW12
SciTegic.value.DoubleValue
4.186

@<SCITEGIC>MOL_PROPERTY
Bond
SciTegic.value.DoubleValue
0.091

@<SCITEGIC>MOL_PROPERTY
Angle
SciTegic.value.DoubleValue
2.713

@<SCITEGIC>MOL_PROPERTY
Pdih
SciTegic.value.DoubleValue
3.529

@<SCITEGIC>MOL_PROPERTY
Idih
SciTegic.value.DoubleValue
0.000

@<SCITEGIC>MOL_PROPERTY
Tether
SciTegic.value.DoubleValue
0.000

@<TRIPOS>MOLECULE
guest-6_confgen4.mol2 : confsearch ligand conformer 654
          13          12           1
SMALL
USER_CHARGES
 
@<TRIPOS>ATOM
       1    C1      18.419655   17.626786   21.820980 C.2        1 MOL1         0.6021
       2    O1      17.775833   17.536203   22.846967 O.co2      1 MOL1        -0.6904
       3    O2      18.513747   16.730607   21.006505 O.co2      1 MOL1        -0.6904
       4    C2      19.165313   18.929096   21.549904 C.3        1 MOL1        -0.2102
       5    H1      18.583541   19.752047   21.982699 H          1 MOL1         0.0687
       6    H2      19.192049   19.087712   20.464941 H          1 MOL1         0.0687
       7    C3      20.602613   18.933173   22.124361 C.3        1 MOL1        -0.1974
       8    H3      20.564046   18.763652   23.209533 H          1 MOL1         0.0689
       9    H4      21.172694   18.099283   21.691397 H          1 MOL1         0.0689
      10    C4      21.328768   20.261960   21.833993 C.3        1 MOL1        -0.2987
      11    H5      22.345203   20.245796   22.248553 H          1 MOL1         0.0700
      12    H6      21.406255   20.439187   20.753187 H          1 MOL1         0.0700
      13    H7      20.792957   21.108634   22.283001 H          1 MOL1         0.0700
@<TRIPOS>BOND
    1     1     2    1
    2     1     3    2
    3     1     4    1
    4     4     5    1
    5     4     6    1
    6     4     7    1
    7     7     8    1
    8     7     9    1
    9     7    10    1
   10    10    11    1
   11    10    12    1
   12    10    13    1
@<TRIPOS>SUBSTRUCTURE
       1 MOL1            1 RESIDUE      1      MOL     
@<SCITEGIC>MOL_PROPERTY
VConf Rank
SciTegic.value.IntegerValue
654

@<SCITEGIC>MOL_PROPERTY
Conf_Id
SciTegic.value.IntegerValue
1

@<SCITEGIC>MOL_PROPERTY
Delta U+W
SciTegic.value.DoubleValue
-1.339

@<SCITEGIC>MOL_PROPERTY
U+W
SciTegic.value.DoubleValue
-59.672

@<SCITEGIC>MOL_PROPERTY
Grad RMS
SciTegic.value.DoubleValue
0.000000

@<SCITEGIC>MOL_PROPERTY
U
SciTegic.value.DoubleValue
7.389

@<SCITEGIC>MOL_PROPERTY
W
SciTegic.value.DoubleValue
-67.061

@<SCITEGIC>MOL_PROPERTY
W(PB)
SciTegic.value.DoubleValue
-68.767

@<SCITEGIC>MOL_PROPERTY
W(SA)
SciTegic.value.DoubleValue
1.707

@<SCITEGIC>MOL_PROPERTY
Valence
SciTegic.value.DoubleValue
5.822

@<SCITEGIC>MOL_PROPERTY
Coulomb
SciTegic.value.DoubleValue
1.255

@<SCITEGIC>MOL_PROPERTY
VdW
SciTegic.value.DoubleValue
0.312

@<SCITEGIC>MOL_PROPERTY
VdW6
SciTegic.value.DoubleValue
-3.061

@<SCITEGIC>MOL_PROPERTY
VdW12
SciTegic.value.DoubleValue
3.372

@<SCITEGIC>MOL_PROPERTY
Bond
SciTegic.value.DoubleValue
0.059

@<SCITEGIC>MOL_PROPERTY
Angle
SciTegic.value.DoubleValue
2.241

@<SCITEGIC>MOL_PROPERTY
Pdih
SciTegic.value.DoubleValue
3.522

@<SCITEGIC>MOL_PROPERTY
Idih
SciTegic.value.DoubleValue
0.000

@<SCITEGIC>MOL_PROPERTY
Tether
SciTegic.value.DoubleValue
0.000

@<TRIPOS>MOLECULE
guest-6_confgen4.mol2 : confsearch ligand conformer 655
          13          12           1
SMALL
USER_CHARGES
 
@<TRIPOS>ATOM
       1    C1      19.966114   18.315748   23.658426 C.2        1 MOL1         0.6021
       2    O1      18.838363   18.042231   24.018238 O.co2      1 MOL1        -0.6904
       3    O2      20.937083   17.635506   23.923747 O.co2      1 MOL1        -0.6904
       4    C2      20.176204   19.601026   22.861776 C.3        1 MOL1        -0.2102
       5    H1      21.240453   19.864817   22.894560 H          1 MOL1         0.0687
       6    H2      19.635685   20.400508   23.382405 H          1 MOL1         0.0687
       7    C3      19.690561   19.522973   21.391607 C.3        1 MOL1        -0.1974
       8    H3      18.634934   19.217929   21.368746 H          1 MOL1         0.0689
       9    H4      19.739449   20.524491   20.942780 H          1 MOL1         0.0689
      10    C4      20.532958   18.548626   20.542522 C.3        1 MOL1        -0.2987
      11    H5      20.471269   17.525976   20.937754 H          1 MOL1         0.0700
      12    H6      20.175945   18.531986   19.504562 H          1 MOL1         0.0700
      13    H7      21.589166   18.848190   20.533653 H          1 MOL1         0.0700
@<TRIPOS>BOND
    1     1     2    1
    2     1     3    2
    3     1     4    1
    4     4     5    1
    5     4     6    1
    6     4     7    1
    7     7     8    1
    8     7     9    1
    9     7    10    1
   10    10    11    1
   11    10    12    1
   12    10    13    1
@<TRIPOS>SUBSTRUCTURE
       1 MOL1            1 RESIDUE      1      MOL     
@<SCITEGIC>MOL_PROPERTY
VConf Rank
SciTegic.value.IntegerValue
655

@<SCITEGIC>MOL_PROPERTY
Conf_Id
SciTegic.value.IntegerValue
4

@<SCITEGIC>MOL_PROPERTY
Delta U+W
SciTegic.value.DoubleValue
0.281

@<SCITEGIC>MOL_PROPERTY
U+W
SciTegic.value.DoubleValue
-58.051

@<SCITEGIC>MOL_PROPERTY
Grad RMS
SciTegic.value.DoubleValue
0.000000

@<SCITEGIC>MOL_PROPERTY
U
SciTegic.value.DoubleValue
9.781

@<SCITEGIC>MOL_PROPERTY
W
SciTegic.value.DoubleValue
-67.832

@<SCITEGIC>MOL_PROPERTY
W(PB)
SciTegic.value.DoubleValue
-69.535

@<SCITEGIC>MOL_PROPERTY
W(SA)
SciTegic.value.DoubleValue
1.703

@<SCITEGIC>MOL_PROPERTY
Valence
SciTegic.value.DoubleValue
6.123

@<SCITEGIC>MOL_PROPERTY
Coulomb
SciTegic.value.DoubleValue
3.449

@<SCITEGIC>MOL_PROPERTY
VdW
SciTegic.value.DoubleValue
0.209

@<SCITEGIC>MOL_PROPERTY
VdW6
SciTegic.value.DoubleValue
-3.762

@<SCITEGIC>MOL_PROPERTY
VdW12
SciTegic.value.DoubleValue
3.972

@<SCITEGIC>MOL_PROPERTY
Bond
SciTegic.value.DoubleValue
0.078

@<SCITEGIC>MOL_PROPERTY
Angle
SciTegic.value.DoubleValue
2.428

@<SCITEGIC>MOL_PROPERTY
Pdih
SciTegic.value.DoubleValue
3.616

@<SCITEGIC>MOL_PROPERTY
Idih
SciTegic.value.DoubleValue
0.002

@<SCITEGIC>MOL_PROPERTY
Tether
SciTegic.value.DoubleValue
0.000

@<TRIPOS>MOLECULE
guest-6_confgen4.mol2 : confsearch ligand conformer 656
          13          12           1
SMALL
USER_CHARGES
 
@<TRIPOS>ATOM
       1    C1      18.645655   19.022235   23.017960 C.2        1 MOL1         0.6021
       2    O1      17.993289   20.008765   22.740326 O.co2      1 MOL1        -0.6904
       3    O2      18.150233   17.948509   23.296827 O.co2      1 MOL1        -0.6904
       4    C2      20.166982   19.144684   23.053972 C.3        1 MOL1        -0.2102
       5    H1      20.509369   18.691972   23.992167 H          1 MOL1         0.0687
       6    H2      20.432988   20.207901   23.099772 H          1 MOL1         0.0687
       7    C3      20.886759   18.465180   21.860853 C.3        1 MOL1        -0.1974
       8    H3      21.969945   18.469804   22.044043 H          1 MOL1         0.0689
       9    H4      20.581477   17.411179   21.799161 H          1 MOL1         0.0689
      10    C4      20.599640   19.170169   20.519034 C.3        1 MOL1        -0.2987
      11    H5      20.918023   20.220392   20.551512 H          1 MOL1         0.0700
      12    H6      21.138847   18.677013   19.699797 H          1 MOL1         0.0700
      13    H7      19.527804   19.145372   20.281594 H          1 MOL1         0.0700
@<TRIPOS>BOND
    1     1     2    1
    2     1     3    2
    3     1     4    1
    4     4     5    1
    5     4     6    1
    6     4     7    1
    7     7     8    1
    8     7     9    1
    9     7    10    1
   10    10    11    1
   11    10    12    1
   12    10    13    1
@<TRIPOS>SUBSTRUCTURE
       1 MOL1            1 RESIDUE      1      MOL     
@<SCITEGIC>MOL_PROPERTY
VConf Rank
SciTegic.value.IntegerValue
656

@<SCITEGIC>MOL_PROPERTY
Conf_Id
SciTegic.value.IntegerValue
36

@<SCITEGIC>MOL_PROPERTY
Delta U+W
SciTegic.value.DoubleValue
0.272

@<SCITEGIC>MOL_PROPERTY
U+W
SciTegic.value.DoubleValue
-58.060

@<SCITEGIC>MOL_PROPERTY
Grad RMS
SciTegic.value.DoubleValue
0.000000

@<SCITEGIC>MOL_PROPERTY
U
SciTegic.value.DoubleValue
9.781

@<SCITEGIC>MOL_PROPERTY
W
SciTegic.value.DoubleValue
-67.841

@<SCITEGIC>MOL_PROPERTY
W(PB)
SciTegic.value.DoubleValue
-69.537

@<SCITEGIC>MOL_PROPERTY
W(SA)
SciTegic.value.DoubleValue
1.696

@<SCITEGIC>MOL_PROPERTY
Valence
SciTegic.value.DoubleValue
6.123

@<SCITEGIC>MOL_PROPERTY
Coulomb
SciTegic.value.DoubleValue
3.449

@<SCITEGIC>MOL_PROPERTY
VdW
SciTegic.value.DoubleValue
0.209

@<SCITEGIC>MOL_PROPERTY
VdW6
SciTegic.value.DoubleValue
-3.762

@<SCITEGIC>MOL_PROPERTY
VdW12
SciTegic.value.DoubleValue
3.972

@<SCITEGIC>MOL_PROPERTY
Bond
SciTegic.value.DoubleValue
0.078

@<SCITEGIC>MOL_PROPERTY
Angle
SciTegic.value.DoubleValue
2.428

@<SCITEGIC>MOL_PROPERTY
Pdih
SciTegic.value.DoubleValue
3.616

@<SCITEGIC>MOL_PROPERTY
Idih
SciTegic.value.DoubleValue
0.002

@<SCITEGIC>MOL_PROPERTY
Tether
SciTegic.value.DoubleValue
0.000

@<TRIPOS>MOLECULE
guest-6_confgen4.mol2 : confsearch ligand conformer 657
          13          12           1
SMALL
USER_CHARGES
 
@<TRIPOS>ATOM
       1    C1      20.555932   20.687733   23.011347 C.2        1 MOL1         0.6021
       2    O1      20.501374   20.193490   24.120434 O.co2      1 MOL1        -0.6904
       3    O2      20.852395   21.849573   22.818902 O.co2      1 MOL1        -0.6904
       4    C2      20.242066   19.833431   21.781575 C.3        1 MOL1        -0.2102
       5    H1      21.119820   19.868704   21.125343 H          1 MOL1         0.0687
       6    H2      19.420604   20.321990   21.244130 H          1 MOL1         0.0687
       7    C3      19.868778   18.356951   22.075888 C.3        1 MOL1        -0.1974
       8    H3      20.692064   17.870013   22.617043 H          1 MOL1         0.0689
       9    H4      18.990795   18.323854   22.736043 H          1 MOL1         0.0689
      10    C4      19.569817   17.576007   20.780286 C.3        1 MOL1        -0.2987
      11    H5      20.443863   17.567902   20.115830 H          1 MOL1         0.0700
      12    H6      19.307921   16.534564   21.008463 H          1 MOL1         0.0700
      13    H7      18.728962   18.025431   20.235766 H          1 MOL1         0.0700
@<TRIPOS>BOND
    1     1     2    1
    2     1     3    2
    3     1     4    1
    4     4     5    1
    5     4     6    1
    6     4     7    1
    7     7     8    1
    8     7     9    1
    9     7    10    1
   10    10    11    1
   11    10    12    1
   12    10    13    1
@<TRIPOS>SUBSTRUCTURE
       1 MOL1            1 RESIDUE      1      MOL     
@<SCITEGIC>MOL_PROPERTY
VConf Rank
SciTegic.value.IntegerValue
657

@<SCITEGIC>MOL_PROPERTY
Conf_Id
SciTegic.value.IntegerValue
0

@<SCITEGIC>MOL_PROPERTY
Delta U+W
SciTegic.value.DoubleValue
0.000

@<SCITEGIC>MOL_PROPERTY
U+W
SciTegic.value.DoubleValue
-58.332

@<SCITEGIC>MOL_PROPERTY
Grad RMS
SciTegic.value.DoubleValue
0.000000

@<SCITEGIC>MOL_PROPERTY
U
SciTegic.value.DoubleValue
8.390

@<SCITEGIC>MOL_PROPERTY
W
SciTegic.value.DoubleValue
-66.722

@<SCITEGIC>MOL_PROPERTY
W(PB)
SciTegic.value.DoubleValue
-68.455

@<SCITEGIC>MOL_PROPERTY
W(SA)
SciTegic.value.DoubleValue
1.733

@<SCITEGIC>MOL_PROPERTY
Valence
SciTegic.value.DoubleValue
6.333

@<SCITEGIC>MOL_PROPERTY
Coulomb
SciTegic.value.DoubleValue
1.215

@<SCITEGIC>MOL_PROPERTY
VdW
SciTegic.value.DoubleValue
0.842

@<SCITEGIC>MOL_PROPERTY
VdW6
SciTegic.value.DoubleValue
-3.344

@<SCITEGIC>MOL_PROPERTY
VdW12
SciTegic.value.DoubleValue
4.186

@<SCITEGIC>MOL_PROPERTY
Bond
SciTegic.value.DoubleValue
0.091

@<SCITEGIC>MOL_PROPERTY
Angle
SciTegic.value.DoubleValue
2.713

@<SCITEGIC>MOL_PROPERTY
Pdih
SciTegic.value.DoubleValue
3.529

@<SCITEGIC>MOL_PROPERTY
Idih
SciTegic.value.DoubleValue
0.000

@<SCITEGIC>MOL_PROPERTY
Tether
SciTegic.value.DoubleValue
0.000

@<TRIPOS>MOLECULE
guest-6_confgen4.mol2 : confsearch ligand conformer 658
          13          12           1
SMALL
USER_CHARGES
 
@<TRIPOS>ATOM
       1    C1      20.704605   19.687361   19.953410 C.2        1 MOL1         0.6021
       2    O1      20.298819   20.766445   19.570950 O.co2      1 MOL1        -0.6904
       3    O2      21.105226   18.817783   19.205949 O.co2      1 MOL1        -0.6904
       4    C2      20.692836   19.401910   21.451368 C.3        1 MOL1        -0.2102
       5    H1      20.871466   20.346054   21.980236 H          1 MOL1         0.0687
       6    H2      21.536494   18.739085   21.679235 H          1 MOL1         0.0687
       7    C3      19.368175   18.763246   21.934308 C.3        1 MOL1        -0.1974
       8    H3      18.529637   19.431058   21.692024 H          1 MOL1         0.0689
       9    H4      19.194861   17.823739   21.391066 H          1 MOL1         0.0689
      10    C4      19.388076   18.487472   23.451161 C.3        1 MOL1        -0.2987
      11    H5      18.441421   18.035131   23.774417 H          1 MOL1         0.0700
      12    H6      20.200713   17.797601   23.714322 H          1 MOL1         0.0700
      13    H7      19.530346   19.417252   24.017576 H          1 MOL1         0.0700
@<TRIPOS>BOND
    1     1     2    1
    2     1     3    2
    3     1     4    1
    4     4     5    1
    5     4     6    1
    6     4     7    1
    7     7     8    1
    8     7     9    1
    9     7    10    1
   10    10    11    1
   11    10    12    1
   12    10    13    1
@<TRIPOS>SUBSTRUCTURE
       1 MOL1            1 RESIDUE      1      MOL     
@<SCITEGIC>MOL_PROPERTY
VConf Rank
SciTegic.value.IntegerValue
658

@<SCITEGIC>MOL_PROPERTY
Conf_Id
SciTegic.value.IntegerValue
1

@<SCITEGIC>MOL_PROPERTY
Delta U+W
SciTegic.value.DoubleValue
-1.339

@<SCITEGIC>MOL_PROPERTY
U+W
SciTegic.value.DoubleValue
-59.672

@<SCITEGIC>MOL_PROPERTY
Grad RMS
SciTegic.value.DoubleValue
0.000000

@<SCITEGIC>MOL_PROPERTY
U
SciTegic.value.DoubleValue
7.389

@<SCITEGIC>MOL_PROPERTY
W
SciTegic.value.DoubleValue
-67.061

@<SCITEGIC>MOL_PROPERTY
W(PB)
SciTegic.value.DoubleValue
-68.767

@<SCITEGIC>MOL_PROPERTY
W(SA)
SciTegic.value.DoubleValue
1.707

@<SCITEGIC>MOL_PROPERTY
Valence
SciTegic.value.DoubleValue
5.822

@<SCITEGIC>MOL_PROPERTY
Coulomb
SciTegic.value.DoubleValue
1.255

@<SCITEGIC>MOL_PROPERTY
VdW
SciTegic.value.DoubleValue
0.312

@<SCITEGIC>MOL_PROPERTY
VdW6
SciTegic.value.DoubleValue
-3.061

@<SCITEGIC>MOL_PROPERTY
VdW12
SciTegic.value.DoubleValue
3.372

@<SCITEGIC>MOL_PROPERTY
Bond
SciTegic.value.DoubleValue
0.059

@<SCITEGIC>MOL_PROPERTY
Angle
SciTegic.value.DoubleValue
2.241

@<SCITEGIC>MOL_PROPERTY
Pdih
SciTegic.value.DoubleValue
3.522

@<SCITEGIC>MOL_PROPERTY
Idih
SciTegic.value.DoubleValue
0.000

@<SCITEGIC>MOL_PROPERTY
Tether
SciTegic.value.DoubleValue
0.000

@<TRIPOS>MOLECULE
guest-6_confgen4.mol2 : confsearch ligand conformer 659
          13          12           1
SMALL
USER_CHARGES
 
@<TRIPOS>ATOM
       1    C1      19.269045   20.304998   22.827214 C.2        1 MOL1         0.6021
       2    O1      19.119880   21.324115   22.182815 O.co2      1 MOL1        -0.6904
       3    O2      18.418162   19.848318   23.564334 O.co2      1 MOL1        -0.6904
       4    C2      20.610188   19.581912   22.731244 C.3        1 MOL1        -0.2102
       5    H1      20.702050   18.897223   23.583330 H          1 MOL1         0.0687
       6    H2      21.397488   20.336599   22.845224 H          1 MOL1         0.0687
       7    C3      20.822458   18.812080   21.402471 C.3        1 MOL1        -0.1974
       8    H3      20.687511   19.498071   20.554456 H          1 MOL1         0.0689
       9    H4      21.859756   18.453271   21.356167 H          1 MOL1         0.0689
      10    C4      19.866517   17.609971   21.257419 C.3        1 MOL1        -0.2987
      11    H5      18.818339   17.937298   21.255007 H          1 MOL1         0.0700
      12    H6      20.056130   17.076207   20.317080 H          1 MOL1         0.0700
      13    H7      20.000660   16.899945   22.084015 H          1 MOL1         0.0700
@<TRIPOS>BOND
    1     1     2    1
    2     1     3    2
    3     1     4    1
    4     4     5    1
    5     4     6    1
    6     4     7    1
    7     7     8    1
    8     7     9    1
    9     7    10    1
   10    10    11    1
   11    10    12    1
   12    10    13    1
@<TRIPOS>SUBSTRUCTURE
       1 MOL1            1 RESIDUE      1      MOL     
@<SCITEGIC>MOL_PROPERTY
VConf Rank
SciTegic.value.IntegerValue
659

@<SCITEGIC>MOL_PROPERTY
Conf_Id
SciTegic.value.IntegerValue
4

@<SCITEGIC>MOL_PROPERTY
Delta U+W
SciTegic.value.DoubleValue
0.281

@<SCITEGIC>MOL_PROPERTY
U+W
SciTegic.value.DoubleValue
-58.051

@<SCITEGIC>MOL_PROPERTY
Grad RMS
SciTegic.value.DoubleValue
0.000000

@<SCITEGIC>MOL_PROPERTY
U
SciTegic.value.DoubleValue
9.781

@<SCITEGIC>MOL_PROPERTY
W
SciTegic.value.DoubleValue
-67.832

@<SCITEGIC>MOL_PROPERTY
W(PB)
SciTegic.value.DoubleValue
-69.535

@<SCITEGIC>MOL_PROPERTY
W(SA)
SciTegic.value.DoubleValue
1.703

@<SCITEGIC>MOL_PROPERTY
Valence
SciTegic.value.DoubleValue
6.123

@<SCITEGIC>MOL_PROPERTY
Coulomb
SciTegic.value.DoubleValue
3.449

@<SCITEGIC>MOL_PROPERTY
VdW
SciTegic.value.DoubleValue
0.209

@<SCITEGIC>MOL_PROPERTY
VdW6
SciTegic.value.DoubleValue
-3.762

@<SCITEGIC>MOL_PROPERTY
VdW12
SciTegic.value.DoubleValue
3.972

@<SCITEGIC>MOL_PROPERTY
Bond
SciTegic.value.DoubleValue
0.078

@<SCITEGIC>MOL_PROPERTY
Angle
SciTegic.value.DoubleValue
2.428

@<SCITEGIC>MOL_PROPERTY
Pdih
SciTegic.value.DoubleValue
3.616

@<SCITEGIC>MOL_PROPERTY
Idih
SciTegic.value.DoubleValue
0.002

@<SCITEGIC>MOL_PROPERTY
Tether
SciTegic.value.DoubleValue
0.000

@<TRIPOS>MOLECULE
guest-6_confgen4.mol2 : confsearch ligand conformer 660
          13          12           1
SMALL
USER_CHARGES
 
@<TRIPOS>ATOM
       1    C1      21.682990   18.862386   21.132212 C.2        1 MOL1         0.6021
       2    O1      22.173792   19.970012   21.041747 O.co2      1 MOL1        -0.6904
       3    O2      22.333915   17.855588   21.329064 O.co2      1 MOL1        -0.6904
       4    C2      20.173390   18.720757   20.953958 C.3        1 MOL1        -0.2102
       5    H1      20.003098   17.898572   20.248693 H          1 MOL1         0.0687
       6    H2      19.788781   19.631129   20.477948 H          1 MOL1         0.0687
       7    C3      19.402653   18.439630   22.269355 C.3        1 MOL1        -0.1974
       8    H3      18.356666   18.203818   22.030241 H          1 MOL1         0.0689
       9    H4      19.822950   17.549870   22.758844 H          1 MOL1         0.0689
      10    C4      19.439665   19.636070   23.242539 C.3        1 MOL1        -0.2987
      11    H5      19.003406   20.531387   22.780504 H          1 MOL1         0.0700
      12    H6      18.869322   19.411707   24.153290 H          1 MOL1         0.0700
      13    H7      20.470384   19.872247   23.538623 H          1 MOL1         0.0700
@<TRIPOS>BOND
    1     1     2    1
    2     1     3    2
    3     1     4    1
    4     4     5    1
    5     4     6    1
    6     4     7    1
    7     7     8    1
    8     7     9    1
    9     7    10    1
   10    10    11    1
   11    10    12    1
   12    10    13    1
@<TRIPOS>SUBSTRUCTURE
       1 MOL1            1 RESIDUE      1      MOL     
@<SCITEGIC>MOL_PROPERTY
VConf Rank
SciTegic.value.IntegerValue
660

@<SCITEGIC>MOL_PROPERTY
Conf_Id
SciTegic.value.IntegerValue
36

@<SCITEGIC>MOL_PROPERTY
Delta U+W
SciTegic.value.DoubleValue
0.272

@<SCITEGIC>MOL_PROPERTY
U+W
SciTegic.value.DoubleValue
-58.060

@<SCITEGIC>MOL_PROPERTY
Grad RMS
SciTegic.value.DoubleValue
0.000000

@<SCITEGIC>MOL_PROPERTY
U
SciTegic.value.DoubleValue
9.781

@<SCITEGIC>MOL_PROPERTY
W
SciTegic.value.DoubleValue
-67.841

@<SCITEGIC>MOL_PROPERTY
W(PB)
SciTegic.value.DoubleValue
-69.537

@<SCITEGIC>MOL_PROPERTY
W(SA)
SciTegic.value.DoubleValue
1.696

@<SCITEGIC>MOL_PROPERTY
Valence
SciTegic.value.DoubleValue
6.123

@<SCITEGIC>MOL_PROPERTY
Coulomb
SciTegic.value.DoubleValue
3.449

@<SCITEGIC>MOL_PROPERTY
VdW
SciTegic.value.DoubleValue
0.209

@<SCITEGIC>MOL_PROPERTY
VdW6
SciTegic.value.DoubleValue
-3.762

@<SCITEGIC>MOL_PROPERTY
VdW12
SciTegic.value.DoubleValue
3.972

@<SCITEGIC>MOL_PROPERTY
Bond
SciTegic.value.DoubleValue
0.078

@<SCITEGIC>MOL_PROPERTY
Angle
SciTegic.value.DoubleValue
2.428

@<SCITEGIC>MOL_PROPERTY
Pdih
SciTegic.value.DoubleValue
3.616

@<SCITEGIC>MOL_PROPERTY
Idih
SciTegic.value.DoubleValue
0.002

@<SCITEGIC>MOL_PROPERTY
Tether
SciTegic.value.DoubleValue
0.000

@<TRIPOS>MOLECULE
guest-6_confgen4.mol2 : confsearch ligand conformer 661
          13          12           1
SMALL
USER_CHARGES
 
@<TRIPOS>ATOM
       1    C1      21.047887   20.776617   22.406313 C.2        1 MOL1         0.6021
       2    O1      21.187368   20.561984   23.594508 O.co2      1 MOL1        -0.6904
       3    O2      21.448345   21.787465   21.865375 O.co2      1 MOL1        -0.6904
       4    C2      20.339479   19.745886   21.525157 C.3        1 MOL1        -0.2102
       5    H1      21.035017   19.465212   20.725290 H          1 MOL1         0.0687
       6    H2      19.490369   20.250279   21.048779 H          1 MOL1         0.0687
       7    C3      19.845574   18.471719   22.258991 C.3        1 MOL1        -0.1974
       8    H3      20.697534   17.969355   22.738105 H          1 MOL1         0.0689
       9    H4      19.151037   18.755393   23.062049 H          1 MOL1         0.0689
      10    C4      19.146190   17.493573   21.293627 C.3        1 MOL1        -0.2987
      11    H5      19.830243   17.170313   20.497954 H          1 MOL1         0.0700
      12    H6      18.803991   16.599154   21.830443 H          1 MOL1         0.0700
      13    H7      18.271357   17.962695   20.824462 H          1 MOL1         0.0700
@<TRIPOS>BOND
    1     1     2    1
    2     1     3    2
    3     1     4    1
    4     4     5    1
    5     4     6    1
    6     4     7    1
    7     7     8    1
    8     7     9    1
    9     7    10    1
   10    10    11    1
   11    10    12    1
   12    10    13    1
@<TRIPOS>SUBSTRUCTURE
       1 MOL1            1 RESIDUE      1      MOL     
@<SCITEGIC>MOL_PROPERTY
VConf Rank
SciTegic.value.IntegerValue
661

@<SCITEGIC>MOL_PROPERTY
Conf_Id
SciTegic.value.IntegerValue
0

@<SCITEGIC>MOL_PROPERTY
Delta U+W
SciTegic.value.DoubleValue
0.000

@<SCITEGIC>MOL_PROPERTY
U+W
SciTegic.value.DoubleValue
-58.332

@<SCITEGIC>MOL_PROPERTY
Grad RMS
SciTegic.value.DoubleValue
0.000000

@<SCITEGIC>MOL_PROPERTY
U
SciTegic.value.DoubleValue
8.390

@<SCITEGIC>MOL_PROPERTY
W
SciTegic.value.DoubleValue
-66.722

@<SCITEGIC>MOL_PROPERTY
W(PB)
SciTegic.value.DoubleValue
-68.455

@<SCITEGIC>MOL_PROPERTY
W(SA)
SciTegic.value.DoubleValue
1.733

@<SCITEGIC>MOL_PROPERTY
Valence
SciTegic.value.DoubleValue
6.333

@<SCITEGIC>MOL_PROPERTY
Coulomb
SciTegic.value.DoubleValue
1.215

@<SCITEGIC>MOL_PROPERTY
VdW
SciTegic.value.DoubleValue
0.842

@<SCITEGIC>MOL_PROPERTY
VdW6
SciTegic.value.DoubleValue
-3.344

@<SCITEGIC>MOL_PROPERTY
VdW12
SciTegic.value.DoubleValue
4.186

@<SCITEGIC>MOL_PROPERTY
Bond
SciTegic.value.DoubleValue
0.091

@<SCITEGIC>MOL_PROPERTY
Angle
SciTegic.value.DoubleValue
2.713

@<SCITEGIC>MOL_PROPERTY
Pdih
SciTegic.value.DoubleValue
3.529

@<SCITEGIC>MOL_PROPERTY
Idih
SciTegic.value.DoubleValue
0.000

@<SCITEGIC>MOL_PROPERTY
Tether
SciTegic.value.DoubleValue
0.000

@<TRIPOS>MOLECULE
guest-6_confgen4.mol2 : confsearch ligand conformer 662
          13          12           1
SMALL
USER_CHARGES
 
@<TRIPOS>ATOM
       1    C1      18.456201   20.319548   22.518313 C.2        1 MOL1         0.6021
       2    O1      18.597519   20.769342   23.637722 O.co2      1 MOL1        -0.6904
       3    O2      17.376496   20.198137   21.975305 O.co2      1 MOL1        -0.6904
       4    C2      19.699545   19.865323   21.761165 C.3        1 MOL1        -0.2102
       5    H1      20.536188   20.507536   22.062179 H          1 MOL1         0.0687
       6    H2      19.529263   20.036507   20.691249 H          1 MOL1         0.0687
       7    C3      20.051256   18.379218   22.013431 C.3        1 MOL1        -0.1974
       8    H3      20.209826   18.217590   23.088862 H          1 MOL1         0.0689
       9    H4      19.202774   17.746478   21.717559 H          1 MOL1         0.0689
      10    C4      21.311512   17.951604   21.234847 C.3        1 MOL1        -0.2987
      11    H5      21.544689   16.896018   21.426232 H          1 MOL1         0.0700
      12    H6      21.166318   18.076068   20.153652 H          1 MOL1         0.0700
      13    H7      22.181089   18.550767   21.535507 H          1 MOL1         0.0700
@<TRIPOS>BOND
    1     1     2    1
    2     1     3    2
    3     1     4    1
    4     4     5    1
    5     4     6    1
    6     4     7    1
    7     7     8    1
    8     7     9    1
    9     7    10    1
   10    10    11    1
   11    10    12    1
   12    10    13    1
@<TRIPOS>SUBSTRUCTURE
       1 MOL1            1 RESIDUE      1      MOL     
@<SCITEGIC>MOL_PROPERTY
VConf Rank
SciTegic.value.IntegerValue
662

@<SCITEGIC>MOL_PROPERTY
Conf_Id
SciTegic.value.IntegerValue
1

@<SCITEGIC>MOL_PROPERTY
Delta U+W
SciTegic.value.DoubleValue
-1.339

@<SCITEGIC>MOL_PROPERTY
U+W
SciTegic.value.DoubleValue
-59.672

@<SCITEGIC>MOL_PROPERTY
Grad RMS
SciTegic.value.DoubleValue
0.000000

@<SCITEGIC>MOL_PROPERTY
U
SciTegic.value.DoubleValue
7.389

@<SCITEGIC>MOL_PROPERTY
W
SciTegic.value.DoubleValue
-67.061

@<SCITEGIC>MOL_PROPERTY
W(PB)
SciTegic.value.DoubleValue
-68.767

@<SCITEGIC>MOL_PROPERTY
W(SA)
SciTegic.value.DoubleValue
1.707

@<SCITEGIC>MOL_PROPERTY
Valence
SciTegic.value.DoubleValue
5.822

@<SCITEGIC>MOL_PROPERTY
Coulomb
SciTegic.value.DoubleValue
1.255

@<SCITEGIC>MOL_PROPERTY
VdW
SciTegic.value.DoubleValue
0.312

@<SCITEGIC>MOL_PROPERTY
VdW6
SciTegic.value.DoubleValue
-3.061

@<SCITEGIC>MOL_PROPERTY
VdW12
SciTegic.value.DoubleValue
3.372

@<SCITEGIC>MOL_PROPERTY
Bond
SciTegic.value.DoubleValue
0.059

@<SCITEGIC>MOL_PROPERTY
Angle
SciTegic.value.DoubleValue
2.241

@<SCITEGIC>MOL_PROPERTY
Pdih
SciTegic.value.DoubleValue
3.522

@<SCITEGIC>MOL_PROPERTY
Idih
SciTegic.value.DoubleValue
0.000

@<SCITEGIC>MOL_PROPERTY
Tether
SciTegic.value.DoubleValue
0.000

@<TRIPOS>MOLECULE
guest-6_confgen4.mol2 : confsearch ligand conformer 663
          13          12           1
SMALL
USER_CHARGES
 
@<TRIPOS>ATOM
       1    C1      19.381499   20.530774   22.459979 C.2        1 MOL1         0.6021
       2    O1      20.040745   21.524561   22.227856 O.co2      1 MOL1        -0.6904
       3    O2      18.178629   20.472744   22.299851 O.co2      1 MOL1        -0.6904
       4    C2      20.099682   19.303602   23.015848 C.3        1 MOL1        -0.2102
       5    H1      19.355341   18.633409   23.463158 H          1 MOL1         0.0687
       6    H2      20.748237   19.645655   23.831177 H          1 MOL1         0.0687
       7    C3      20.948152   18.536616   21.969344 C.3        1 MOL1        -0.1974
       8    H3      21.662264   19.226415   21.498023 H          1 MOL1         0.0689
       9    H4      21.542935   17.768099   22.481679 H          1 MOL1         0.0689
      10    C4      20.081221   17.863310   20.885361 C.3        1 MOL1        -0.2987
      11    H5      19.504571   18.608775   20.321815 H          1 MOL1         0.0700
      12    H6      20.710268   17.313586   20.173182 H          1 MOL1         0.0700
      13    H7      19.374640   17.152462   21.333502 H          1 MOL1         0.0700
@<TRIPOS>BOND
    1     1     2    1
    2     1     3    2
    3     1     4    1
    4     4     5    1
    5     4     6    1
    6     4     7    1
    7     7     8    1
    8     7     9    1
    9     7    10    1
   10    10    11    1
   11    10    12    1
   12    10    13    1
@<TRIPOS>SUBSTRUCTURE
       1 MOL1            1 RESIDUE      1      MOL     
@<SCITEGIC>MOL_PROPERTY
VConf Rank
SciTegic.value.IntegerValue
663

@<SCITEGIC>MOL_PROPERTY
Conf_Id
SciTegic.value.IntegerValue
4

@<SCITEGIC>MOL_PROPERTY
Delta U+W
SciTegic.value.DoubleValue
0.281

@<SCITEGIC>MOL_PROPERTY
U+W
SciTegic.value.DoubleValue
-58.051

@<SCITEGIC>MOL_PROPERTY
Grad RMS
SciTegic.value.DoubleValue
0.000000

@<SCITEGIC>MOL_PROPERTY
U
SciTegic.value.DoubleValue
9.781

@<SCITEGIC>MOL_PROPERTY
W
SciTegic.value.DoubleValue
-67.832

@<SCITEGIC>MOL_PROPERTY
W(PB)
SciTegic.value.DoubleValue
-69.535

@<SCITEGIC>MOL_PROPERTY
W(SA)
SciTegic.value.DoubleValue
1.703

@<SCITEGIC>MOL_PROPERTY
Valence
SciTegic.value.DoubleValue
6.123

@<SCITEGIC>MOL_PROPERTY
Coulomb
SciTegic.value.DoubleValue
3.449

@<SCITEGIC>MOL_PROPERTY
VdW
SciTegic.value.DoubleValue
0.209

@<SCITEGIC>MOL_PROPERTY
VdW6
SciTegic.value.DoubleValue
-3.762

@<SCITEGIC>MOL_PROPERTY
VdW12
SciTegic.value.DoubleValue
3.972

@<SCITEGIC>MOL_PROPERTY
Bond
SciTegic.value.DoubleValue
0.078

@<SCITEGIC>MOL_PROPERTY
Angle
SciTegic.value.DoubleValue
2.428

@<SCITEGIC>MOL_PROPERTY
Pdih
SciTegic.value.DoubleValue
3.616

@<SCITEGIC>MOL_PROPERTY
Idih
SciTegic.value.DoubleValue
0.002

@<SCITEGIC>MOL_PROPERTY
Tether
SciTegic.value.DoubleValue
0.000

@<TRIPOS>MOLECULE
guest-6_confgen4.mol2 : confsearch ligand conformer 664
          13          12           1
SMALL
USER_CHARGES
 
@<TRIPOS>ATOM
       1    C1      20.795722   17.661171   20.975669 C.2        1 MOL1         0.6021
       2    O1      19.962805   17.301202   20.167846 O.co2      1 MOL1        -0.6904
       3    O2      21.981468   17.742711   20.723768 O.co2      1 MOL1        -0.6904
       4    C2      20.335756   17.994827   22.392648 C.3        1 MOL1        -0.2102
       5    H1      21.006394   17.472836   23.085580 H          1 MOL1         0.0687
       6    H2      19.333829   17.575008   22.544904 H          1 MOL1         0.0687
       7    C3      20.334903   19.510300   22.719262 C.3        1 MOL1        -0.1974
       8    H3      20.139626   19.647237   23.791636 H          1 MOL1         0.0689
       9    H4      21.332071   19.929128   22.523918 H          1 MOL1         0.0689
      10    C4      19.275708   20.287855   21.910903 C.3        1 MOL1        -0.2987
      11    H5      18.268044   19.899413   22.108682 H          1 MOL1         0.0700
      12    H6      19.288269   21.352091   22.179863 H          1 MOL1         0.0700
      13    H7      19.466415   20.209396   20.832339 H          1 MOL1         0.0700
@<TRIPOS>BOND
    1     1     2    1
    2     1     3    2
    3     1     4    1
    4     4     5    1
    5     4     6    1
    6     4     7    1
    7     7     8    1
    8     7     9    1
    9     7    10    1
   10    10    11    1
   11    10    12    1
   12    10    13    1
@<TRIPOS>SUBSTRUCTURE
       1 MOL1            1 RESIDUE      1      MOL     
@<SCITEGIC>MOL_PROPERTY
VConf Rank
SciTegic.value.IntegerValue
664

@<SCITEGIC>MOL_PROPERTY
Conf_Id
SciTegic.value.IntegerValue
36

@<SCITEGIC>MOL_PROPERTY
Delta U+W
SciTegic.value.DoubleValue
0.272

@<SCITEGIC>MOL_PROPERTY
U+W
SciTegic.value.DoubleValue
-58.060

@<SCITEGIC>MOL_PROPERTY
Grad RMS
SciTegic.value.DoubleValue
0.000000

@<SCITEGIC>MOL_PROPERTY
U
SciTegic.value.DoubleValue
9.781

@<SCITEGIC>MOL_PROPERTY
W
SciTegic.value.DoubleValue
-67.841

@<SCITEGIC>MOL_PROPERTY
W(PB)
SciTegic.value.DoubleValue
-69.537

@<SCITEGIC>MOL_PROPERTY
W(SA)
SciTegic.value.DoubleValue
1.696

@<SCITEGIC>MOL_PROPERTY
Valence
SciTegic.value.DoubleValue
6.123

@<SCITEGIC>MOL_PROPERTY
Coulomb
SciTegic.value.DoubleValue
3.449

@<SCITEGIC>MOL_PROPERTY
VdW
SciTegic.value.DoubleValue
0.209

@<SCITEGIC>MOL_PROPERTY
VdW6
SciTegic.value.DoubleValue
-3.762

@<SCITEGIC>MOL_PROPERTY
VdW12
SciTegic.value.DoubleValue
3.972

@<SCITEGIC>MOL_PROPERTY
Bond
SciTegic.value.DoubleValue
0.078

@<SCITEGIC>MOL_PROPERTY
Angle
SciTegic.value.DoubleValue
2.428

@<SCITEGIC>MOL_PROPERTY
Pdih
SciTegic.value.DoubleValue
3.616

@<SCITEGIC>MOL_PROPERTY
Idih
SciTegic.value.DoubleValue
0.002

@<SCITEGIC>MOL_PROPERTY
Tether
SciTegic.value.DoubleValue
0.000

@<TRIPOS>MOLECULE
guest-6_confgen4.mol2 : confsearch ligand conformer 665
          13          12           1
SMALL
USER_CHARGES
 
@<TRIPOS>ATOM
       1    C1      20.986292   19.993873   23.443408 C.2        1 MOL1         0.6021
       2    O1      22.011553   19.344852   23.513703 O.co2      1 MOL1        -0.6904
       3    O2      20.741878   20.926324   24.182051 O.co2      1 MOL1        -0.6904
       4    C2      19.935985   19.644849   22.387131 C.3        1 MOL1        -0.2102
       5    H1      19.772208   20.542297   21.778770 H          1 MOL1         0.0687
       6    H2      18.996683   19.439542   22.914291 H          1 MOL1         0.0687
       7    C3      20.291209   18.447654   21.467079 C.3        1 MOL1        -0.1974
       8    H3      21.234267   18.654165   20.941959 H          1 MOL1         0.0689
       9    H4      20.457864   17.550061   22.078886 H          1 MOL1         0.0689
      10    C4      19.177291   18.170636   20.437378 C.3        1 MOL1        -0.2987
      11    H5      19.012759   19.043599   19.792098 H          1 MOL1         0.0700
      12    H6      19.446295   17.321109   19.796131 H          1 MOL1         0.0700
      13    H7      18.230109   17.930683   20.938168 H          1 MOL1         0.0700
@<TRIPOS>BOND
    1     1     2    1
    2     1     3    2
    3     1     4    1
    4     4     5    1
    5     4     6    1
    6     4     7    1
    7     7     8    1
    8     7     9    1
    9     7    10    1
   10    10    11    1
   11    10    12    1
   12    10    13    1
@<TRIPOS>SUBSTRUCTURE
       1 MOL1            1 RESIDUE      1      MOL     
@<SCITEGIC>MOL_PROPERTY
VConf Rank
SciTegic.value.IntegerValue
665

@<SCITEGIC>MOL_PROPERTY
Conf_Id
SciTegic.value.IntegerValue
0

@<SCITEGIC>MOL_PROPERTY
Delta U+W
SciTegic.value.DoubleValue
0.000

@<SCITEGIC>MOL_PROPERTY
U+W
SciTegic.value.DoubleValue
-58.332

@<SCITEGIC>MOL_PROPERTY
Grad RMS
SciTegic.value.DoubleValue
0.000000

@<SCITEGIC>MOL_PROPERTY
U
SciTegic.value.DoubleValue
8.390

@<SCITEGIC>MOL_PROPERTY
W
SciTegic.value.DoubleValue
-66.722

@<SCITEGIC>MOL_PROPERTY
W(PB)
SciTegic.value.DoubleValue
-68.455

@<SCITEGIC>MOL_PROPERTY
W(SA)
SciTegic.value.DoubleValue
1.733

@<SCITEGIC>MOL_PROPERTY
Valence
SciTegic.value.DoubleValue
6.333

@<SCITEGIC>MOL_PROPERTY
Coulomb
SciTegic.value.DoubleValue
1.215

@<SCITEGIC>MOL_PROPERTY
VdW
SciTegic.value.DoubleValue
0.842

@<SCITEGIC>MOL_PROPERTY
VdW6
SciTegic.value.DoubleValue
-3.344

@<SCITEGIC>MOL_PROPERTY
VdW12
SciTegic.value.DoubleValue
4.186

@<SCITEGIC>MOL_PROPERTY
Bond
SciTegic.value.DoubleValue
0.091

@<SCITEGIC>MOL_PROPERTY
Angle
SciTegic.value.DoubleValue
2.713

@<SCITEGIC>MOL_PROPERTY
Pdih
SciTegic.value.DoubleValue
3.529

@<SCITEGIC>MOL_PROPERTY
Idih
SciTegic.value.DoubleValue
0.000

@<SCITEGIC>MOL_PROPERTY
Tether
SciTegic.value.DoubleValue
0.000

@<TRIPOS>MOLECULE
guest-6_confgen4.mol2 : confsearch ligand conformer 666
          13          12           1
SMALL
USER_CHARGES
 
@<TRIPOS>ATOM
       1    C1      21.488082   18.122735   23.004071 C.2        1 MOL1         0.6021
       2    O1      21.098135   17.406340   23.904117 O.co2      1 MOL1        -0.6904
       3    O2      22.574576   18.665767   23.001471 O.co2      1 MOL1        -0.6904
       4    C2      20.555895   18.368734   21.822542 C.3        1 MOL1        -0.2102
       5    H1      19.953570   17.465051   21.668980 H          1 MOL1         0.0687
       6    H2      21.171136   18.503630   20.924599 H          1 MOL1         0.0687
       7    C3      19.633829   19.595274   22.025621 C.3        1 MOL1        -0.1974
       8    H3      19.029853   19.453517   22.932781 H          1 MOL1         0.0689
       9    H4      20.247641   20.492295   22.188130 H          1 MOL1         0.0689
      10    C4      18.704814   19.816646   20.815160 C.3        1 MOL1        -0.2987
      11    H5      18.059408   20.689757   20.977608 H          1 MOL1         0.0700
      12    H6      19.286441   19.990559   19.900272 H          1 MOL1         0.0700
      13    H7      18.059294   18.943832   20.650669 H          1 MOL1         0.0700
@<TRIPOS>BOND
    1     1     2    1
    2     1     3    2
    3     1     4    1
    4     4     5    1
    5     4     6    1
    6     4     7    1
    7     7     8    1
    8     7     9    1
    9     7    10    1
   10    10    11    1
   11    10    12    1
   12    10    13    1
@<TRIPOS>SUBSTRUCTURE
       1 MOL1            1 RESIDUE      1      MOL     
@<SCITEGIC>MOL_PROPERTY
VConf Rank
SciTegic.value.IntegerValue
666

@<SCITEGIC>MOL_PROPERTY
Conf_Id
SciTegic.value.IntegerValue
1

@<SCITEGIC>MOL_PROPERTY
Delta U+W
SciTegic.value.DoubleValue
-1.339

@<SCITEGIC>MOL_PROPERTY
U+W
SciTegic.value.DoubleValue
-59.672

@<SCITEGIC>MOL_PROPERTY
Grad RMS
SciTegic.value.DoubleValue
0.000000

@<SCITEGIC>MOL_PROPERTY
U
SciTegic.value.DoubleValue
7.389

@<SCITEGIC>MOL_PROPERTY
W
SciTegic.value.DoubleValue
-67.061

@<SCITEGIC>MOL_PROPERTY
W(PB)
SciTegic.value.DoubleValue
-68.767

@<SCITEGIC>MOL_PROPERTY
W(SA)
SciTegic.value.DoubleValue
1.707

@<SCITEGIC>MOL_PROPERTY
Valence
SciTegic.value.DoubleValue
5.822

@<SCITEGIC>MOL_PROPERTY
Coulomb
SciTegic.value.DoubleValue
1.255

@<SCITEGIC>MOL_PROPERTY
VdW
SciTegic.value.DoubleValue
0.312

@<SCITEGIC>MOL_PROPERTY
VdW6
SciTegic.value.DoubleValue
-3.061

@<SCITEGIC>MOL_PROPERTY
VdW12
SciTegic.value.DoubleValue
3.372

@<SCITEGIC>MOL_PROPERTY
Bond
SciTegic.value.DoubleValue
0.059

@<SCITEGIC>MOL_PROPERTY
Angle
SciTegic.value.DoubleValue
2.241

@<SCITEGIC>MOL_PROPERTY
Pdih
SciTegic.value.DoubleValue
3.522

@<SCITEGIC>MOL_PROPERTY
Idih
SciTegic.value.DoubleValue
0.000

@<SCITEGIC>MOL_PROPERTY
Tether
SciTegic.value.DoubleValue
0.000

@<TRIPOS>MOLECULE
guest-6_confgen4.mol2 : confsearch ligand conformer 667
          13          12           1
SMALL
USER_CHARGES
 
@<TRIPOS>ATOM
       1    C1      19.631866   20.197777   20.791073 C.2        1 MOL1         0.6021
       2    O1      18.519409   20.067080   20.320481 O.co2      1 MOL1        -0.6904
       3    O2      20.111280   21.273968   21.087519 O.co2      1 MOL1        -0.6904
       4    C2      20.483333   18.945625   20.985617 C.3        1 MOL1        -0.2102
       5    H1      21.531211   19.247977   21.103189 H          1 MOL1         0.0687
       6    H2      20.424118   18.362653   20.058782 H          1 MOL1         0.0687
       7    C3      20.045907   18.060065   22.180515 C.3        1 MOL1        -0.1974
       8    H3      18.984082   17.797167   22.074058 H          1 MOL1         0.0689
       9    H4      20.608683   17.116943   22.154503 H          1 MOL1         0.0689
      10    C4      20.278368   18.748174   23.541543 C.3        1 MOL1        -0.2987
      11    H5      19.694448   19.674829   23.620134 H          1 MOL1         0.0700
      12    H6      19.977192   18.087957   24.365256 H          1 MOL1         0.0700
      13    H7      21.338288   18.999795   23.678106 H          1 MOL1         0.0700
@<TRIPOS>BOND
    1     1     2    1
    2     1     3    2
    3     1     4    1
    4     4     5    1
    5     4     6    1
    6     4     7    1
    7     7     8    1
    8     7     9    1
    9     7    10    1
   10    10    11    1
   11    10    12    1
   12    10    13    1
@<TRIPOS>SUBSTRUCTURE
       1 MOL1            1 RESIDUE      1      MOL     
@<SCITEGIC>MOL_PROPERTY
VConf Rank
SciTegic.value.IntegerValue
667

@<SCITEGIC>MOL_PROPERTY
Conf_Id
SciTegic.value.IntegerValue
4

@<SCITEGIC>MOL_PROPERTY
Delta U+W
SciTegic.value.DoubleValue
0.281

@<SCITEGIC>MOL_PROPERTY
U+W
SciTegic.value.DoubleValue
-58.051

@<SCITEGIC>MOL_PROPERTY
Grad RMS
SciTegic.value.DoubleValue
0.000000

@<SCITEGIC>MOL_PROPERTY
U
SciTegic.value.DoubleValue
9.781

@<SCITEGIC>MOL_PROPERTY
W
SciTegic.value.DoubleValue
-67.832

@<SCITEGIC>MOL_PROPERTY
W(PB)
SciTegic.value.DoubleValue
-69.535

@<SCITEGIC>MOL_PROPERTY
W(SA)
SciTegic.value.DoubleValue
1.703

@<SCITEGIC>MOL_PROPERTY
Valence
SciTegic.value.DoubleValue
6.123

@<SCITEGIC>MOL_PROPERTY
Coulomb
SciTegic.value.DoubleValue
3.449

@<SCITEGIC>MOL_PROPERTY
VdW
SciTegic.value.DoubleValue
0.209

@<SCITEGIC>MOL_PROPERTY
VdW6
SciTegic.value.DoubleValue
-3.762

@<SCITEGIC>MOL_PROPERTY
VdW12
SciTegic.value.DoubleValue
3.972

@<SCITEGIC>MOL_PROPERTY
Bond
SciTegic.value.DoubleValue
0.078

@<SCITEGIC>MOL_PROPERTY
Angle
SciTegic.value.DoubleValue
2.428

@<SCITEGIC>MOL_PROPERTY
Pdih
SciTegic.value.DoubleValue
3.616

@<SCITEGIC>MOL_PROPERTY
Idih
SciTegic.value.DoubleValue
0.002

@<SCITEGIC>MOL_PROPERTY
Tether
SciTegic.value.DoubleValue
0.000

@<TRIPOS>MOLECULE
guest-6_confgen4.mol2 : confsearch ligand conformer 668
          13          12           1
SMALL
USER_CHARGES
 
@<TRIPOS>ATOM
       1    C1      19.529941   17.481927   21.185566 C.2        1 MOL1         0.6021
       2    O1      18.812086   17.783393   20.252985 O.co2      1 MOL1        -0.6904
       3    O2      20.305650   16.547236   21.158613 O.co2      1 MOL1        -0.6904
       4    C2      19.428206   18.296665   22.472647 C.3        1 MOL1        -0.2102
       5    H1      19.346198   17.586151   23.303810 H          1 MOL1         0.0687
       6    H2      18.493229   18.869993   22.452671 H          1 MOL1         0.0687
       7    C3      20.630102   19.243873   22.720800 C.3        1 MOL1        -0.1974
       8    H3      20.548692   19.672019   23.729232 H          1 MOL1         0.0689
       9    H4      21.564652   18.665943   22.697663 H          1 MOL1         0.0689
      10    C4      20.700798   20.390249   21.690873 C.3        1 MOL1        -0.2987
      11    H5      19.784538   20.994707   21.712971 H          1 MOL1         0.0700
      12    H6      21.549605   21.052174   21.906460 H          1 MOL1         0.0700
      13    H7      20.827313   19.998844   20.672726 H          1 MOL1         0.0700
@<TRIPOS>BOND
    1     1     2    1
    2     1     3    2
    3     1     4    1
    4     4     5    1
    5     4     6    1
    6     4     7    1
    7     7     8    1
    8     7     9    1
    9     7    10    1
   10    10    11    1
   11    10    12    1
   12    10    13    1
@<TRIPOS>SUBSTRUCTURE
       1 MOL1            1 RESIDUE      1      MOL     
@<SCITEGIC>MOL_PROPERTY
VConf Rank
SciTegic.value.IntegerValue
668

@<SCITEGIC>MOL_PROPERTY
Conf_Id
SciTegic.value.IntegerValue
36

@<SCITEGIC>MOL_PROPERTY
Delta U+W
SciTegic.value.DoubleValue
0.272

@<SCITEGIC>MOL_PROPERTY
U+W
SciTegic.value.DoubleValue
-58.060

@<SCITEGIC>MOL_PROPERTY
Grad RMS
SciTegic.value.DoubleValue
0.000000

@<SCITEGIC>MOL_PROPERTY
U
SciTegic.value.DoubleValue
9.781

@<SCITEGIC>MOL_PROPERTY
W
SciTegic.value.DoubleValue
-67.841

@<SCITEGIC>MOL_PROPERTY
W(PB)
SciTegic.value.DoubleValue
-69.537

@<SCITEGIC>MOL_PROPERTY
W(SA)
SciTegic.value.DoubleValue
1.696

@<SCITEGIC>MOL_PROPERTY
Valence
SciTegic.value.DoubleValue
6.123

@<SCITEGIC>MOL_PROPERTY
Coulomb
SciTegic.value.DoubleValue
3.449

@<SCITEGIC>MOL_PROPERTY
VdW
SciTegic.value.DoubleValue
0.209

@<SCITEGIC>MOL_PROPERTY
VdW6
SciTegic.value.DoubleValue
-3.762

@<SCITEGIC>MOL_PROPERTY
VdW12
SciTegic.value.DoubleValue
3.972

@<SCITEGIC>MOL_PROPERTY
Bond
SciTegic.value.DoubleValue
0.078

@<SCITEGIC>MOL_PROPERTY
Angle
SciTegic.value.DoubleValue
2.428

@<SCITEGIC>MOL_PROPERTY
Pdih
SciTegic.value.DoubleValue
3.616

@<SCITEGIC>MOL_PROPERTY
Idih
SciTegic.value.DoubleValue
0.002

@<SCITEGIC>MOL_PROPERTY
Tether
SciTegic.value.DoubleValue
0.000

@<TRIPOS>MOLECULE
guest-6_confgen4.mol2 : confsearch ligand conformer 669
          13          12           1
SMALL
USER_CHARGES
 
@<TRIPOS>ATOM
       1    C1      19.515694   17.479629   20.414851 C.2        1 MOL1         0.6021
       2    O1      19.999844   17.951262   19.404657 O.co2      1 MOL1        -0.6904
       3    O2      18.933345   16.414126   20.434029 O.co2      1 MOL1        -0.6904
       4    C2      19.628035   18.238811   21.738370 C.3        1 MOL1        -0.2102
       5    H1      20.129077   17.576645   22.454492 H          1 MOL1         0.0687
       6    H2      18.609478   18.400963   22.110642 H          1 MOL1         0.0687
       7    C3      20.379539   19.593759   21.665466 C.3        1 MOL1        -0.1974
       8    H3      21.399027   19.429425   21.289441 H          1 MOL1         0.0689
       9    H4      19.877600   20.254738   20.945106 H          1 MOL1         0.0689
      10    C4      20.442701   20.284755   23.042554 C.3        1 MOL1        -0.2987
      11    H5      20.968106   19.656391   23.773738 H          1 MOL1         0.0700
      12    H6      20.977494   21.240862   22.971051 H          1 MOL1         0.0700
      13    H7      19.434451   20.488278   23.426654 H          1 MOL1         0.0700
@<TRIPOS>BOND
    1     1     2    1
    2     1     3    2
    3     1     4    1
    4     4     5    1
    5     4     6    1
    6     4     7    1
    7     7     8    1
    8     7     9    1
    9     7    10    1
   10    10    11    1
   11    10    12    1
   12    10    13    1
@<TRIPOS>SUBSTRUCTURE
       1 MOL1            1 RESIDUE      1      MOL     
@<SCITEGIC>MOL_PROPERTY
VConf Rank
SciTegic.value.IntegerValue
669

@<SCITEGIC>MOL_PROPERTY
Conf_Id
SciTegic.value.IntegerValue
0

@<SCITEGIC>MOL_PROPERTY
Delta U+W
SciTegic.value.DoubleValue
0.000

@<SCITEGIC>MOL_PROPERTY
U+W
SciTegic.value.DoubleValue
-58.332

@<SCITEGIC>MOL_PROPERTY
Grad RMS
SciTegic.value.DoubleValue
0.000000

@<SCITEGIC>MOL_PROPERTY
U
SciTegic.value.DoubleValue
8.390

@<SCITEGIC>MOL_PROPERTY
W
SciTegic.value.DoubleValue
-66.722

@<SCITEGIC>MOL_PROPERTY
W(PB)
SciTegic.value.DoubleValue
-68.455

@<SCITEGIC>MOL_PROPERTY
W(SA)
SciTegic.value.DoubleValue
1.733

@<SCITEGIC>MOL_PROPERTY
Valence
SciTegic.value.DoubleValue
6.333

@<SCITEGIC>MOL_PROPERTY
Coulomb
SciTegic.value.DoubleValue
1.215

@<SCITEGIC>MOL_PROPERTY
VdW
SciTegic.value.DoubleValue
0.842

@<SCITEGIC>MOL_PROPERTY
VdW6
SciTegic.value.DoubleValue
-3.344

@<SCITEGIC>MOL_PROPERTY
VdW12
SciTegic.value.DoubleValue
4.186

@<SCITEGIC>MOL_PROPERTY
Bond
SciTegic.value.DoubleValue
0.091

@<SCITEGIC>MOL_PROPERTY
Angle
SciTegic.value.DoubleValue
2.713

@<SCITEGIC>MOL_PROPERTY
Pdih
SciTegic.value.DoubleValue
3.529

@<SCITEGIC>MOL_PROPERTY
Idih
SciTegic.value.DoubleValue
0.000

@<SCITEGIC>MOL_PROPERTY
Tether
SciTegic.value.DoubleValue
0.000

@<TRIPOS>MOLECULE
guest-6_confgen4.mol2 : confsearch ligand conformer 670
          13          12           1
SMALL
USER_CHARGES
 
@<TRIPOS>ATOM
       1    C1      19.620465   17.060132   21.194820 C.2        1 MOL1         0.6021
       2    O1      18.456088   16.766404   21.012308 O.co2      1 MOL1        -0.6904
       3    O2      20.485422   16.246823   21.451216 O.co2      1 MOL1        -0.6904
       4    C2      20.014099   18.531323   21.116420 C.3        1 MOL1        -0.2102
       5    H1      19.368277   19.018523   20.375765 H          1 MOL1         0.0687
       6    H2      21.041784   18.590042   20.737694 H          1 MOL1         0.0687
       7    C3      19.905922   19.259079   22.478227 C.3        1 MOL1        -0.1974
       8    H3      18.875197   19.185241   22.852360 H          1 MOL1         0.0689
       9    H4      20.549108   18.756764   23.214308 H          1 MOL1         0.0689
      10    C4      20.310091   20.742724   22.365367 C.3        1 MOL1        -0.2987
      11    H5      20.227024   21.241358   23.339905 H          1 MOL1         0.0700
      12    H6      21.347986   20.841982   22.021161 H          1 MOL1         0.0700
      13    H7      19.661211   21.273741   21.656472 H          1 MOL1         0.0700
@<TRIPOS>BOND
    1     1     2    1
    2     1     3    2
    3     1     4    1
    4     4     5    1
    5     4     6    1
    6     4     7    1
    7     7     8    1
    8     7     9    1
    9     7    10    1
   10    10    11    1
   11    10    12    1
   12    10    13    1
@<TRIPOS>SUBSTRUCTURE
       1 MOL1            1 RESIDUE      1      MOL     
@<SCITEGIC>MOL_PROPERTY
VConf Rank
SciTegic.value.IntegerValue
670

@<SCITEGIC>MOL_PROPERTY
Conf_Id
SciTegic.value.IntegerValue
1

@<SCITEGIC>MOL_PROPERTY
Delta U+W
SciTegic.value.DoubleValue
-1.339

@<SCITEGIC>MOL_PROPERTY
U+W
SciTegic.value.DoubleValue
-59.672

@<SCITEGIC>MOL_PROPERTY
Grad RMS
SciTegic.value.DoubleValue
0.000000

@<SCITEGIC>MOL_PROPERTY
U
SciTegic.value.DoubleValue
7.389

@<SCITEGIC>MOL_PROPERTY
W
SciTegic.value.DoubleValue
-67.061

@<SCITEGIC>MOL_PROPERTY
W(PB)
SciTegic.value.DoubleValue
-68.767

@<SCITEGIC>MOL_PROPERTY
W(SA)
SciTegic.value.DoubleValue
1.707

@<SCITEGIC>MOL_PROPERTY
Valence
SciTegic.value.DoubleValue
5.822

@<SCITEGIC>MOL_PROPERTY
Coulomb
SciTegic.value.DoubleValue
1.255

@<SCITEGIC>MOL_PROPERTY
VdW
SciTegic.value.DoubleValue
0.312

@<SCITEGIC>MOL_PROPERTY
VdW6
SciTegic.value.DoubleValue
-3.061

@<SCITEGIC>MOL_PROPERTY
VdW12
SciTegic.value.DoubleValue
3.372

@<SCITEGIC>MOL_PROPERTY
Bond
SciTegic.value.DoubleValue
0.059

@<SCITEGIC>MOL_PROPERTY
Angle
SciTegic.value.DoubleValue
2.241

@<SCITEGIC>MOL_PROPERTY
Pdih
SciTegic.value.DoubleValue
3.522

@<SCITEGIC>MOL_PROPERTY
Idih
SciTegic.value.DoubleValue
0.000

@<SCITEGIC>MOL_PROPERTY
Tether
SciTegic.value.DoubleValue
0.000

@<TRIPOS>MOLECULE
guest-6_confgen4.mol2 : confsearch ligand conformer 671
          13          12           1
SMALL
USER_CHARGES
 
@<TRIPOS>ATOM
       1    C1      20.611450   20.543290   21.295665 C.2        1 MOL1         0.6021
       2    O1      19.947261   21.503865   21.630695 O.co2      1 MOL1        -0.6904
       3    O2      21.818988   20.576386   21.166584 O.co2      1 MOL1        -0.6904
       4    C2      19.884071   19.237097   20.986621 C.3        1 MOL1        -0.2102
       5    H1      20.554205   18.590286   20.407101 H          1 MOL1         0.0687
       6    H2      19.037055   19.480901   20.334310 H          1 MOL1         0.0687
       7    C3      19.369189   18.485326   22.240844 C.3        1 MOL1        -0.1974
       8    H3      18.732392   19.155250   22.835500 H          1 MOL1         0.0689
       9    H4      18.734665   17.646874   21.922646 H          1 MOL1         0.0689
      10    C4      20.517411   17.943913   23.117422 C.3        1 MOL1        -0.2987
      11    H5      21.148231   18.761557   23.490721 H          1 MOL1         0.0700
      12    H6      20.119227   17.401215   23.984615 H          1 MOL1         0.0700
      13    H7      21.154040   17.254047   22.548053 H          1 MOL1         0.0700
@<TRIPOS>BOND
    1     1     2    1
    2     1     3    2
    3     1     4    1
    4     4     5    1
    5     4     6    1
    6     4     7    1
    7     7     8    1
    8     7     9    1
    9     7    10    1
   10    10    11    1
   11    10    12    1
   12    10    13    1
@<TRIPOS>SUBSTRUCTURE
       1 MOL1            1 RESIDUE      1      MOL     
@<SCITEGIC>MOL_PROPERTY
VConf Rank
SciTegic.value.IntegerValue
671

@<SCITEGIC>MOL_PROPERTY
Conf_Id
SciTegic.value.IntegerValue
4

@<SCITEGIC>MOL_PROPERTY
Delta U+W
SciTegic.value.DoubleValue
0.281

@<SCITEGIC>MOL_PROPERTY
U+W
SciTegic.value.DoubleValue
-58.051

@<SCITEGIC>MOL_PROPERTY
Grad RMS
SciTegic.value.DoubleValue
0.000000

@<SCITEGIC>MOL_PROPERTY
U
SciTegic.value.DoubleValue
9.781

@<SCITEGIC>MOL_PROPERTY
W
SciTegic.value.DoubleValue
-67.832

@<SCITEGIC>MOL_PROPERTY
W(PB)
SciTegic.value.DoubleValue
-69.535

@<SCITEGIC>MOL_PROPERTY
W(SA)
SciTegic.value.DoubleValue
1.703

@<SCITEGIC>MOL_PROPERTY
Valence
SciTegic.value.DoubleValue
6.123

@<SCITEGIC>MOL_PROPERTY
Coulomb
SciTegic.value.DoubleValue
3.449

@<SCITEGIC>MOL_PROPERTY
VdW
SciTegic.value.DoubleValue
0.209

@<SCITEGIC>MOL_PROPERTY
VdW6
SciTegic.value.DoubleValue
-3.762

@<SCITEGIC>MOL_PROPERTY
VdW12
SciTegic.value.DoubleValue
3.972

@<SCITEGIC>MOL_PROPERTY
Bond
SciTegic.value.DoubleValue
0.078

@<SCITEGIC>MOL_PROPERTY
Angle
SciTegic.value.DoubleValue
2.428

@<SCITEGIC>MOL_PROPERTY
Pdih
SciTegic.value.DoubleValue
3.616

@<SCITEGIC>MOL_PROPERTY
Idih
SciTegic.value.DoubleValue
0.002

@<SCITEGIC>MOL_PROPERTY
Tether
SciTegic.value.DoubleValue
0.000

@<TRIPOS>MOLECULE
guest-6_confgen4.mol2 : confsearch ligand conformer 672
          13          12           1
SMALL
USER_CHARGES
 
@<TRIPOS>ATOM
       1    C1      21.207354   20.271910   22.563768 C.2        1 MOL1         0.6021
       2    O1      20.577579   21.302999   22.690826 O.co2      1 MOL1        -0.6904
       3    O2      22.096234   19.932752   23.319389 O.co2      1 MOL1        -0.6904
       4    C2      20.891527   19.370709   21.372628 C.3        1 MOL1        -0.2102
       5    H1      21.845069   19.109139   20.898576 H          1 MOL1         0.0687
       6    H2      20.319873   19.948921   20.636306 H          1 MOL1         0.0687
       7    C3      20.127109   18.073884   21.743095 C.3        1 MOL1        -0.1974
       8    H3      20.076438   17.421439   20.860701 H          1 MOL1         0.0689
       9    H4      20.687982   17.523116   22.511209 H          1 MOL1         0.0689
      10    C4      18.695585   18.355212   22.244614 C.3        1 MOL1        -0.2987
      11    H5      18.110052   18.886129   21.482597 H          1 MOL1         0.0700
      12    H6      18.176411   17.416810   22.479042 H          1 MOL1         0.0700
      13    H7      18.709797   18.970155   23.154267 H          1 MOL1         0.0700
@<TRIPOS>BOND
    1     1     2    1
    2     1     3    2
    3     1     4    1
    4     4     5    1
    5     4     6    1
    6     4     7    1
    7     7     8    1
    8     7     9    1
    9     7    10    1
   10    10    11    1
   11    10    12    1
   12    10    13    1
@<TRIPOS>SUBSTRUCTURE
       1 MOL1            1 RESIDUE      1      MOL     
@<SCITEGIC>MOL_PROPERTY
VConf Rank
SciTegic.value.IntegerValue
672

@<SCITEGIC>MOL_PROPERTY
Conf_Id
SciTegic.value.IntegerValue
36

@<SCITEGIC>MOL_PROPERTY
Delta U+W
SciTegic.value.DoubleValue
0.272

@<SCITEGIC>MOL_PROPERTY
U+W
SciTegic.value.DoubleValue
-58.060

@<SCITEGIC>MOL_PROPERTY
Grad RMS
SciTegic.value.DoubleValue
0.000000

@<SCITEGIC>MOL_PROPERTY
U
SciTegic.value.DoubleValue
9.781

@<SCITEGIC>MOL_PROPERTY
W
SciTegic.value.DoubleValue
-67.841

@<SCITEGIC>MOL_PROPERTY
W(PB)
SciTegic.value.DoubleValue
-69.537

@<SCITEGIC>MOL_PROPERTY
W(SA)
SciTegic.value.DoubleValue
1.696

@<SCITEGIC>MOL_PROPERTY
Valence
SciTegic.value.DoubleValue
6.123

@<SCITEGIC>MOL_PROPERTY
Coulomb
SciTegic.value.DoubleValue
3.449

@<SCITEGIC>MOL_PROPERTY
VdW
SciTegic.value.DoubleValue
0.209

@<SCITEGIC>MOL_PROPERTY
VdW6
SciTegic.value.DoubleValue
-3.762

@<SCITEGIC>MOL_PROPERTY
VdW12
SciTegic.value.DoubleValue
3.972

@<SCITEGIC>MOL_PROPERTY
Bond
SciTegic.value.DoubleValue
0.078

@<SCITEGIC>MOL_PROPERTY
Angle
SciTegic.value.DoubleValue
2.428

@<SCITEGIC>MOL_PROPERTY
Pdih
SciTegic.value.DoubleValue
3.616

@<SCITEGIC>MOL_PROPERTY
Idih
SciTegic.value.DoubleValue
0.002

@<SCITEGIC>MOL_PROPERTY
Tether
SciTegic.value.DoubleValue
0.000

@<TRIPOS>MOLECULE
guest-6_confgen4.mol2 : confsearch ligand conformer 673
          13          12           1
SMALL
USER_CHARGES
 
@<TRIPOS>ATOM
       1    C1      20.150032   20.382809   23.439887 C.2        1 MOL1         0.6021
       2    O1      19.731908   21.387208   22.897960 O.co2      1 MOL1        -0.6904
       3    O2      20.502368   20.356050   24.601756 O.co2      1 MOL1        -0.6904
       4    C2      20.249341   19.076919   22.649020 C.3        1 MOL1        -0.2102
       5    H1      19.652996   18.325758   23.180496 H          1 MOL1         0.0687
       6    H2      21.293816   18.746000   22.692623 H          1 MOL1         0.0687
       7    C3      19.788600   19.159020   21.170191 C.3        1 MOL1        -0.1974
       8    H3      18.742615   19.493597   21.128602 H          1 MOL1         0.0689
       9    H4      20.385407   19.914416   20.640140 H          1 MOL1         0.0689
      10    C4      19.924237   17.799558   20.455138 C.3        1 MOL1        -0.2987
      11    H5      19.311593   17.033378   20.948250 H          1 MOL1         0.0700
      12    H6      19.593901   17.877369   19.411069 H          1 MOL1         0.0700
      13    H7      20.967577   17.457560   20.455920 H          1 MOL1         0.0700
@<TRIPOS>BOND
    1     1     2    1
    2     1     3    2
    3     1     4    1
    4     4     5    1
    5     4     6    1
    6     4     7    1
    7     7     8    1
    8     7     9    1
    9     7    10    1
   10    10    11    1
   11    10    12    1
   12    10    13    1
@<TRIPOS>SUBSTRUCTURE
       1 MOL1            1 RESIDUE      1      MOL     
@<SCITEGIC>MOL_PROPERTY
VConf Rank
SciTegic.value.IntegerValue
673

@<SCITEGIC>MOL_PROPERTY
Conf_Id
SciTegic.value.IntegerValue
0

@<SCITEGIC>MOL_PROPERTY
Delta U+W
SciTegic.value.DoubleValue
0.000

@<SCITEGIC>MOL_PROPERTY
U+W
SciTegic.value.DoubleValue
-58.332

@<SCITEGIC>MOL_PROPERTY
Grad RMS
SciTegic.value.DoubleValue
0.000000

@<SCITEGIC>MOL_PROPERTY
U
SciTegic.value.DoubleValue
8.390

@<SCITEGIC>MOL_PROPERTY
W
SciTegic.value.DoubleValue
-66.722

@<SCITEGIC>MOL_PROPERTY
W(PB)
SciTegic.value.DoubleValue
-68.455

@<SCITEGIC>MOL_PROPERTY
W(SA)
SciTegic.value.DoubleValue
1.733

@<SCITEGIC>MOL_PROPERTY
Valence
SciTegic.value.DoubleValue
6.333

@<SCITEGIC>MOL_PROPERTY
Coulomb
SciTegic.value.DoubleValue
1.215

@<SCITEGIC>MOL_PROPERTY
VdW
SciTegic.value.DoubleValue
0.842

@<SCITEGIC>MOL_PROPERTY
VdW6
SciTegic.value.DoubleValue
-3.344

@<SCITEGIC>MOL_PROPERTY
VdW12
SciTegic.value.DoubleValue
4.186

@<SCITEGIC>MOL_PROPERTY
Bond
SciTegic.value.DoubleValue
0.091

@<SCITEGIC>MOL_PROPERTY
Angle
SciTegic.value.DoubleValue
2.713

@<SCITEGIC>MOL_PROPERTY
Pdih
SciTegic.value.DoubleValue
3.529

@<SCITEGIC>MOL_PROPERTY
Idih
SciTegic.value.DoubleValue
0.000

@<SCITEGIC>MOL_PROPERTY
Tether
SciTegic.value.DoubleValue
0.000

@<TRIPOS>MOLECULE
guest-6_confgen4.mol2 : confsearch ligand conformer 674
          13          12           1
SMALL
USER_CHARGES
 
@<TRIPOS>ATOM
       1    C1      22.048981   18.643254   21.584088 C.2        1 MOL1         0.6021
       2    O1      22.414798   17.520858   21.870037 O.co2      1 MOL1        -0.6904
       3    O2      22.783412   19.610681   21.591532 O.co2      1 MOL1        -0.6904
       4    C2      20.584437   18.852266   21.214055 C.3        1 MOL1        -0.2102
       5    H1      20.226100   17.944862   20.712825 H          1 MOL1         0.0687
       6    H2      20.530088   19.668245   20.483136 H          1 MOL1         0.0687
       7    C3      19.691987   19.172744   22.437443 C.3        1 MOL1        -0.1974
       8    H3      19.762042   18.353630   23.166803 H          1 MOL1         0.0689
       9    H4      20.066006   20.077394   22.936983 H          1 MOL1         0.0689
      10    C4      18.219105   19.378187   22.030378 C.3        1 MOL1        -0.2987
      11    H5      17.602653   19.604217   22.910241 H          1 MOL1         0.0700
      12    H6      18.119680   20.212398   21.323439 H          1 MOL1         0.0700
      13    H7      17.813385   18.475401   21.555063 H          1 MOL1         0.0700
@<TRIPOS>BOND
    1     1     2    1
    2     1     3    2
    3     1     4    1
    4     4     5    1
    5     4     6    1
    6     4     7    1
    7     7     8    1
    8     7     9    1
    9     7    10    1
   10    10    11    1
   11    10    12    1
   12    10    13    1
@<TRIPOS>SUBSTRUCTURE
       1 MOL1            1 RESIDUE      1      MOL     
@<SCITEGIC>MOL_PROPERTY
VConf Rank
SciTegic.value.IntegerValue
674

@<SCITEGIC>MOL_PROPERTY
Conf_Id
SciTegic.value.IntegerValue
1

@<SCITEGIC>MOL_PROPERTY
Delta U+W
SciTegic.value.DoubleValue
-1.339

@<SCITEGIC>MOL_PROPERTY
U+W
SciTegic.value.DoubleValue
-59.672

@<SCITEGIC>MOL_PROPERTY
Grad RMS
SciTegic.value.DoubleValue
0.000000

@<SCITEGIC>MOL_PROPERTY
U
SciTegic.value.DoubleValue
7.389

@<SCITEGIC>MOL_PROPERTY
W
SciTegic.value.DoubleValue
-67.061

@<SCITEGIC>MOL_PROPERTY
W(PB)
SciTegic.value.DoubleValue
-68.767

@<SCITEGIC>MOL_PROPERTY
W(SA)
SciTegic.value.DoubleValue
1.707

@<SCITEGIC>MOL_PROPERTY
Valence
SciTegic.value.DoubleValue
5.822

@<SCITEGIC>MOL_PROPERTY
Coulomb
SciTegic.value.DoubleValue
1.255

@<SCITEGIC>MOL_PROPERTY
VdW
SciTegic.value.DoubleValue
0.312

@<SCITEGIC>MOL_PROPERTY
VdW6
SciTegic.value.DoubleValue
-3.061

@<SCITEGIC>MOL_PROPERTY
VdW12
SciTegic.value.DoubleValue
3.372

@<SCITEGIC>MOL_PROPERTY
Bond
SciTegic.value.DoubleValue
0.059

@<SCITEGIC>MOL_PROPERTY
Angle
SciTegic.value.DoubleValue
2.241

@<SCITEGIC>MOL_PROPERTY
Pdih
SciTegic.value.DoubleValue
3.522

@<SCITEGIC>MOL_PROPERTY
Idih
SciTegic.value.DoubleValue
0.000

@<SCITEGIC>MOL_PROPERTY
Tether
SciTegic.value.DoubleValue
0.000

@<TRIPOS>MOLECULE
guest-6_confgen4.mol2 : confsearch ligand conformer 675
          13          12           1
SMALL
USER_CHARGES
 
@<TRIPOS>ATOM
       1    C1      19.483227   20.542993   21.433965 C.2        1 MOL1         0.6021
       2    O1      19.428171   20.696881   20.230061 O.co2      1 MOL1        -0.6904
       3    O2      18.621023   20.928050   22.198321 O.co2      1 MOL1        -0.6904
       4    C2      20.718616   19.861602   22.017272 C.3        1 MOL1        -0.2102
       5    H1      20.768539   20.083388   23.090401 H          1 MOL1         0.0687
       6    H2      21.597547   20.327924   21.556391 H          1 MOL1         0.0687
       7    C3      20.767023   18.329452   21.785948 C.3        1 MOL1        -0.1974
       8    H3      20.674764   18.116659   20.711643 H          1 MOL1         0.0689
       9    H4      21.748605   17.948912   22.099891 H          1 MOL1         0.0689
      10    C4      19.664325   17.580070   22.562101 C.3        1 MOL1        -0.2987
      11    H5      18.665619   17.904589   22.241006 H          1 MOL1         0.0700
      12    H6      19.738981   16.498072   22.392388 H          1 MOL1         0.0700
      13    H7      19.751745   17.761416   23.641389 H          1 MOL1         0.0700
@<TRIPOS>BOND
    1     1     2    1
    2     1     3    2
    3     1     4    1
    4     4     5    1
    5     4     6    1
    6     4     7    1
    7     7     8    1
    8     7     9    1
    9     7    10    1
   10    10    11    1
   11    10    12    1
   12    10    13    1
@<TRIPOS>SUBSTRUCTURE
       1 MOL1            1 RESIDUE      1      MOL     
@<SCITEGIC>MOL_PROPERTY
VConf Rank
SciTegic.value.IntegerValue
675

@<SCITEGIC>MOL_PROPERTY
Conf_Id
SciTegic.value.IntegerValue
4

@<SCITEGIC>MOL_PROPERTY
Delta U+W
SciTegic.value.DoubleValue
0.281

@<SCITEGIC>MOL_PROPERTY
U+W
SciTegic.value.DoubleValue
-58.051

@<SCITEGIC>MOL_PROPERTY
Grad RMS
SciTegic.value.DoubleValue
0.000000

@<SCITEGIC>MOL_PROPERTY
U
SciTegic.value.DoubleValue
9.781

@<SCITEGIC>MOL_PROPERTY
W
SciTegic.value.DoubleValue
-67.832

@<SCITEGIC>MOL_PROPERTY
W(PB)
SciTegic.value.DoubleValue
-69.535

@<SCITEGIC>MOL_PROPERTY
W(SA)
SciTegic.value.DoubleValue
1.703

@<SCITEGIC>MOL_PROPERTY
Valence
SciTegic.value.DoubleValue
6.123

@<SCITEGIC>MOL_PROPERTY
Coulomb
SciTegic.value.DoubleValue
3.449

@<SCITEGIC>MOL_PROPERTY
VdW
SciTegic.value.DoubleValue
0.209

@<SCITEGIC>MOL_PROPERTY
VdW6
SciTegic.value.DoubleValue
-3.762

@<SCITEGIC>MOL_PROPERTY
VdW12
SciTegic.value.DoubleValue
3.972

@<SCITEGIC>MOL_PROPERTY
Bond
SciTegic.value.DoubleValue
0.078

@<SCITEGIC>MOL_PROPERTY
Angle
SciTegic.value.DoubleValue
2.428

@<SCITEGIC>MOL_PROPERTY
Pdih
SciTegic.value.DoubleValue
3.616

@<SCITEGIC>MOL_PROPERTY
Idih
SciTegic.value.DoubleValue
0.002

@<SCITEGIC>MOL_PROPERTY
Tether
SciTegic.value.DoubleValue
0.000

@<TRIPOS>MOLECULE
guest-6_confgen4.mol2 : confsearch ligand conformer 676
          13          12           1
SMALL
USER_CHARGES
 
@<TRIPOS>ATOM
       1    C1      19.876008   17.252196   21.539585 C.2        1 MOL1         0.6021
       2    O1      18.793037   17.121375   21.004829 O.co2      1 MOL1        -0.6904
       3    O2      20.871358   16.647889   21.192904 O.co2      1 MOL1        -0.6904
       4    C2      19.986658   18.198065   22.732822 C.3        1 MOL1        -0.2102
       5    H1      20.518277   17.661174   23.527501 H          1 MOL1         0.0687
       6    H2      18.978217   18.406157   23.111018 H          1 MOL1         0.0687
       7    C3      20.725498   19.525501   22.424007 C.3        1 MOL1        -0.1974
       8    H3      20.891305   20.071872   23.362548 H          1 MOL1         0.0689
       9    H4      21.718336   19.305378   22.007186 H          1 MOL1         0.0689
      10    C4      19.939027   20.425900   21.448983 C.3        1 MOL1        -0.2987
      11    H5      18.950891   20.676559   21.856596 H          1 MOL1         0.0700
      12    H6      20.479414   21.364031   21.267358 H          1 MOL1         0.0700
      13    H7      19.792983   19.927078   20.481681 H          1 MOL1         0.0700
@<TRIPOS>BOND
    1     1     2    1
    2     1     3    2
    3     1     4    1
    4     4     5    1
    5     4     6    1
    6     4     7    1
    7     7     8    1
    8     7     9    1
    9     7    10    1
   10    10    11    1
   11    10    12    1
   12    10    13    1
@<TRIPOS>SUBSTRUCTURE
       1 MOL1            1 RESIDUE      1      MOL     
@<SCITEGIC>MOL_PROPERTY
VConf Rank
SciTegic.value.IntegerValue
676

@<SCITEGIC>MOL_PROPERTY
Conf_Id
SciTegic.value.IntegerValue
36

@<SCITEGIC>MOL_PROPERTY
Delta U+W
SciTegic.value.DoubleValue
0.272

@<SCITEGIC>MOL_PROPERTY
U+W
SciTegic.value.DoubleValue
-58.060

@<SCITEGIC>MOL_PROPERTY
Grad RMS
SciTegic.value.DoubleValue
0.000000

@<SCITEGIC>MOL_PROPERTY
U
SciTegic.value.DoubleValue
9.781

@<SCITEGIC>MOL_PROPERTY
W
SciTegic.value.DoubleValue
-67.841

@<SCITEGIC>MOL_PROPERTY
W(PB)
SciTegic.value.DoubleValue
-69.537

@<SCITEGIC>MOL_PROPERTY
W(SA)
SciTegic.value.DoubleValue
1.696

@<SCITEGIC>MOL_PROPERTY
Valence
SciTegic.value.DoubleValue
6.123

@<SCITEGIC>MOL_PROPERTY
Coulomb
SciTegic.value.DoubleValue
3.449

@<SCITEGIC>MOL_PROPERTY
VdW
SciTegic.value.DoubleValue
0.209

@<SCITEGIC>MOL_PROPERTY
VdW6
SciTegic.value.DoubleValue
-3.762

@<SCITEGIC>MOL_PROPERTY
VdW12
SciTegic.value.DoubleValue
3.972

@<SCITEGIC>MOL_PROPERTY
Bond
SciTegic.value.DoubleValue
0.078

@<SCITEGIC>MOL_PROPERTY
Angle
SciTegic.value.DoubleValue
2.428

@<SCITEGIC>MOL_PROPERTY
Pdih
SciTegic.value.DoubleValue
3.616

@<SCITEGIC>MOL_PROPERTY
Idih
SciTegic.value.DoubleValue
0.002

@<SCITEGIC>MOL_PROPERTY
Tether
SciTegic.value.DoubleValue
0.000

@<TRIPOS>MOLECULE
guest-6_confgen4.mol2 : confsearch ligand conformer 677
          13          12           1
SMALL
USER_CHARGES
 
@<TRIPOS>ATOM
       1    C1      22.024306   19.476740   21.260139 C.2        1 MOL1         0.6021
       2    O1      22.074886   20.639168   21.611607 O.co2      1 MOL1        -0.6904
       3    O2      22.960403   18.900597   20.743827 O.co2      1 MOL1        -0.6904
       4    C2      20.736686   18.675896   21.463527 C.3        1 MOL1        -0.2102
       5    H1      20.988818   17.798819   22.071394 H          1 MOL1         0.0687
       6    H2      20.422851   18.304788   20.480611 H          1 MOL1         0.0687
       7    C3      19.568817   19.452497   22.126045 C.3        1 MOL1        -0.1974
       8    H3      19.886326   19.826007   23.109626 H          1 MOL1         0.0689
       9    H4      19.319708   20.332650   21.516923 H          1 MOL1         0.0689
      10    C4      18.316808   18.567360   22.289886 C.3        1 MOL1        -0.2987
      11    H5      18.531944   17.695461   22.921576 H          1 MOL1         0.0700
      12    H6      17.502021   19.133528   22.759815 H          1 MOL1         0.0700
      13    H7      17.960816   18.206133   21.316076 H          1 MOL1         0.0700
@<TRIPOS>BOND
    1     1     2    1
    2     1     3    2
    3     1     4    1
    4     4     5    1
    5     4     6    1
    6     4     7    1
    7     7     8    1
    8     7     9    1
    9     7    10    1
   10    10    11    1
   11    10    12    1
   12    10    13    1
@<TRIPOS>SUBSTRUCTURE
       1 MOL1            1 RESIDUE      1      MOL     
@<SCITEGIC>MOL_PROPERTY
VConf Rank
SciTegic.value.IntegerValue
677

@<SCITEGIC>MOL_PROPERTY
Conf_Id
SciTegic.value.IntegerValue
0

@<SCITEGIC>MOL_PROPERTY
Delta U+W
SciTegic.value.DoubleValue
0.000

@<SCITEGIC>MOL_PROPERTY
U+W
SciTegic.value.DoubleValue
-58.332

@<SCITEGIC>MOL_PROPERTY
Grad RMS
SciTegic.value.DoubleValue
0.000000

@<SCITEGIC>MOL_PROPERTY
U
SciTegic.value.DoubleValue
8.390

@<SCITEGIC>MOL_PROPERTY
W
SciTegic.value.DoubleValue
-66.722

@<SCITEGIC>MOL_PROPERTY
W(PB)
SciTegic.value.DoubleValue
-68.455

@<SCITEGIC>MOL_PROPERTY
W(SA)
SciTegic.value.DoubleValue
1.733

@<SCITEGIC>MOL_PROPERTY
Valence
SciTegic.value.DoubleValue
6.333

@<SCITEGIC>MOL_PROPERTY
Coulomb
SciTegic.value.DoubleValue
1.215

@<SCITEGIC>MOL_PROPERTY
VdW
SciTegic.value.DoubleValue
0.842

@<SCITEGIC>MOL_PROPERTY
VdW6
SciTegic.value.DoubleValue
-3.344

@<SCITEGIC>MOL_PROPERTY
VdW12
SciTegic.value.DoubleValue
4.186

@<SCITEGIC>MOL_PROPERTY
Bond
SciTegic.value.DoubleValue
0.091

@<SCITEGIC>MOL_PROPERTY
Angle
SciTegic.value.DoubleValue
2.713

@<SCITEGIC>MOL_PROPERTY
Pdih
SciTegic.value.DoubleValue
3.529

@<SCITEGIC>MOL_PROPERTY
Idih
SciTegic.value.DoubleValue
0.000

@<SCITEGIC>MOL_PROPERTY
Tether
SciTegic.value.DoubleValue
0.000

@<TRIPOS>MOLECULE
guest-6_confgen4.mol2 : confsearch ligand conformer 678
          13          12           1
SMALL
USER_CHARGES
 
@<TRIPOS>ATOM
       1    C1      20.966153   20.504927   20.666273 C.2        1 MOL1         0.6021
       2    O1      20.790935   20.436416   19.466287 O.co2      1 MOL1        -0.6904
       3    O2      21.935827   21.031702   21.173817 O.co2      1 MOL1        -0.6904
       4    C2      19.921780   19.879304   21.584629 C.3        1 MOL1        -0.2102
       5    H1      18.941449   19.975529   21.102227 H          1 MOL1         0.0687
       6    H2      19.885584   20.466454   22.510352 H          1 MOL1         0.0687
       7    C3      20.213161   18.393740   21.907193 C.3        1 MOL1        -0.1974
       8    H3      20.256937   17.817501   20.972391 H          1 MOL1         0.0689
       9    H4      21.201177   18.308539   22.380889 H          1 MOL1         0.0689
      10    C4      19.140425   17.791167   22.836404 C.3        1 MOL1        -0.2987
      11    H5      19.364002   16.738489   23.053533 H          1 MOL1         0.0700
      12    H6      19.098354   18.332602   23.790675 H          1 MOL1         0.0700
      13    H7      18.146890   17.837766   22.371352 H          1 MOL1         0.0700
@<TRIPOS>BOND
    1     1     2    1
    2     1     3    2
    3     1     4    1
    4     4     5    1
    5     4     6    1
    6     4     7    1
    7     7     8    1
    8     7     9    1
    9     7    10    1
   10    10    11    1
   11    10    12    1
   12    10    13    1
@<TRIPOS>SUBSTRUCTURE
       1 MOL1            1 RESIDUE      1      MOL     
@<SCITEGIC>MOL_PROPERTY
VConf Rank
SciTegic.value.IntegerValue
678

@<SCITEGIC>MOL_PROPERTY
Conf_Id
SciTegic.value.IntegerValue
1

@<SCITEGIC>MOL_PROPERTY
Delta U+W
SciTegic.value.DoubleValue
-1.339

@<SCITEGIC>MOL_PROPERTY
U+W
SciTegic.value.DoubleValue
-59.672

@<SCITEGIC>MOL_PROPERTY
Grad RMS
SciTegic.value.DoubleValue
0.000000

@<SCITEGIC>MOL_PROPERTY
U
SciTegic.value.DoubleValue
7.389

@<SCITEGIC>MOL_PROPERTY
W
SciTegic.value.DoubleValue
-67.061

@<SCITEGIC>MOL_PROPERTY
W(PB)
SciTegic.value.DoubleValue
-68.767

@<SCITEGIC>MOL_PROPERTY
W(SA)
SciTegic.value.DoubleValue
1.707

@<SCITEGIC>MOL_PROPERTY
Valence
SciTegic.value.DoubleValue
5.822

@<SCITEGIC>MOL_PROPERTY
Coulomb
SciTegic.value.DoubleValue
1.255

@<SCITEGIC>MOL_PROPERTY
VdW
SciTegic.value.DoubleValue
0.312

@<SCITEGIC>MOL_PROPERTY
VdW6
SciTegic.value.DoubleValue
-3.061

@<SCITEGIC>MOL_PROPERTY
VdW12
SciTegic.value.DoubleValue
3.372

@<SCITEGIC>MOL_PROPERTY
Bond
SciTegic.value.DoubleValue
0.059

@<SCITEGIC>MOL_PROPERTY
Angle
SciTegic.value.DoubleValue
2.241

@<SCITEGIC>MOL_PROPERTY
Pdih
SciTegic.value.DoubleValue
3.522

@<SCITEGIC>MOL_PROPERTY
Idih
SciTegic.value.DoubleValue
0.000

@<SCITEGIC>MOL_PROPERTY
Tether
SciTegic.value.DoubleValue
0.000

@<TRIPOS>MOLECULE
guest-6_confgen4.mol2 : confsearch ligand conformer 679
          13          12           1
SMALL
USER_CHARGES
 
@<TRIPOS>ATOM
       1    C1      18.701249   20.035550   21.790428 C.2        1 MOL1         0.6021
       2    O1      18.603607   20.592169   20.714909 O.co2      1 MOL1        -0.6904
       3    O2      17.753634   19.571832   22.392836 O.co2      1 MOL1        -0.6904
       4    C2      20.083304   19.947348   22.432979 C.3        1 MOL1        -0.2102
       5    H1      19.961233   19.722250   23.499617 H          1 MOL1         0.0687
       6    H2      20.537579   20.943340   22.369571 H          1 MOL1         0.0687
       7    C3      21.025126   18.908137   21.772410 C.3        1 MOL1        -0.1974
       8    H3      21.107649   19.118092   20.696756 H          1 MOL1         0.0689
       9    H4      22.033813   19.017662   22.193632 H          1 MOL1         0.0689
      10    C4      20.545174   17.457457   21.984785 C.3        1 MOL1        -0.2987
      11    H5      19.555564   17.299436   21.535867 H          1 MOL1         0.0700
      12    H6      21.243296   16.747444   21.522614 H          1 MOL1         0.0700
      13    H7      20.476954   17.219292   23.054372 H          1 MOL1         0.0700
@<TRIPOS>BOND
    1     1     2    1
    2     1     3    2
    3     1     4    1
    4     4     5    1
    5     4     6    1
    6     4     7    1
    7     7     8    1
    8     7     9    1
    9     7    10    1
   10    10    11    1
   11    10    12    1
   12    10    13    1
@<TRIPOS>SUBSTRUCTURE
       1 MOL1            1 RESIDUE      1      MOL     
@<SCITEGIC>MOL_PROPERTY
VConf Rank
SciTegic.value.IntegerValue
679

@<SCITEGIC>MOL_PROPERTY
Conf_Id
SciTegic.value.IntegerValue
4

@<SCITEGIC>MOL_PROPERTY
Delta U+W
SciTegic.value.DoubleValue
0.281

@<SCITEGIC>MOL_PROPERTY
U+W
SciTegic.value.DoubleValue
-58.051

@<SCITEGIC>MOL_PROPERTY
Grad RMS
SciTegic.value.DoubleValue
0.000000

@<SCITEGIC>MOL_PROPERTY
U
SciTegic.value.DoubleValue
9.781

@<SCITEGIC>MOL_PROPERTY
W
SciTegic.value.DoubleValue
-67.832

@<SCITEGIC>MOL_PROPERTY
W(PB)
SciTegic.value.DoubleValue
-69.535

@<SCITEGIC>MOL_PROPERTY
W(SA)
SciTegic.value.DoubleValue
1.703

@<SCITEGIC>MOL_PROPERTY
Valence
SciTegic.value.DoubleValue
6.123

@<SCITEGIC>MOL_PROPERTY
Coulomb
SciTegic.value.DoubleValue
3.449

@<SCITEGIC>MOL_PROPERTY
VdW
SciTegic.value.DoubleValue
0.209

@<SCITEGIC>MOL_PROPERTY
VdW6
SciTegic.value.DoubleValue
-3.762

@<SCITEGIC>MOL_PROPERTY
VdW12
SciTegic.value.DoubleValue
3.972

@<SCITEGIC>MOL_PROPERTY
Bond
SciTegic.value.DoubleValue
0.078

@<SCITEGIC>MOL_PROPERTY
Angle
SciTegic.value.DoubleValue
2.428

@<SCITEGIC>MOL_PROPERTY
Pdih
SciTegic.value.DoubleValue
3.616

@<SCITEGIC>MOL_PROPERTY
Idih
SciTegic.value.DoubleValue
0.002

@<SCITEGIC>MOL_PROPERTY
Tether
SciTegic.value.DoubleValue
0.000

@<TRIPOS>MOLECULE
guest-6_confgen4.mol2 : confsearch ligand conformer 680
          13          12           1
SMALL
USER_CHARGES
 
@<TRIPOS>ATOM
       1    C1      19.994440   17.812543   23.360818 C.2        1 MOL1         0.6021
       2    O1      18.884004   17.875637   23.849547 O.co2      1 MOL1        -0.6904
       3    O2      20.613907   16.774650   23.237795 O.co2      1 MOL1        -0.6904
       4    C2      20.663423   19.108503   22.909513 C.3        1 MOL1        -0.2102
       5    H1      21.681128   19.110544   23.317750 H          1 MOL1         0.0687
       6    H2      20.136494   19.954229   23.368185 H          1 MOL1         0.0687
       7    C3      20.724744   19.288654   21.370968 C.3        1 MOL1        -0.1974
       8    H3      21.348721   20.161601   21.135410 H          1 MOL1         0.0689
       9    H4      21.217470   18.416893   20.918005 H          1 MOL1         0.0689
      10    C4      19.328990   19.482812   20.743194 C.3        1 MOL1        -0.2987
      11    H5      18.827366   20.362991   21.166336 H          1 MOL1         0.0700
      12    H6      19.409593   19.626878   19.657909 H          1 MOL1         0.0700
      13    H7      18.690730   18.607240   20.921587 H          1 MOL1         0.0700
@<TRIPOS>BOND
    1     1     2    1
    2     1     3    2
    3     1     4    1
    4     4     5    1
    5     4     6    1
    6     4     7    1
    7     7     8    1
    8     7     9    1
    9     7    10    1
   10    10    11    1
   11    10    12    1
   12    10    13    1
@<TRIPOS>SUBSTRUCTURE
       1 MOL1            1 RESIDUE      1      MOL     
@<SCITEGIC>MOL_PROPERTY
VConf Rank
SciTegic.value.IntegerValue
680

@<SCITEGIC>MOL_PROPERTY
Conf_Id
SciTegic.value.IntegerValue
36

@<SCITEGIC>MOL_PROPERTY
Delta U+W
SciTegic.value.DoubleValue
0.272

@<SCITEGIC>MOL_PROPERTY
U+W
SciTegic.value.DoubleValue
-58.060

@<SCITEGIC>MOL_PROPERTY
Grad RMS
SciTegic.value.DoubleValue
0.000000

@<SCITEGIC>MOL_PROPERTY
U
SciTegic.value.DoubleValue
9.781

@<SCITEGIC>MOL_PROPERTY
W
SciTegic.value.DoubleValue
-67.841

@<SCITEGIC>MOL_PROPERTY
W(PB)
SciTegic.value.DoubleValue
-69.537

@<SCITEGIC>MOL_PROPERTY
W(SA)
SciTegic.value.DoubleValue
1.696

@<SCITEGIC>MOL_PROPERTY
Valence
SciTegic.value.DoubleValue
6.123

@<SCITEGIC>MOL_PROPERTY
Coulomb
SciTegic.value.DoubleValue
3.449

@<SCITEGIC>MOL_PROPERTY
VdW
SciTegic.value.DoubleValue
0.209

@<SCITEGIC>MOL_PROPERTY
VdW6
SciTegic.value.DoubleValue
-3.762

@<SCITEGIC>MOL_PROPERTY
VdW12
SciTegic.value.DoubleValue
3.972

@<SCITEGIC>MOL_PROPERTY
Bond
SciTegic.value.DoubleValue
0.078

@<SCITEGIC>MOL_PROPERTY
Angle
SciTegic.value.DoubleValue
2.428

@<SCITEGIC>MOL_PROPERTY
Pdih
SciTegic.value.DoubleValue
3.616

@<SCITEGIC>MOL_PROPERTY
Idih
SciTegic.value.DoubleValue
0.002

@<SCITEGIC>MOL_PROPERTY
Tether
SciTegic.value.DoubleValue
0.000

@<TRIPOS>MOLECULE
guest-6_confgen4.mol2 : confsearch ligand conformer 681
          13          12           1
SMALL
USER_CHARGES
 
@<TRIPOS>ATOM
       1    C1      19.304871   19.487073   23.769157 C.2        1 MOL1         0.6021
       2    O1      19.163601   20.688592   23.652003 O.co2      1 MOL1        -0.6904
       3    O2      19.054861   18.888772   24.795961 O.co2      1 MOL1        -0.6904
       4    C2      19.819611   18.662875   22.587454 C.3        1 MOL1        -0.2102
       5    H1      19.068464   17.893492   22.372590 H          1 MOL1         0.0687
       6    H2      20.725131   18.142080   22.920837 H          1 MOL1         0.0687
       7    C3      20.125337   19.469070   21.298059 C.3        1 MOL1        -0.1974
       8    H3      19.217394   19.992509   20.967294 H          1 MOL1         0.0689
       9    H4      20.876049   20.241460   21.516232 H          1 MOL1         0.0689
      10    C4      20.637305   18.557619   20.164489 C.3        1 MOL1        -0.2987
      11    H5      19.890900   17.794970   19.906091 H          1 MOL1         0.0700
      12    H6      20.848018   19.145252   19.261414 H          1 MOL1         0.0700
      13    H7      21.562850   18.045882   20.459471 H          1 MOL1         0.0700
@<TRIPOS>BOND
    1     1     2    1
    2     1     3    2
    3     1     4    1
    4     4     5    1
    5     4     6    1
    6     4     7    1
    7     7     8    1
    8     7     9    1
    9     7    10    1
   10    10    11    1
   11    10    12    1
   12    10    13    1
@<TRIPOS>SUBSTRUCTURE
       1 MOL1            1 RESIDUE      1      MOL     
@<SCITEGIC>MOL_PROPERTY
VConf Rank
SciTegic.value.IntegerValue
681

@<SCITEGIC>MOL_PROPERTY
Conf_Id
SciTegic.value.IntegerValue
0

@<SCITEGIC>MOL_PROPERTY
Delta U+W
SciTegic.value.DoubleValue
0.000

@<SCITEGIC>MOL_PROPERTY
U+W
SciTegic.value.DoubleValue
-58.332

@<SCITEGIC>MOL_PROPERTY
Grad RMS
SciTegic.value.DoubleValue
0.000000

@<SCITEGIC>MOL_PROPERTY
U
SciTegic.value.DoubleValue
8.390

@<SCITEGIC>MOL_PROPERTY
W
SciTegic.value.DoubleValue
-66.722

@<SCITEGIC>MOL_PROPERTY
W(PB)
SciTegic.value.DoubleValue
-68.455

@<SCITEGIC>MOL_PROPERTY
W(SA)
SciTegic.value.DoubleValue
1.733

@<SCITEGIC>MOL_PROPERTY
Valence
SciTegic.value.DoubleValue
6.333

@<SCITEGIC>MOL_PROPERTY
Coulomb
SciTegic.value.DoubleValue
1.215

@<SCITEGIC>MOL_PROPERTY
VdW
SciTegic.value.DoubleValue
0.842

@<SCITEGIC>MOL_PROPERTY
VdW6
SciTegic.value.DoubleValue
-3.344

@<SCITEGIC>MOL_PROPERTY
VdW12
SciTegic.value.DoubleValue
4.186

@<SCITEGIC>MOL_PROPERTY
Bond
SciTegic.value.DoubleValue
0.091

@<SCITEGIC>MOL_PROPERTY
Angle
SciTegic.value.DoubleValue
2.713

@<SCITEGIC>MOL_PROPERTY
Pdih
SciTegic.value.DoubleValue
3.529

@<SCITEGIC>MOL_PROPERTY
Idih
SciTegic.value.DoubleValue
0.000

@<SCITEGIC>MOL_PROPERTY
Tether
SciTegic.value.DoubleValue
0.000

@<TRIPOS>MOLECULE
guest-6_confgen4.mol2 : confsearch ligand conformer 682
          13          12           1
SMALL
USER_CHARGES
 
@<TRIPOS>ATOM
       1    C1      19.103885   17.724333   23.227079 C.2        1 MOL1         0.6021
       2    O1      17.896218   17.795635   23.335783 O.co2      1 MOL1        -0.6904
       3    O2      19.833036   17.306424   24.104034 O.co2      1 MOL1        -0.6904
       4    C2      19.740580   18.202846   21.926638 C.3        1 MOL1        -0.2102
       5    H1      19.038865   18.000525   21.108297 H          1 MOL1         0.0687
       6    H2      20.636072   17.597074   21.741836 H          1 MOL1         0.0687
       7    C3      20.110114   19.705725   21.952095 C.3        1 MOL1        -0.1974
       8    H3      19.207713   20.301748   22.147676 H          1 MOL1         0.0689
       9    H4      20.805309   19.898191   22.781241 H          1 MOL1         0.0689
      10    C4      20.750779   20.157766   20.624505 C.3        1 MOL1        -0.2987
      11    H5      21.005609   21.224976   20.661751 H          1 MOL1         0.0700
      12    H6      21.672180   19.596105   20.421746 H          1 MOL1         0.0700
      13    H7      20.062314   20.002792   19.783341 H          1 MOL1         0.0700
@<TRIPOS>BOND
    1     1     2    1
    2     1     3    2
    3     1     4    1
    4     4     5    1
    5     4     6    1
    6     4     7    1
    7     7     8    1
    8     7     9    1
    9     7    10    1
   10    10    11    1
   11    10    12    1
   12    10    13    1
@<TRIPOS>SUBSTRUCTURE
       1 MOL1            1 RESIDUE      1      MOL     
@<SCITEGIC>MOL_PROPERTY
VConf Rank
SciTegic.value.IntegerValue
682

@<SCITEGIC>MOL_PROPERTY
Conf_Id
SciTegic.value.IntegerValue
1

@<SCITEGIC>MOL_PROPERTY
Delta U+W
SciTegic.value.DoubleValue
-1.339

@<SCITEGIC>MOL_PROPERTY
U+W
SciTegic.value.DoubleValue
-59.672

@<SCITEGIC>MOL_PROPERTY
Grad RMS
SciTegic.value.DoubleValue
0.000000

@<SCITEGIC>MOL_PROPERTY
U
SciTegic.value.DoubleValue
7.389

@<SCITEGIC>MOL_PROPERTY
W
SciTegic.value.DoubleValue
-67.061

@<SCITEGIC>MOL_PROPERTY
W(PB)
SciTegic.value.DoubleValue
-68.767

@<SCITEGIC>MOL_PROPERTY
W(SA)
SciTegic.value.DoubleValue
1.707

@<SCITEGIC>MOL_PROPERTY
Valence
SciTegic.value.DoubleValue
5.822

@<SCITEGIC>MOL_PROPERTY
Coulomb
SciTegic.value.DoubleValue
1.255

@<SCITEGIC>MOL_PROPERTY
VdW
SciTegic.value.DoubleValue
0.312

@<SCITEGIC>MOL_PROPERTY
VdW6
SciTegic.value.DoubleValue
-3.061

@<SCITEGIC>MOL_PROPERTY
VdW12
SciTegic.value.DoubleValue
3.372

@<SCITEGIC>MOL_PROPERTY
Bond
SciTegic.value.DoubleValue
0.059

@<SCITEGIC>MOL_PROPERTY
Angle
SciTegic.value.DoubleValue
2.241

@<SCITEGIC>MOL_PROPERTY
Pdih
SciTegic.value.DoubleValue
3.522

@<SCITEGIC>MOL_PROPERTY
Idih
SciTegic.value.DoubleValue
0.000

@<SCITEGIC>MOL_PROPERTY
Tether
SciTegic.value.DoubleValue
0.000

@<TRIPOS>MOLECULE
guest-6_confgen4.mol2 : confsearch ligand conformer 683
          13          12           1
SMALL
USER_CHARGES
 
@<TRIPOS>ATOM
       1    C1      20.378869   18.042774   23.510570 C.2        1 MOL1         0.6021
       2    O1      20.566716   16.849427   23.381204 O.co2      1 MOL1        -0.6904
       3    O2      20.976340   18.731471   24.313458 O.co2      1 MOL1        -0.6904
       4    C2      19.310074   18.701986   22.642329 C.3        1 MOL1        -0.2102
       5    H1      19.041785   19.667775   23.087930 H          1 MOL1         0.0687
       6    H2      18.414455   18.071197   22.690897 H          1 MOL1         0.0687
       7    C3      19.725453   18.894377   21.161185 C.3        1 MOL1        -0.1974
       8    H3      20.031581   17.927966   20.736617 H          1 MOL1         0.0689
       9    H4      18.853576   19.230816   20.583680 H          1 MOL1         0.0689
      10    C4      20.865542   19.920500   20.996273 C.3        1 MOL1        -0.2987
      11    H5      21.770341   19.593669   21.525751 H          1 MOL1         0.0700
      12    H6      21.121420   20.047443   19.936316 H          1 MOL1         0.0700
      13    H7      20.572031   20.900606   21.394565 H          1 MOL1         0.0700
@<TRIPOS>BOND
    1     1     2    1
    2     1     3    2
    3     1     4    1
    4     4     5    1
    5     4     6    1
    6     4     7    1
    7     7     8    1
    8     7     9    1
    9     7    10    1
   10    10    11    1
   11    10    12    1
   12    10    13    1
@<TRIPOS>SUBSTRUCTURE
       1 MOL1            1 RESIDUE      1      MOL     
@<SCITEGIC>MOL_PROPERTY
VConf Rank
SciTegic.value.IntegerValue
683

@<SCITEGIC>MOL_PROPERTY
Conf_Id
SciTegic.value.IntegerValue
4

@<SCITEGIC>MOL_PROPERTY
Delta U+W
SciTegic.value.DoubleValue
0.281

@<SCITEGIC>MOL_PROPERTY
U+W
SciTegic.value.DoubleValue
-58.051

@<SCITEGIC>MOL_PROPERTY
Grad RMS
SciTegic.value.DoubleValue
0.000000

@<SCITEGIC>MOL_PROPERTY
U
SciTegic.value.DoubleValue
9.781

@<SCITEGIC>MOL_PROPERTY
W
SciTegic.value.DoubleValue
-67.832

@<SCITEGIC>MOL_PROPERTY
W(PB)
SciTegic.value.DoubleValue
-69.535

@<SCITEGIC>MOL_PROPERTY
W(SA)
SciTegic.value.DoubleValue
1.703

@<SCITEGIC>MOL_PROPERTY
Valence
SciTegic.value.DoubleValue
6.123

@<SCITEGIC>MOL_PROPERTY
Coulomb
SciTegic.value.DoubleValue
3.449

@<SCITEGIC>MOL_PROPERTY
VdW
SciTegic.value.DoubleValue
0.209

@<SCITEGIC>MOL_PROPERTY
VdW6
SciTegic.value.DoubleValue
-3.762

@<SCITEGIC>MOL_PROPERTY
VdW12
SciTegic.value.DoubleValue
3.972

@<SCITEGIC>MOL_PROPERTY
Bond
SciTegic.value.DoubleValue
0.078

@<SCITEGIC>MOL_PROPERTY
Angle
SciTegic.value.DoubleValue
2.428

@<SCITEGIC>MOL_PROPERTY
Pdih
SciTegic.value.DoubleValue
3.616

@<SCITEGIC>MOL_PROPERTY
Idih
SciTegic.value.DoubleValue
0.002

@<SCITEGIC>MOL_PROPERTY
Tether
SciTegic.value.DoubleValue
0.000

@<TRIPOS>MOLECULE
guest-6_confgen4.mol2 : confsearch ligand conformer 684
          13          12           1
SMALL
USER_CHARGES
 
@<TRIPOS>ATOM
       1    C1      21.500723   19.935906   21.397413 C.2        1 MOL1         0.6021
       2    O1      21.827970   19.540439   20.296313 O.co2      1 MOL1        -0.6904
       3    O2      21.510448   21.107686   21.718248 O.co2      1 MOL1        -0.6904
       4    C2      21.089500   18.905364   22.446033 C.3        1 MOL1        -0.2102
       5    H1      21.634028   19.141761   23.367983 H          1 MOL1         0.0687
       6    H2      21.433144   17.915945   22.120079 H          1 MOL1         0.0687
       7    C3      19.567771   18.871820   22.740235 C.3        1 MOL1        -0.1974
       8    H3      19.382454   18.218346   23.603658 H          1 MOL1         0.0689
       9    H4      19.226196   19.876681   23.025723 H          1 MOL1         0.0689
      10    C4      18.745105   18.363855   21.538104 C.3        1 MOL1        -0.2987
      11    H5      19.055573   17.350926   21.250049 H          1 MOL1         0.0700
      12    H6      17.676096   18.333822   21.785924 H          1 MOL1         0.0700
      13    H7      18.872003   19.020623   20.667255 H          1 MOL1         0.0700
@<TRIPOS>BOND
    1     1     2    1
    2     1     3    2
    3     1     4    1
    4     4     5    1
    5     4     6    1
    6     4     7    1
    7     7     8    1
    8     7     9    1
    9     7    10    1
   10    10    11    1
   11    10    12    1
   12    10    13    1
@<TRIPOS>SUBSTRUCTURE
       1 MOL1            1 RESIDUE      1      MOL     
@<SCITEGIC>MOL_PROPERTY
VConf Rank
SciTegic.value.IntegerValue
684

@<SCITEGIC>MOL_PROPERTY
Conf_Id
SciTegic.value.IntegerValue
36

@<SCITEGIC>MOL_PROPERTY
Delta U+W
SciTegic.value.DoubleValue
0.272

@<SCITEGIC>MOL_PROPERTY
U+W
SciTegic.value.DoubleValue
-58.060

@<SCITEGIC>MOL_PROPERTY
Grad RMS
SciTegic.value.DoubleValue
0.000000

@<SCITEGIC>MOL_PROPERTY
U
SciTegic.value.DoubleValue
9.781

@<SCITEGIC>MOL_PROPERTY
W
SciTegic.value.DoubleValue
-67.841

@<SCITEGIC>MOL_PROPERTY
W(PB)
SciTegic.value.DoubleValue
-69.537

@<SCITEGIC>MOL_PROPERTY
W(SA)
SciTegic.value.DoubleValue
1.696

@<SCITEGIC>MOL_PROPERTY
Valence
SciTegic.value.DoubleValue
6.123

@<SCITEGIC>MOL_PROPERTY
Coulomb
SciTegic.value.DoubleValue
3.449

@<SCITEGIC>MOL_PROPERTY
VdW
SciTegic.value.DoubleValue
0.209

@<SCITEGIC>MOL_PROPERTY
VdW6
SciTegic.value.DoubleValue
-3.762

@<SCITEGIC>MOL_PROPERTY
VdW12
SciTegic.value.DoubleValue
3.972

@<SCITEGIC>MOL_PROPERTY
Bond
SciTegic.value.DoubleValue
0.078

@<SCITEGIC>MOL_PROPERTY
Angle
SciTegic.value.DoubleValue
2.428

@<SCITEGIC>MOL_PROPERTY
Pdih
SciTegic.value.DoubleValue
3.616

@<SCITEGIC>MOL_PROPERTY
Idih
SciTegic.value.DoubleValue
0.002

@<SCITEGIC>MOL_PROPERTY
Tether
SciTegic.value.DoubleValue
0.000

@<TRIPOS>MOLECULE
guest-6_confgen4.mol2 : confsearch ligand conformer 685
          13          12           1
SMALL
USER_CHARGES
 
@<TRIPOS>ATOM
       1    C1      21.904915   19.830934   21.259194 C.2        1 MOL1         0.6021
       2    O1      22.116504   20.549727   22.216219 O.co2      1 MOL1        -0.6904
       3    O2      22.671248   19.734807   20.322022 O.co2      1 MOL1        -0.6904
       4    C2      20.623552   18.996901   21.202824 C.3        1 MOL1        -0.2102
       5    H1      20.920504   17.946661   21.097218 H          1 MOL1         0.0687
       6    H2      20.092645   19.273490   20.284144 H          1 MOL1         0.0687
       7    C3      19.675721   19.151896   22.420836 C.3        1 MOL1        -0.1974
       8    H3      20.210541   18.877033   23.340712 H          1 MOL1         0.0689
       9    H4      19.381718   20.205515   22.526687 H          1 MOL1         0.0689
      10    C4      18.414602   18.276418   22.276092 C.3        1 MOL1        -0.2987
      11    H5      18.680544   17.213896   22.199650 H          1 MOL1         0.0700
      12    H6      17.756796   18.399347   23.146401 H          1 MOL1         0.0700
      13    H7      17.845101   18.553020   21.379051 H          1 MOL1         0.0700
@<TRIPOS>BOND
    1     1     2    1
    2     1     3    2
    3     1     4    1
    4     4     5    1
    5     4     6    1
    6     4     7    1
    7     7     8    1
    8     7     9    1
    9     7    10    1
   10    10    11    1
   11    10    12    1
   12    10    13    1
@<TRIPOS>SUBSTRUCTURE
       1 MOL1            1 RESIDUE      1      MOL     
@<SCITEGIC>MOL_PROPERTY
VConf Rank
SciTegic.value.IntegerValue
685

@<SCITEGIC>MOL_PROPERTY
Conf_Id
SciTegic.value.IntegerValue
0

@<SCITEGIC>MOL_PROPERTY
Delta U+W
SciTegic.value.DoubleValue
0.000

@<SCITEGIC>MOL_PROPERTY
U+W
SciTegic.value.DoubleValue
-58.332

@<SCITEGIC>MOL_PROPERTY
Grad RMS
SciTegic.value.DoubleValue
0.000000

@<SCITEGIC>MOL_PROPERTY
U
SciTegic.value.DoubleValue
8.390

@<SCITEGIC>MOL_PROPERTY
W
SciTegic.value.DoubleValue
-66.722

@<SCITEGIC>MOL_PROPERTY
W(PB)
SciTegic.value.DoubleValue
-68.455

@<SCITEGIC>MOL_PROPERTY
W(SA)
SciTegic.value.DoubleValue
1.733

@<SCITEGIC>MOL_PROPERTY
Valence
SciTegic.value.DoubleValue
6.333

@<SCITEGIC>MOL_PROPERTY
Coulomb
SciTegic.value.DoubleValue
1.215

@<SCITEGIC>MOL_PROPERTY
VdW
SciTegic.value.DoubleValue
0.842

@<SCITEGIC>MOL_PROPERTY
VdW6
SciTegic.value.DoubleValue
-3.344

@<SCITEGIC>MOL_PROPERTY
VdW12
SciTegic.value.DoubleValue
4.186

@<SCITEGIC>MOL_PROPERTY
Bond
SciTegic.value.DoubleValue
0.091

@<SCITEGIC>MOL_PROPERTY
Angle
SciTegic.value.DoubleValue
2.713

@<SCITEGIC>MOL_PROPERTY
Pdih
SciTegic.value.DoubleValue
3.529

@<SCITEGIC>MOL_PROPERTY
Idih
SciTegic.value.DoubleValue
0.000

@<SCITEGIC>MOL_PROPERTY
Tether
SciTegic.value.DoubleValue
0.000

@<TRIPOS>MOLECULE
guest-6_confgen4.mol2 : confsearch ligand conformer 686
          13          12           1
SMALL
USER_CHARGES
 
@<TRIPOS>ATOM
       1    C1      20.490117   20.697537   20.623437 C.2        1 MOL1         0.6021
       2    O1      20.230756   20.594110   19.441322 O.co2      1 MOL1        -0.6904
       3    O2      21.350689   21.435504   21.059533 O.co2      1 MOL1        -0.6904
       4    C2      19.705912   19.840804   21.611633 C.3        1 MOL1        -0.2102
       5    H1      18.691662   19.705809   21.216548 H          1 MOL1         0.0687
       6    H2      19.615210   20.399687   22.551017 H          1 MOL1         0.0687
       7    C3      20.363600   18.464091   21.872318 C.3        1 MOL1        -0.1974
       8    H3      20.458291   17.917627   20.923512 H          1 MOL1         0.0689
       9    H4      21.381949   18.611637   22.258346 H          1 MOL1         0.0689
      10    C4      19.547500   17.623062   22.874288 C.3        1 MOL1        -0.2987
      11    H5      20.029094   16.651575   23.046164 H          1 MOL1         0.0700
      12    H6      19.464306   18.136027   23.841501 H          1 MOL1         0.0700
      13    H7      18.533588   17.436667   22.496405 H          1 MOL1         0.0700
@<TRIPOS>BOND
    1     1     2    1
    2     1     3    2
    3     1     4    1
    4     4     5    1
    5     4     6    1
    6     4     7    1
    7     7     8    1
    8     7     9    1
    9     7    10    1
   10    10    11    1
   11    10    12    1
   12    10    13    1
@<TRIPOS>SUBSTRUCTURE
       1 MOL1            1 RESIDUE      1      MOL     
@<SCITEGIC>MOL_PROPERTY
VConf Rank
SciTegic.value.IntegerValue
686

@<SCITEGIC>MOL_PROPERTY
Conf_Id
SciTegic.value.IntegerValue
1

@<SCITEGIC>MOL_PROPERTY
Delta U+W
SciTegic.value.DoubleValue
-1.339

@<SCITEGIC>MOL_PROPERTY
U+W
SciTegic.value.DoubleValue
-59.672

@<SCITEGIC>MOL_PROPERTY
Grad RMS
SciTegic.value.DoubleValue
0.000000

@<SCITEGIC>MOL_PROPERTY
U
SciTegic.value.DoubleValue
7.389

@<SCITEGIC>MOL_PROPERTY
W
SciTegic.value.DoubleValue
-67.061

@<SCITEGIC>MOL_PROPERTY
W(PB)
SciTegic.value.DoubleValue
-68.767

@<SCITEGIC>MOL_PROPERTY
W(SA)
SciTegic.value.DoubleValue
1.707

@<SCITEGIC>MOL_PROPERTY
Valence
SciTegic.value.DoubleValue
5.822

@<SCITEGIC>MOL_PROPERTY
Coulomb
SciTegic.value.DoubleValue
1.255

@<SCITEGIC>MOL_PROPERTY
VdW
SciTegic.value.DoubleValue
0.312

@<SCITEGIC>MOL_PROPERTY
VdW6
SciTegic.value.DoubleValue
-3.061

@<SCITEGIC>MOL_PROPERTY
VdW12
SciTegic.value.DoubleValue
3.372

@<SCITEGIC>MOL_PROPERTY
Bond
SciTegic.value.DoubleValue
0.059

@<SCITEGIC>MOL_PROPERTY
Angle
SciTegic.value.DoubleValue
2.241

@<SCITEGIC>MOL_PROPERTY
Pdih
SciTegic.value.DoubleValue
3.522

@<SCITEGIC>MOL_PROPERTY
Idih
SciTegic.value.DoubleValue
0.000

@<SCITEGIC>MOL_PROPERTY
Tether
SciTegic.value.DoubleValue
0.000

@<TRIPOS>MOLECULE
guest-6_confgen4.mol2 : confsearch ligand conformer 687
          13          12           1
SMALL
USER_CHARGES
 
@<TRIPOS>ATOM
       1    C1      21.497583   17.820998   21.885062 C.2        1 MOL1         0.6021
       2    O1      21.545315   17.143080   20.877964 O.co2      1 MOL1        -0.6904
       3    O2      22.478354   18.306884   22.412231 O.co2      1 MOL1        -0.6904
       4    C2      20.136642   18.042441   22.540447 C.3        1 MOL1        -0.2102
       5    H1      20.294205   18.380487   23.572041 H          1 MOL1         0.0687
       6    H2      19.639471   17.066875   22.599424 H          1 MOL1         0.0687
       7    C3      19.223424   19.041630   21.784805 C.3        1 MOL1        -0.1974
       8    H3      19.105778   18.715837   20.741761 H          1 MOL1         0.0689
       9    H4      18.221664   19.025255   22.235450 H          1 MOL1         0.0689
      10    C4      19.769016   20.484161   21.821692 C.3        1 MOL1        -0.2987
      11    H5      20.753083   20.546408   21.338405 H          1 MOL1         0.0700
      12    H6      19.090236   21.168043   21.295708 H          1 MOL1         0.0700
      13    H7      19.873414   20.837910   22.855788 H          1 MOL1         0.0700
@<TRIPOS>BOND
    1     1     2    1
    2     1     3    2
    3     1     4    1
    4     4     5    1
    5     4     6    1
    6     4     7    1
    7     7     8    1
    8     7     9    1
    9     7    10    1
   10    10    11    1
   11    10    12    1
   12    10    13    1
@<TRIPOS>SUBSTRUCTURE
       1 MOL1            1 RESIDUE      1      MOL     
@<SCITEGIC>MOL_PROPERTY
VConf Rank
SciTegic.value.IntegerValue
687

@<SCITEGIC>MOL_PROPERTY
Conf_Id
SciTegic.value.IntegerValue
4

@<SCITEGIC>MOL_PROPERTY
Delta U+W
SciTegic.value.DoubleValue
0.281

@<SCITEGIC>MOL_PROPERTY
U+W
SciTegic.value.DoubleValue
-58.051

@<SCITEGIC>MOL_PROPERTY
Grad RMS
SciTegic.value.DoubleValue
0.000000

@<SCITEGIC>MOL_PROPERTY
U
SciTegic.value.DoubleValue
9.781

@<SCITEGIC>MOL_PROPERTY
W
SciTegic.value.DoubleValue
-67.832

@<SCITEGIC>MOL_PROPERTY
W(PB)
SciTegic.value.DoubleValue
-69.535

@<SCITEGIC>MOL_PROPERTY
W(SA)
SciTegic.value.DoubleValue
1.703

@<SCITEGIC>MOL_PROPERTY
Valence
SciTegic.value.DoubleValue
6.123

@<SCITEGIC>MOL_PROPERTY
Coulomb
SciTegic.value.DoubleValue
3.449

@<SCITEGIC>MOL_PROPERTY
VdW
SciTegic.value.DoubleValue
0.209

@<SCITEGIC>MOL_PROPERTY
VdW6
SciTegic.value.DoubleValue
-3.762

@<SCITEGIC>MOL_PROPERTY
VdW12
SciTegic.value.DoubleValue
3.972

@<SCITEGIC>MOL_PROPERTY
Bond
SciTegic.value.DoubleValue
0.078

@<SCITEGIC>MOL_PROPERTY
Angle
SciTegic.value.DoubleValue
2.428

@<SCITEGIC>MOL_PROPERTY
Pdih
SciTegic.value.DoubleValue
3.616

@<SCITEGIC>MOL_PROPERTY
Idih
SciTegic.value.DoubleValue
0.002

@<SCITEGIC>MOL_PROPERTY
Tether
SciTegic.value.DoubleValue
0.000

@<TRIPOS>MOLECULE
guest-6_confgen4.mol2 : confsearch ligand conformer 688
          13          12           1
SMALL
USER_CHARGES
 
@<TRIPOS>ATOM
       1    C1      18.777478   17.931565   22.581846 C.2        1 MOL1         0.6021
       2    O1      19.095426   17.408982   23.631476 O.co2      1 MOL1        -0.6904
       3    O2      17.653819   18.328047   22.344592 O.co2      1 MOL1        -0.6904
       4    C2      19.834555   18.065934   21.488568 C.3        1 MOL1        -0.2102
       5    H1      19.388362   17.701211   20.555683 H          1 MOL1         0.0687
       6    H2      20.670206   17.395232   21.723370 H          1 MOL1         0.0687
       7    C3      20.352805   19.512228   21.281230 C.3        1 MOL1        -0.1974
       8    H3      20.988792   19.541765   20.385955 H          1 MOL1         0.0689
       9    H4      19.503845   20.182850   21.087696 H          1 MOL1         0.0689
      10    C4      21.160028   20.029087   22.490021 C.3        1 MOL1        -0.2987
      11    H5      22.026955   19.384965   22.687341 H          1 MOL1         0.0700
      12    H6      21.528230   21.046202   22.302938 H          1 MOL1         0.0700
      13    H7      20.540510   20.055106   23.396303 H          1 MOL1         0.0700
@<TRIPOS>BOND
    1     1     2    1
    2     1     3    2
    3     1     4    1
    4     4     5    1
    5     4     6    1
    6     4     7    1
    7     7     8    1
    8     7     9    1
    9     7    10    1
   10    10    11    1
   11    10    12    1
   12    10    13    1
@<TRIPOS>SUBSTRUCTURE
       1 MOL1            1 RESIDUE      1      MOL     
@<SCITEGIC>MOL_PROPERTY
VConf Rank
SciTegic.value.IntegerValue
688

@<SCITEGIC>MOL_PROPERTY
Conf_Id
SciTegic.value.IntegerValue
36

@<SCITEGIC>MOL_PROPERTY
Delta U+W
SciTegic.value.DoubleValue
0.272

@<SCITEGIC>MOL_PROPERTY
U+W
SciTegic.value.DoubleValue
-58.060

@<SCITEGIC>MOL_PROPERTY
Grad RMS
SciTegic.value.DoubleValue
0.000000

@<SCITEGIC>MOL_PROPERTY
U
SciTegic.value.DoubleValue
9.781

@<SCITEGIC>MOL_PROPERTY
W
SciTegic.value.DoubleValue
-67.841

@<SCITEGIC>MOL_PROPERTY
W(PB)
SciTegic.value.DoubleValue
-69.537

@<SCITEGIC>MOL_PROPERTY
W(SA)
SciTegic.value.DoubleValue
1.696

@<SCITEGIC>MOL_PROPERTY
Valence
SciTegic.value.DoubleValue
6.123

@<SCITEGIC>MOL_PROPERTY
Coulomb
SciTegic.value.DoubleValue
3.449

@<SCITEGIC>MOL_PROPERTY
VdW
SciTegic.value.DoubleValue
0.209

@<SCITEGIC>MOL_PROPERTY
VdW6
SciTegic.value.DoubleValue
-3.762

@<SCITEGIC>MOL_PROPERTY
VdW12
SciTegic.value.DoubleValue
3.972

@<SCITEGIC>MOL_PROPERTY
Bond
SciTegic.value.DoubleValue
0.078

@<SCITEGIC>MOL_PROPERTY
Angle
SciTegic.value.DoubleValue
2.428

@<SCITEGIC>MOL_PROPERTY
Pdih
SciTegic.value.DoubleValue
3.616

@<SCITEGIC>MOL_PROPERTY
Idih
SciTegic.value.DoubleValue
0.002

@<SCITEGIC>MOL_PROPERTY
Tether
SciTegic.value.DoubleValue
0.000

@<TRIPOS>MOLECULE
guest-6_confgen4.mol2 : confsearch ligand conformer 689
          13          12           1
SMALL
USER_CHARGES
 
@<TRIPOS>ATOM
       1    C1      18.450608   19.198716   23.248128 C.2        1 MOL1         0.6021
       2    O1      18.893715   18.516633   24.151316 O.co2      1 MOL1        -0.6904
       3    O2      17.380020   19.768249   23.313462 O.co2      1 MOL1        -0.6904
       4    C2      19.254188   19.366750   21.957118 C.3        1 MOL1        -0.2102
       5    H1      19.417417   20.441042   21.810180 H          1 MOL1         0.0687
       6    H2      18.621488   19.022940   21.130182 H          1 MOL1         0.0687
       7    C3      20.614108   18.621677   21.919179 C.3        1 MOL1        -0.1974
       8    H3      21.245498   18.965543   22.750357 H          1 MOL1         0.0689
       9    H4      20.448599   17.545696   22.069599 H          1 MOL1         0.0689
      10    C4      21.350718   18.848592   20.583608 C.3        1 MOL1        -0.2987
      11    H5      21.555838   19.915400   20.424330 H          1 MOL1         0.0700
      12    H6      22.309692   18.314213   20.575486 H          1 MOL1         0.0700
      13    H7      20.752503   18.484194   19.738105 H          1 MOL1         0.0700
@<TRIPOS>BOND
    1     1     2    1
    2     1     3    2
    3     1     4    1
    4     4     5    1
    5     4     6    1
    6     4     7    1
    7     7     8    1
    8     7     9    1
    9     7    10    1
   10    10    11    1
   11    10    12    1
   12    10    13    1
@<TRIPOS>SUBSTRUCTURE
       1 MOL1            1 RESIDUE      1      MOL     
@<SCITEGIC>MOL_PROPERTY
VConf Rank
SciTegic.value.IntegerValue
689

@<SCITEGIC>MOL_PROPERTY
Conf_Id
SciTegic.value.IntegerValue
0

@<SCITEGIC>MOL_PROPERTY
Delta U+W
SciTegic.value.DoubleValue
0.000

@<SCITEGIC>MOL_PROPERTY
U+W
SciTegic.value.DoubleValue
-58.332

@<SCITEGIC>MOL_PROPERTY
Grad RMS
SciTegic.value.DoubleValue
0.000000

@<SCITEGIC>MOL_PROPERTY
U
SciTegic.value.DoubleValue
8.390

@<SCITEGIC>MOL_PROPERTY
W
SciTegic.value.DoubleValue
-66.722

@<SCITEGIC>MOL_PROPERTY
W(PB)
SciTegic.value.DoubleValue
-68.455

@<SCITEGIC>MOL_PROPERTY
W(SA)
SciTegic.value.DoubleValue
1.733

@<SCITEGIC>MOL_PROPERTY
Valence
SciTegic.value.DoubleValue
6.333

@<SCITEGIC>MOL_PROPERTY
Coulomb
SciTegic.value.DoubleValue
1.215

@<SCITEGIC>MOL_PROPERTY
VdW
SciTegic.value.DoubleValue
0.842

@<SCITEGIC>MOL_PROPERTY
VdW6
SciTegic.value.DoubleValue
-3.344

@<SCITEGIC>MOL_PROPERTY
VdW12
SciTegic.value.DoubleValue
4.186

@<SCITEGIC>MOL_PROPERTY
Bond
SciTegic.value.DoubleValue
0.091

@<SCITEGIC>MOL_PROPERTY
Angle
SciTegic.value.DoubleValue
2.713

@<SCITEGIC>MOL_PROPERTY
Pdih
SciTegic.value.DoubleValue
3.529

@<SCITEGIC>MOL_PROPERTY
Idih
SciTegic.value.DoubleValue
0.000

@<SCITEGIC>MOL_PROPERTY
Tether
SciTegic.value.DoubleValue
0.000

@<TRIPOS>MOLECULE
guest-6_confgen4.mol2 : confsearch ligand conformer 690
          13          12           1
SMALL
USER_CHARGES
 
@<TRIPOS>ATOM
       1    C1      21.328555   20.634478   21.481007 C.2        1 MOL1         0.6021
       2    O1      21.634652   21.297842   22.451375 O.co2      1 MOL1        -0.6904
       3    O2      21.374610   21.051824   20.341243 O.co2      1 MOL1        -0.6904
       4    C2      20.842314   19.206951   21.707362 C.3        1 MOL1        -0.2102
       5    H1      21.362058   18.804440   22.585353 H          1 MOL1         0.0687
       6    H2      21.147633   18.601554   20.845217 H          1 MOL1         0.0687
       7    C3      19.310124   19.115080   21.906868 C.3        1 MOL1        -0.1974
       8    H3      19.014785   19.732846   22.766496 H          1 MOL1         0.0689
       9    H4      18.800331   19.529799   21.025992 H          1 MOL1         0.0689
      10    C4      18.850939   17.660691   22.133123 C.3        1 MOL1        -0.2987
      11    H5      17.762884   17.615925   22.272390 H          1 MOL1         0.0700
      12    H6      19.108861   17.029038   21.272863 H          1 MOL1         0.0700
      13    H7      19.324930   17.233669   23.026735 H          1 MOL1         0.0700
@<TRIPOS>BOND
    1     1     2    1
    2     1     3    2
    3     1     4    1
    4     4     5    1
    5     4     6    1
    6     4     7    1
    7     7     8    1
    8     7     9    1
    9     7    10    1
   10    10    11    1
   11    10    12    1
   12    10    13    1
@<TRIPOS>SUBSTRUCTURE
       1 MOL1            1 RESIDUE      1      MOL     
@<SCITEGIC>MOL_PROPERTY
VConf Rank
SciTegic.value.IntegerValue
690

@<SCITEGIC>MOL_PROPERTY
Conf_Id
SciTegic.value.IntegerValue
1

@<SCITEGIC>MOL_PROPERTY
Delta U+W
SciTegic.value.DoubleValue
-1.339

@<SCITEGIC>MOL_PROPERTY
U+W
SciTegic.value.DoubleValue
-59.672

@<SCITEGIC>MOL_PROPERTY
Grad RMS
SciTegic.value.DoubleValue
0.000000

@<SCITEGIC>MOL_PROPERTY
U
SciTegic.value.DoubleValue
7.389

@<SCITEGIC>MOL_PROPERTY
W
SciTegic.value.DoubleValue
-67.061

@<SCITEGIC>MOL_PROPERTY
W(PB)
SciTegic.value.DoubleValue
-68.767

@<SCITEGIC>MOL_PROPERTY
W(SA)
SciTegic.value.DoubleValue
1.707

@<SCITEGIC>MOL_PROPERTY
Valence
SciTegic.value.DoubleValue
5.822

@<SCITEGIC>MOL_PROPERTY
Coulomb
SciTegic.value.DoubleValue
1.255

@<SCITEGIC>MOL_PROPERTY
VdW
SciTegic.value.DoubleValue
0.312

@<SCITEGIC>MOL_PROPERTY
VdW6
SciTegic.value.DoubleValue
-3.061

@<SCITEGIC>MOL_PROPERTY
VdW12
SciTegic.value.DoubleValue
3.372

@<SCITEGIC>MOL_PROPERTY
Bond
SciTegic.value.DoubleValue
0.059

@<SCITEGIC>MOL_PROPERTY
Angle
SciTegic.value.DoubleValue
2.241

@<SCITEGIC>MOL_PROPERTY
Pdih
SciTegic.value.DoubleValue
3.522

@<SCITEGIC>MOL_PROPERTY
Idih
SciTegic.value.DoubleValue
0.000

@<SCITEGIC>MOL_PROPERTY
Tether
SciTegic.value.DoubleValue
0.000

@<TRIPOS>MOLECULE
guest-6_confgen4.mol2 : confsearch ligand conformer 691
          13          12           1
SMALL
USER_CHARGES
 
@<TRIPOS>ATOM
       1    C1      19.894179   19.604994   20.338308 C.2        1 MOL1         0.6021
       2    O1      19.053416   19.044302   19.663888 O.co2      1 MOL1        -0.6904
       3    O2      20.059577   20.808550   20.337719 O.co2      1 MOL1        -0.6904
       4    C2      20.813315   18.746545   21.203744 C.3        1 MOL1        -0.2102
       5    H1      21.690452   19.342858   21.483617 H          1 MOL1         0.0687
       6    H2      21.176988   17.923107   20.577582 H          1 MOL1         0.0687
       7    C3      20.133858   18.168766   22.471754 C.3        1 MOL1        -0.1974
       8    H3      19.233609   17.608084   22.183464 H          1 MOL1         0.0689
       9    H4      20.814076   17.449967   22.948729 H          1 MOL1         0.0689
      10    C4      19.761120   19.263607   23.492693 C.3        1 MOL1        -0.2987
      11    H5      19.045633   19.977078   23.062734 H          1 MOL1         0.0700
      12    H6      19.301076   18.819834   24.385174 H          1 MOL1         0.0700
      13    H7      20.650885   19.822316   23.811370 H          1 MOL1         0.0700
@<TRIPOS>BOND
    1     1     2    1
    2     1     3    2
    3     1     4    1
    4     4     5    1
    5     4     6    1
    6     4     7    1
    7     7     8    1
    8     7     9    1
    9     7    10    1
   10    10    11    1
   11    10    12    1
   12    10    13    1
@<TRIPOS>SUBSTRUCTURE
       1 MOL1            1 RESIDUE      1      MOL     
@<SCITEGIC>MOL_PROPERTY
VConf Rank
SciTegic.value.IntegerValue
691

@<SCITEGIC>MOL_PROPERTY
Conf_Id
SciTegic.value.IntegerValue
4

@<SCITEGIC>MOL_PROPERTY
Delta U+W
SciTegic.value.DoubleValue
0.281

@<SCITEGIC>MOL_PROPERTY
U+W
SciTegic.value.DoubleValue
-58.051

@<SCITEGIC>MOL_PROPERTY
Grad RMS
SciTegic.value.DoubleValue
0.000000

@<SCITEGIC>MOL_PROPERTY
U
SciTegic.value.DoubleValue
9.781

@<SCITEGIC>MOL_PROPERTY
W
SciTegic.value.DoubleValue
-67.832

@<SCITEGIC>MOL_PROPERTY
W(PB)
SciTegic.value.DoubleValue
-69.535

@<SCITEGIC>MOL_PROPERTY
W(SA)
SciTegic.value.DoubleValue
1.703

@<SCITEGIC>MOL_PROPERTY
Valence
SciTegic.value.DoubleValue
6.123

@<SCITEGIC>MOL_PROPERTY
Coulomb
SciTegic.value.DoubleValue
3.449

@<SCITEGIC>MOL_PROPERTY
VdW
SciTegic.value.DoubleValue
0.209

@<SCITEGIC>MOL_PROPERTY
VdW6
SciTegic.value.DoubleValue
-3.762

@<SCITEGIC>MOL_PROPERTY
VdW12
SciTegic.value.DoubleValue
3.972

@<SCITEGIC>MOL_PROPERTY
Bond
SciTegic.value.DoubleValue
0.078

@<SCITEGIC>MOL_PROPERTY
Angle
SciTegic.value.DoubleValue
2.428

@<SCITEGIC>MOL_PROPERTY
Pdih
SciTegic.value.DoubleValue
3.616

@<SCITEGIC>MOL_PROPERTY
Idih
SciTegic.value.DoubleValue
0.002

@<SCITEGIC>MOL_PROPERTY
Tether
SciTegic.value.DoubleValue
0.000

@<TRIPOS>MOLECULE
guest-6_confgen4.mol2 : confsearch ligand conformer 692
          13          12           1
SMALL
USER_CHARGES
 
@<TRIPOS>ATOM
       1    C1      19.317793   19.718120   23.414185 C.2        1 MOL1         0.6021
       2    O1      19.716110   19.190002   24.433175 O.co2      1 MOL1        -0.6904
       3    O2      19.078934   20.906003   23.324877 O.co2      1 MOL1        -0.6904
       4    C2      19.069409   18.839470   22.190663 C.3        1 MOL1        -0.2102
       5    H1      18.078366   19.097375   21.798611 H          1 MOL1         0.0687
       6    H2      19.019399   17.792507   22.514167 H          1 MOL1         0.0687
       7    C3      20.126124   19.001459   21.067965 C.3        1 MOL1        -0.1974
       8    H3      19.790832   18.454080   20.176434 H          1 MOL1         0.0689
       9    H4      20.197736   20.059780   20.780301 H          1 MOL1         0.0689
      10    C4      21.516485   18.479976   21.486148 C.3        1 MOL1        -0.2987
      11    H5      21.471792   17.416876   21.756727 H          1 MOL1         0.0700
      12    H6      22.234828   18.591127   20.663516 H          1 MOL1         0.0700
      13    H7      21.903202   19.036398   22.350249 H          1 MOL1         0.0700
@<TRIPOS>BOND
    1     1     2    1
    2     1     3    2
    3     1     4    1
    4     4     5    1
    5     4     6    1
    6     4     7    1
    7     7     8    1
    8     7     9    1
    9     7    10    1
   10    10    11    1
   11    10    12    1
   12    10    13    1
@<TRIPOS>SUBSTRUCTURE
       1 MOL1            1 RESIDUE      1      MOL     
@<SCITEGIC>MOL_PROPERTY
VConf Rank
SciTegic.value.IntegerValue
692

@<SCITEGIC>MOL_PROPERTY
Conf_Id
SciTegic.value.IntegerValue
36

@<SCITEGIC>MOL_PROPERTY
Delta U+W
SciTegic.value.DoubleValue
0.272

@<SCITEGIC>MOL_PROPERTY
U+W
SciTegic.value.DoubleValue
-58.060

@<SCITEGIC>MOL_PROPERTY
Grad RMS
SciTegic.value.DoubleValue
0.000000

@<SCITEGIC>MOL_PROPERTY
U
SciTegic.value.DoubleValue
9.781

@<SCITEGIC>MOL_PROPERTY
W
SciTegic.value.DoubleValue
-67.841

@<SCITEGIC>MOL_PROPERTY
W(PB)
SciTegic.value.DoubleValue
-69.537

@<SCITEGIC>MOL_PROPERTY
W(SA)
SciTegic.value.DoubleValue
1.696

@<SCITEGIC>MOL_PROPERTY
Valence
SciTegic.value.DoubleValue
6.123

@<SCITEGIC>MOL_PROPERTY
Coulomb
SciTegic.value.DoubleValue
3.449

@<SCITEGIC>MOL_PROPERTY
VdW
SciTegic.value.DoubleValue
0.209

@<SCITEGIC>MOL_PROPERTY
VdW6
SciTegic.value.DoubleValue
-3.762

@<SCITEGIC>MOL_PROPERTY
VdW12
SciTegic.value.DoubleValue
3.972

@<SCITEGIC>MOL_PROPERTY
Bond
SciTegic.value.DoubleValue
0.078

@<SCITEGIC>MOL_PROPERTY
Angle
SciTegic.value.DoubleValue
2.428

@<SCITEGIC>MOL_PROPERTY
Pdih
SciTegic.value.DoubleValue
3.616

@<SCITEGIC>MOL_PROPERTY
Idih
SciTegic.value.DoubleValue
0.002

@<SCITEGIC>MOL_PROPERTY
Tether
SciTegic.value.DoubleValue
0.000

@<TRIPOS>MOLECULE
guest-6_confgen4.mol2 : confsearch ligand conformer 693
          13          12           1
SMALL
USER_CHARGES
 
@<TRIPOS>ATOM
       1    C1      20.669638   18.250858   23.709419 C.2        1 MOL1         0.6021
       2    O1      19.626601   18.306247   24.330978 O.co2      1 MOL1        -0.6904
       3    O2      21.707896   17.848710   24.194283 O.co2      1 MOL1        -0.6904
       4    C2      20.709007   18.701340   22.247845 C.3        1 MOL1        -0.2102
       5    H1      21.070103   17.853731   21.653281 H          1 MOL1         0.0687
       6    H2      21.464057   19.492555   22.169004 H          1 MOL1         0.0687
       7    C3      19.360450   19.206796   21.671768 C.3        1 MOL1        -0.1974
       8    H3      18.604458   18.413445   21.754387 H          1 MOL1         0.0689
       9    H4      18.998852   20.054245   22.270793 H          1 MOL1         0.0689
      10    C4      19.496805   19.638005   20.197556 C.3        1 MOL1        -0.2987
      11    H5      19.827686   18.798763   19.571686 H          1 MOL1         0.0700
      12    H6      18.533546   19.992242   19.807806 H          1 MOL1         0.0700
      13    H7      20.225293   20.452706   20.092245 H          1 MOL1         0.0700
@<TRIPOS>BOND
    1     1     2    1
    2     1     3    2
    3     1     4    1
    4     4     5    1
    5     4     6    1
    6     4     7    1
    7     7     8    1
    8     7     9    1
    9     7    10    1
   10    10    11    1
   11    10    12    1
   12    10    13    1
@<TRIPOS>SUBSTRUCTURE
       1 MOL1            1 RESIDUE      1      MOL     
@<SCITEGIC>MOL_PROPERTY
VConf Rank
SciTegic.value.IntegerValue
693

@<SCITEGIC>MOL_PROPERTY
Conf_Id
SciTegic.value.IntegerValue
0

@<SCITEGIC>MOL_PROPERTY
Delta U+W
SciTegic.value.DoubleValue
0.000

@<SCITEGIC>MOL_PROPERTY
U+W
SciTegic.value.DoubleValue
-58.332

@<SCITEGIC>MOL_PROPERTY
Grad RMS
SciTegic.value.DoubleValue
0.000000

@<SCITEGIC>MOL_PROPERTY
U
SciTegic.value.DoubleValue
8.390

@<SCITEGIC>MOL_PROPERTY
W
SciTegic.value.DoubleValue
-66.722

@<SCITEGIC>MOL_PROPERTY
W(PB)
SciTegic.value.DoubleValue
-68.455

@<SCITEGIC>MOL_PROPERTY
W(SA)
SciTegic.value.DoubleValue
1.733

@<SCITEGIC>MOL_PROPERTY
Valence
SciTegic.value.DoubleValue
6.333

@<SCITEGIC>MOL_PROPERTY
Coulomb
SciTegic.value.DoubleValue
1.215

@<SCITEGIC>MOL_PROPERTY
VdW
SciTegic.value.DoubleValue
0.842

@<SCITEGIC>MOL_PROPERTY
VdW6
SciTegic.value.DoubleValue
-3.344

@<SCITEGIC>MOL_PROPERTY
VdW12
SciTegic.value.DoubleValue
4.186

@<SCITEGIC>MOL_PROPERTY
Bond
SciTegic.value.DoubleValue
0.091

@<SCITEGIC>MOL_PROPERTY
Angle
SciTegic.value.DoubleValue
2.713

@<SCITEGIC>MOL_PROPERTY
Pdih
SciTegic.value.DoubleValue
3.529

@<SCITEGIC>MOL_PROPERTY
Idih
SciTegic.value.DoubleValue
0.000

@<SCITEGIC>MOL_PROPERTY
Tether
SciTegic.value.DoubleValue
0.000

@<TRIPOS>MOLECULE
guest-6_confgen4.mol2 : confsearch ligand conformer 694
          13          12           1
SMALL
USER_CHARGES
 
@<TRIPOS>ATOM
       1    C1      21.276039   20.537137   21.082257 C.2        1 MOL1         0.6021
       2    O1      20.863484   21.167250   20.129305 O.co2      1 MOL1        -0.6904
       3    O2      22.455760   20.405235   21.339592 O.co2      1 MOL1        -0.6904
       4    C2      20.258707   19.859434   21.993988 C.3        1 MOL1        -0.2102
       5    H1      19.353089   20.477873   22.014187 H          1 MOL1         0.0687
       6    H2      20.666171   19.849490   23.012268 H          1 MOL1         0.0687
       7    C3      19.910456   18.419471   21.545574 C.3        1 MOL1        -0.1974
       8    H3      19.512765   18.440687   20.521264 H          1 MOL1         0.0689
       9    H4      20.826060   17.812166   21.519657 H          1 MOL1         0.0689
      10    C4      18.880717   17.762722   22.486642 C.3        1 MOL1        -0.2987
      11    H5      18.646708   16.743387   22.152788 H          1 MOL1         0.0700
      12    H6      19.268045   17.702982   23.512295 H          1 MOL1         0.0700
      13    H7      17.944674   18.336304   22.506205 H          1 MOL1         0.0700
@<TRIPOS>BOND
    1     1     2    1
    2     1     3    2
    3     1     4    1
    4     4     5    1
    5     4     6    1
    6     4     7    1
    7     7     8    1
    8     7     9    1
    9     7    10    1
   10    10    11    1
   11    10    12    1
   12    10    13    1
@<TRIPOS>SUBSTRUCTURE
       1 MOL1            1 RESIDUE      1      MOL     
@<SCITEGIC>MOL_PROPERTY
VConf Rank
SciTegic.value.IntegerValue
694

@<SCITEGIC>MOL_PROPERTY
Conf_Id
SciTegic.value.IntegerValue
1

@<SCITEGIC>MOL_PROPERTY
Delta U+W
SciTegic.value.DoubleValue
-1.339

@<SCITEGIC>MOL_PROPERTY
U+W
SciTegic.value.DoubleValue
-59.672

@<SCITEGIC>MOL_PROPERTY
Grad RMS
SciTegic.value.DoubleValue
0.000000

@<SCITEGIC>MOL_PROPERTY
U
SciTegic.value.DoubleValue
7.389

@<SCITEGIC>MOL_PROPERTY
W
SciTegic.value.DoubleValue
-67.061

@<SCITEGIC>MOL_PROPERTY
W(PB)
SciTegic.value.DoubleValue
-68.767

@<SCITEGIC>MOL_PROPERTY
W(SA)
SciTegic.value.DoubleValue
1.707

@<SCITEGIC>MOL_PROPERTY
Valence
SciTegic.value.DoubleValue
5.822

@<SCITEGIC>MOL_PROPERTY
Coulomb
SciTegic.value.DoubleValue
1.255

@<SCITEGIC>MOL_PROPERTY
VdW
SciTegic.value.DoubleValue
0.312

@<SCITEGIC>MOL_PROPERTY
VdW6
SciTegic.value.DoubleValue
-3.061

@<SCITEGIC>MOL_PROPERTY
VdW12
SciTegic.value.DoubleValue
3.372

@<SCITEGIC>MOL_PROPERTY
Bond
SciTegic.value.DoubleValue
0.059

@<SCITEGIC>MOL_PROPERTY
Angle
SciTegic.value.DoubleValue
2.241

@<SCITEGIC>MOL_PROPERTY
Pdih
SciTegic.value.DoubleValue
3.522

@<SCITEGIC>MOL_PROPERTY
Idih
SciTegic.value.DoubleValue
0.000

@<SCITEGIC>MOL_PROPERTY
Tether
SciTegic.value.DoubleValue
0.000

@<TRIPOS>MOLECULE
guest-6_confgen4.mol2 : confsearch ligand conformer 695
          13          12           1
SMALL
USER_CHARGES
 
@<TRIPOS>ATOM
       1    C1      19.027256   17.590548   21.667376 C.2        1 MOL1         0.6021
       2    O1      19.211050   17.000474   20.621369 O.co2      1 MOL1        -0.6904
       3    O2      18.748225   17.033475   22.710312 O.co2      1 MOL1        -0.6904
       4    C2      19.117037   19.114560   21.660052 C.3        1 MOL1        -0.2102
       5    H1      18.624405   19.499954   22.561202 H          1 MOL1         0.0687
       6    H2      18.534113   19.472365   20.802986 H          1 MOL1         0.0687
       7    C3      20.563356   19.664633   21.565590 C.3        1 MOL1        -0.1974
       8    H3      21.061247   19.240227   20.682467 H          1 MOL1         0.0689
       9    H4      20.525652   20.752115   21.414476 H          1 MOL1         0.0689
      10    C4      21.394545   19.359993   22.829017 C.3        1 MOL1        -0.2987
      11    H5      21.490685   18.277529   22.986676 H          1 MOL1         0.0700
      12    H6      22.404942   19.779357   22.737762 H          1 MOL1         0.0700
      13    H7      20.925670   19.794779   23.721490 H          1 MOL1         0.0700
@<TRIPOS>BOND
    1     1     2    1
    2     1     3    2
    3     1     4    1
    4     4     5    1
    5     4     6    1
    6     4     7    1
    7     7     8    1
    8     7     9    1
    9     7    10    1
   10    10    11    1
   11    10    12    1
   12    10    13    1
@<TRIPOS>SUBSTRUCTURE
       1 MOL1            1 RESIDUE      1      MOL     
@<SCITEGIC>MOL_PROPERTY
VConf Rank
SciTegic.value.IntegerValue
695

@<SCITEGIC>MOL_PROPERTY
Conf_Id
SciTegic.value.IntegerValue
4

@<SCITEGIC>MOL_PROPERTY
Delta U+W
SciTegic.value.DoubleValue
0.281

@<SCITEGIC>MOL_PROPERTY
U+W
SciTegic.value.DoubleValue
-58.051

@<SCITEGIC>MOL_PROPERTY
Grad RMS
SciTegic.value.DoubleValue
0.000000

@<SCITEGIC>MOL_PROPERTY
U
SciTegic.value.DoubleValue
9.781

@<SCITEGIC>MOL_PROPERTY
W
SciTegic.value.DoubleValue
-67.832

@<SCITEGIC>MOL_PROPERTY
W(PB)
SciTegic.value.DoubleValue
-69.535

@<SCITEGIC>MOL_PROPERTY
W(SA)
SciTegic.value.DoubleValue
1.703

@<SCITEGIC>MOL_PROPERTY
Valence
SciTegic.value.DoubleValue
6.123

@<SCITEGIC>MOL_PROPERTY
Coulomb
SciTegic.value.DoubleValue
3.449

@<SCITEGIC>MOL_PROPERTY
VdW
SciTegic.value.DoubleValue
0.209

@<SCITEGIC>MOL_PROPERTY
VdW6
SciTegic.value.DoubleValue
-3.762

@<SCITEGIC>MOL_PROPERTY
VdW12
SciTegic.value.DoubleValue
3.972

@<SCITEGIC>MOL_PROPERTY
Bond
SciTegic.value.DoubleValue
0.078

@<SCITEGIC>MOL_PROPERTY
Angle
SciTegic.value.DoubleValue
2.428

@<SCITEGIC>MOL_PROPERTY
Pdih
SciTegic.value.DoubleValue
3.616

@<SCITEGIC>MOL_PROPERTY
Idih
SciTegic.value.DoubleValue
0.002

@<SCITEGIC>MOL_PROPERTY
Tether
SciTegic.value.DoubleValue
0.000

@<TRIPOS>MOLECULE
guest-6_confgen4.mol2 : confsearch ligand conformer 696
          13          12           1
SMALL
USER_CHARGES
 
@<TRIPOS>ATOM
       1    C1      19.606021   20.581887   21.409452 C.2        1 MOL1         0.6021
       2    O1      18.465738   20.522165   20.994609 O.co2      1 MOL1        -0.6904
       3    O2      20.047709   21.535514   22.019045 O.co2      1 MOL1        -0.6904
       4    C2      20.545721   19.414048   21.119905 C.3        1 MOL1        -0.2102
       5    H1      21.480826   19.835206   20.731843 H          1 MOL1         0.0687
       6    H2      20.113846   18.806692   20.314988 H          1 MOL1         0.0687
       7    C3      20.852856   18.525888   22.352859 C.3        1 MOL1        -0.1974
       8    H3      21.645211   17.810737   22.092846 H          1 MOL1         0.0689
       9    H4      21.246085   19.150497   23.167203 H          1 MOL1         0.0689
      10    C4      19.613989   17.748753   22.843977 C.3        1 MOL1        -0.2987
      11    H5      19.217732   17.100544   22.051388 H          1 MOL1         0.0700
      12    H6      19.869987   17.116111   23.703817 H          1 MOL1         0.0700
      13    H7      18.815289   18.435132   23.155085 H          1 MOL1         0.0700
@<TRIPOS>BOND
    1     1     2    1
    2     1     3    2
    3     1     4    1
    4     4     5    1
    5     4     6    1
    6     4     7    1
    7     7     8    1
    8     7     9    1
    9     7    10    1
   10    10    11    1
   11    10    12    1
   12    10    13    1
@<TRIPOS>SUBSTRUCTURE
       1 MOL1            1 RESIDUE      1      MOL     
@<SCITEGIC>MOL_PROPERTY
VConf Rank
SciTegic.value.IntegerValue
696

@<SCITEGIC>MOL_PROPERTY
Conf_Id
SciTegic.value.IntegerValue
36

@<SCITEGIC>MOL_PROPERTY
Delta U+W
SciTegic.value.DoubleValue
0.272

@<SCITEGIC>MOL_PROPERTY
U+W
SciTegic.value.DoubleValue
-58.060

@<SCITEGIC>MOL_PROPERTY
Grad RMS
SciTegic.value.DoubleValue
0.000000

@<SCITEGIC>MOL_PROPERTY
U
SciTegic.value.DoubleValue
9.781

@<SCITEGIC>MOL_PROPERTY
W
SciTegic.value.DoubleValue
-67.841

@<SCITEGIC>MOL_PROPERTY
W(PB)
SciTegic.value.DoubleValue
-69.537

@<SCITEGIC>MOL_PROPERTY
W(SA)
SciTegic.value.DoubleValue
1.696

@<SCITEGIC>MOL_PROPERTY
Valence
SciTegic.value.DoubleValue
6.123

@<SCITEGIC>MOL_PROPERTY
Coulomb
SciTegic.value.DoubleValue
3.449

@<SCITEGIC>MOL_PROPERTY
VdW
SciTegic.value.DoubleValue
0.209

@<SCITEGIC>MOL_PROPERTY
VdW6
SciTegic.value.DoubleValue
-3.762

@<SCITEGIC>MOL_PROPERTY
VdW12
SciTegic.value.DoubleValue
3.972

@<SCITEGIC>MOL_PROPERTY
Bond
SciTegic.value.DoubleValue
0.078

@<SCITEGIC>MOL_PROPERTY
Angle
SciTegic.value.DoubleValue
2.428

@<SCITEGIC>MOL_PROPERTY
Pdih
SciTegic.value.DoubleValue
3.616

@<SCITEGIC>MOL_PROPERTY
Idih
SciTegic.value.DoubleValue
0.002

@<SCITEGIC>MOL_PROPERTY
Tether
SciTegic.value.DoubleValue
0.000

@<TRIPOS>MOLECULE
guest-6_confgen4.mol2 : confsearch ligand conformer 697
          13          12           1
SMALL
USER_CHARGES
 
@<TRIPOS>ATOM
       1    C1      20.267047   17.154257   20.782400 C.2        1 MOL1         0.6021
       2    O1      20.100537   17.528107   19.637917 O.co2      1 MOL1        -0.6904
       3    O2      20.501068   15.998641   21.073231 O.co2      1 MOL1        -0.6904
       4    C2      20.184009   18.161199   21.931249 C.3        1 MOL1        -0.2102
       5    H1      21.136864   18.120398   22.472304 H          1 MOL1         0.0687
       6    H2      19.408558   17.807877   22.621304 H          1 MOL1         0.0687
       7    C3      19.883367   19.624068   21.512219 C.3        1 MOL1        -0.1974
       8    H3      20.660005   19.975221   20.818476 H          1 MOL1         0.0689
       9    H4      18.929601   19.662307   20.967588 H          1 MOL1         0.0689
      10    C4      19.818531   20.564203   22.732783 C.3        1 MOL1        -0.2987
      11    H5      20.771987   20.567574   23.277239 H          1 MOL1         0.0700
      12    H6      19.605100   21.593688   22.416770 H          1 MOL1         0.0700
      13    H7      19.027716   20.252104   23.427570 H          1 MOL1         0.0700
@<TRIPOS>BOND
    1     1     2    1
    2     1     3    2
    3     1     4    1
    4     4     5    1
    5     4     6    1
    6     4     7    1
    7     7     8    1
    8     7     9    1
    9     7    10    1
   10    10    11    1
   11    10    12    1
   12    10    13    1
@<TRIPOS>SUBSTRUCTURE
       1 MOL1            1 RESIDUE      1      MOL     
@<SCITEGIC>MOL_PROPERTY
VConf Rank
SciTegic.value.IntegerValue
697

@<SCITEGIC>MOL_PROPERTY
Conf_Id
SciTegic.value.IntegerValue
0

@<SCITEGIC>MOL_PROPERTY
Delta U+W
SciTegic.value.DoubleValue
0.000

@<SCITEGIC>MOL_PROPERTY
U+W
SciTegic.value.DoubleValue
-58.332

@<SCITEGIC>MOL_PROPERTY
Grad RMS
SciTegic.value.DoubleValue
0.000000

@<SCITEGIC>MOL_PROPERTY
U
SciTegic.value.DoubleValue
8.390

@<SCITEGIC>MOL_PROPERTY
W
SciTegic.value.DoubleValue
-66.722

@<SCITEGIC>MOL_PROPERTY
W(PB)
SciTegic.value.DoubleValue
-68.455

@<SCITEGIC>MOL_PROPERTY
W(SA)
SciTegic.value.DoubleValue
1.733

@<SCITEGIC>MOL_PROPERTY
Valence
SciTegic.value.DoubleValue
6.333

@<SCITEGIC>MOL_PROPERTY
Coulomb
SciTegic.value.DoubleValue
1.215

@<SCITEGIC>MOL_PROPERTY
VdW
SciTegic.value.DoubleValue
0.842

@<SCITEGIC>MOL_PROPERTY
VdW6
SciTegic.value.DoubleValue
-3.344

@<SCITEGIC>MOL_PROPERTY
VdW12
SciTegic.value.DoubleValue
4.186

@<SCITEGIC>MOL_PROPERTY
Bond
SciTegic.value.DoubleValue
0.091

@<SCITEGIC>MOL_PROPERTY
Angle
SciTegic.value.DoubleValue
2.713

@<SCITEGIC>MOL_PROPERTY
Pdih
SciTegic.value.DoubleValue
3.529

@<SCITEGIC>MOL_PROPERTY
Idih
SciTegic.value.DoubleValue
0.000

@<SCITEGIC>MOL_PROPERTY
Tether
SciTegic.value.DoubleValue
0.000

@<TRIPOS>MOLECULE
guest-6_confgen4.mol2 : confsearch ligand conformer 698
          13          12           1
SMALL
USER_CHARGES
 
@<TRIPOS>ATOM
       1    C1      20.685831   20.499566   23.189801 C.2        1 MOL1         0.6021
       2    O1      21.229226   20.080462   24.192016 O.co2      1 MOL1        -0.6904
       3    O2      20.154475   21.589620   23.120496 O.co2      1 MOL1        -0.6904
       4    C2      20.652473   19.601213   21.957994 C.3        1 MOL1        -0.2102
       5    H1      21.567668   18.996735   21.951412 H          1 MOL1         0.0687
       6    H2      20.681385   20.241282   21.067772 H          1 MOL1         0.0687
       7    C3      19.407266   18.682884   21.913506 C.3        1 MOL1        -0.1974
       8    H3      19.383485   18.053779   22.814330 H          1 MOL1         0.0689
       9    H4      18.497055   19.298558   21.930393 H          1 MOL1         0.0689
      10    C4      19.403309   17.788301   20.657721 C.3        1 MOL1        -0.2987
      11    H5      18.513744   17.145072   20.643949 H          1 MOL1         0.0700
      12    H6      19.396777   18.395505   19.742944 H          1 MOL1         0.0700
      13    H7      20.289982   17.141160   20.633690 H          1 MOL1         0.0700
@<TRIPOS>BOND
    1     1     2    1
    2     1     3    2
    3     1     4    1
    4     4     5    1
    5     4     6    1
    6     4     7    1
    7     7     8    1
    8     7     9    1
    9     7    10    1
   10    10    11    1
   11    10    12    1
   12    10    13    1
@<TRIPOS>SUBSTRUCTURE
       1 MOL1            1 RESIDUE      1      MOL     
@<SCITEGIC>MOL_PROPERTY
VConf Rank
SciTegic.value.IntegerValue
698

@<SCITEGIC>MOL_PROPERTY
Conf_Id
SciTegic.value.IntegerValue
1

@<SCITEGIC>MOL_PROPERTY
Delta U+W
SciTegic.value.DoubleValue
-1.339

@<SCITEGIC>MOL_PROPERTY
U+W
SciTegic.value.DoubleValue
-59.672

@<SCITEGIC>MOL_PROPERTY
Grad RMS
SciTegic.value.DoubleValue
0.000000

@<SCITEGIC>MOL_PROPERTY
U
SciTegic.value.DoubleValue
7.389

@<SCITEGIC>MOL_PROPERTY
W
SciTegic.value.DoubleValue
-67.061

@<SCITEGIC>MOL_PROPERTY
W(PB)
SciTegic.value.DoubleValue
-68.767

@<SCITEGIC>MOL_PROPERTY
W(SA)
SciTegic.value.DoubleValue
1.707

@<SCITEGIC>MOL_PROPERTY
Valence
SciTegic.value.DoubleValue
5.822

@<SCITEGIC>MOL_PROPERTY
Coulomb
SciTegic.value.DoubleValue
1.255

@<SCITEGIC>MOL_PROPERTY
VdW
SciTegic.value.DoubleValue
0.312

@<SCITEGIC>MOL_PROPERTY
VdW6
SciTegic.value.DoubleValue
-3.061

@<SCITEGIC>MOL_PROPERTY
VdW12
SciTegic.value.DoubleValue
3.372

@<SCITEGIC>MOL_PROPERTY
Bond
SciTegic.value.DoubleValue
0.059

@<SCITEGIC>MOL_PROPERTY
Angle
SciTegic.value.DoubleValue
2.241

@<SCITEGIC>MOL_PROPERTY
Pdih
SciTegic.value.DoubleValue
3.522

@<SCITEGIC>MOL_PROPERTY
Idih
SciTegic.value.DoubleValue
0.000

@<SCITEGIC>MOL_PROPERTY
Tether
SciTegic.value.DoubleValue
0.000

@<TRIPOS>MOLECULE
guest-6_confgen4.mol2 : confsearch ligand conformer 699
          13          12           1
SMALL
USER_CHARGES
 
@<TRIPOS>ATOM
       1    C1      20.945898   20.556270   21.879944 C.2        1 MOL1         0.6021
       2    O1      20.895979   21.103771   20.796501 O.co2      1 MOL1        -0.6904
       3    O2      20.838760   21.148753   22.935118 O.co2      1 MOL1        -0.6904
       4    C2      21.192065   19.049987   21.915146 C.3        1 MOL1        -0.2102
       5    H1      21.524834   18.771731   22.922680 H          1 MOL1         0.0687
       6    H2      22.027104   18.839155   21.236437 H          1 MOL1         0.0687
       7    C3      19.965020   18.196621   21.503483 C.3        1 MOL1        -0.1974
       8    H3      19.614508   18.511565   20.510571 H          1 MOL1         0.0689
       9    H4      20.272060   17.145873   21.411135 H          1 MOL1         0.0689
      10    C4      18.808823   18.296249   22.519953 C.3        1 MOL1        -0.2987
      11    H5      18.445996   19.329181   22.605008 H          1 MOL1         0.0700
      12    H6      17.965267   17.666162   22.209309 H          1 MOL1         0.0700
      13    H7      19.131871   17.964692   23.515494 H          1 MOL1         0.0700
@<TRIPOS>BOND
    1     1     2    1
    2     1     3    2
    3     1     4    1
    4     4     5    1
    5     4     6    1
    6     4     7    1
    7     7     8    1
    8     7     9    1
    9     7    10    1
   10    10    11    1
   11    10    12    1
   12    10    13    1
@<TRIPOS>SUBSTRUCTURE
       1 MOL1            1 RESIDUE      1      MOL     
@<SCITEGIC>MOL_PROPERTY
VConf Rank
SciTegic.value.IntegerValue
699

@<SCITEGIC>MOL_PROPERTY
Conf_Id
SciTegic.value.IntegerValue
4

@<SCITEGIC>MOL_PROPERTY
Delta U+W
SciTegic.value.DoubleValue
0.281

@<SCITEGIC>MOL_PROPERTY
U+W
SciTegic.value.DoubleValue
-58.051

@<SCITEGIC>MOL_PROPERTY
Grad RMS
SciTegic.value.DoubleValue
0.000000

@<SCITEGIC>MOL_PROPERTY
U
SciTegic.value.DoubleValue
9.781

@<SCITEGIC>MOL_PROPERTY
W
SciTegic.value.DoubleValue
-67.832

@<SCITEGIC>MOL_PROPERTY
W(PB)
SciTegic.value.DoubleValue
-69.535

@<SCITEGIC>MOL_PROPERTY
W(SA)
SciTegic.value.DoubleValue
1.703

@<SCITEGIC>MOL_PROPERTY
Valence
SciTegic.value.DoubleValue
6.123

@<SCITEGIC>MOL_PROPERTY
Coulomb
SciTegic.value.DoubleValue
3.449

@<SCITEGIC>MOL_PROPERTY
VdW
SciTegic.value.DoubleValue
0.209

@<SCITEGIC>MOL_PROPERTY
VdW6
SciTegic.value.DoubleValue
-3.762

@<SCITEGIC>MOL_PROPERTY
VdW12
SciTegic.value.DoubleValue
3.972

@<SCITEGIC>MOL_PROPERTY
Bond
SciTegic.value.DoubleValue
0.078

@<SCITEGIC>MOL_PROPERTY
Angle
SciTegic.value.DoubleValue
2.428

@<SCITEGIC>MOL_PROPERTY
Pdih
SciTegic.value.DoubleValue
3.616

@<SCITEGIC>MOL_PROPERTY
Idih
SciTegic.value.DoubleValue
0.002

@<SCITEGIC>MOL_PROPERTY
Tether
SciTegic.value.DoubleValue
0.000

@<TRIPOS>MOLECULE
guest-6_confgen4.mol2 : confsearch ligand conformer 700
          13          12           1
SMALL
USER_CHARGES
 
@<TRIPOS>ATOM
       1    C1      19.892433   17.202120   21.791144 C.2        1 MOL1         0.6021
       2    O1      19.867218   16.665165   22.880616 O.co2      1 MOL1        -0.6904
       3    O2      19.193165   16.858493   20.858919 O.co2      1 MOL1        -0.6904
       4    C2      20.879086   18.345615   21.568304 C.3        1 MOL1        -0.2102
       5    H1      21.405308   18.144813   20.627477 H          1 MOL1         0.0687
       6    H2      21.633000   18.319498   22.364683 H          1 MOL1         0.0687
       7    C3      20.221041   19.747721   21.501864 C.3        1 MOL1        -0.1974
       8    H3      20.974417   20.484518   21.191338 H          1 MOL1         0.0689
       9    H4      19.439251   19.750783   20.729390 H          1 MOL1         0.0689
      10    C4      19.618968   20.182000   22.854209 C.3        1 MOL1        -0.2987
      11    H5      20.388854   20.207233   23.636532 H          1 MOL1         0.0700
      12    H6      19.179497   21.185052   22.777737 H          1 MOL1         0.0700
      13    H7      18.828772   19.490165   23.174806 H          1 MOL1         0.0700
@<TRIPOS>BOND
    1     1     2    1
    2     1     3    2
    3     1     4    1
    4     4     5    1
    5     4     6    1
    6     4     7    1
    7     7     8    1
    8     7     9    1
    9     7    10    1
   10    10    11    1
   11    10    12    1
   12    10    13    1
@<TRIPOS>SUBSTRUCTURE
       1 MOL1            1 RESIDUE      1      MOL     
@<SCITEGIC>MOL_PROPERTY
VConf Rank
SciTegic.value.IntegerValue
700

@<SCITEGIC>MOL_PROPERTY
Conf_Id
SciTegic.value.IntegerValue
36

@<SCITEGIC>MOL_PROPERTY
Delta U+W
SciTegic.value.DoubleValue
0.272

@<SCITEGIC>MOL_PROPERTY
U+W
SciTegic.value.DoubleValue
-58.060

@<SCITEGIC>MOL_PROPERTY
Grad RMS
SciTegic.value.DoubleValue
0.000000

@<SCITEGIC>MOL_PROPERTY
U
SciTegic.value.DoubleValue
9.781

@<SCITEGIC>MOL_PROPERTY
W
SciTegic.value.DoubleValue
-67.841

@<SCITEGIC>MOL_PROPERTY
W(PB)
SciTegic.value.DoubleValue
-69.537

@<SCITEGIC>MOL_PROPERTY
W(SA)
SciTegic.value.DoubleValue
1.696

@<SCITEGIC>MOL_PROPERTY
Valence
SciTegic.value.DoubleValue
6.123

@<SCITEGIC>MOL_PROPERTY
Coulomb
SciTegic.value.DoubleValue
3.449

@<SCITEGIC>MOL_PROPERTY
VdW
SciTegic.value.DoubleValue
0.209

@<SCITEGIC>MOL_PROPERTY
VdW6
SciTegic.value.DoubleValue
-3.762

@<SCITEGIC>MOL_PROPERTY
VdW12
SciTegic.value.DoubleValue
3.972

@<SCITEGIC>MOL_PROPERTY
Bond
SciTegic.value.DoubleValue
0.078

@<SCITEGIC>MOL_PROPERTY
Angle
SciTegic.value.DoubleValue
2.428

@<SCITEGIC>MOL_PROPERTY
Pdih
SciTegic.value.DoubleValue
3.616

@<SCITEGIC>MOL_PROPERTY
Idih
SciTegic.value.DoubleValue
0.002

@<SCITEGIC>MOL_PROPERTY
Tether
SciTegic.value.DoubleValue
0.000

@<TRIPOS>MOLECULE
guest-6_confgen4.mol2 : confsearch ligand conformer 701
          13          12           1
SMALL
USER_CHARGES
 
@<TRIPOS>ATOM
       1    C1      21.420894   17.429741   21.468036 C.2        1 MOL1         0.6021
       2    O1      22.394371   17.875822   22.043087 O.co2      1 MOL1        -0.6904
       3    O2      21.423468   16.357770   20.897363 O.co2      1 MOL1        -0.6904
       4    C2      20.118072   18.231459   21.443814 C.3        1 MOL1        -0.2102
       5    H1      19.335766   17.598739   21.879706 H          1 MOL1         0.0687
       6    H2      19.851408   18.391745   20.392369 H          1 MOL1         0.0687
       7    C3      20.162002   19.593255   22.185123 C.3        1 MOL1        -0.1974
       8    H3      20.432238   19.430682   23.237881 H          1 MOL1         0.0689
       9    H4      20.948572   20.224644   21.748763 H          1 MOL1         0.0689
      10    C4      18.808428   20.327855   22.107451 C.3        1 MOL1        -0.2987
      11    H5      18.009882   19.729712   22.565786 H          1 MOL1         0.0700
      12    H6      18.858946   21.288226   22.636973 H          1 MOL1         0.0700
      13    H7      18.530346   20.529996   21.064698 H          1 MOL1         0.0700
@<TRIPOS>BOND
    1     1     2    1
    2     1     3    2
    3     1     4    1
    4     4     5    1
    5     4     6    1
    6     4     7    1
    7     7     8    1
    8     7     9    1
    9     7    10    1
   10    10    11    1
   11    10    12    1
   12    10    13    1
@<TRIPOS>SUBSTRUCTURE
       1 MOL1            1 RESIDUE      1      MOL     
@<SCITEGIC>MOL_PROPERTY
VConf Rank
SciTegic.value.IntegerValue
701

@<SCITEGIC>MOL_PROPERTY
Conf_Id
SciTegic.value.IntegerValue
0

@<SCITEGIC>MOL_PROPERTY
Delta U+W
SciTegic.value.DoubleValue
0.000

@<SCITEGIC>MOL_PROPERTY
U+W
SciTegic.value.DoubleValue
-58.332

@<SCITEGIC>MOL_PROPERTY
Grad RMS
SciTegic.value.DoubleValue
0.000000

@<SCITEGIC>MOL_PROPERTY
U
SciTegic.value.DoubleValue
8.390

@<SCITEGIC>MOL_PROPERTY
W
SciTegic.value.DoubleValue
-66.722

@<SCITEGIC>MOL_PROPERTY
W(PB)
SciTegic.value.DoubleValue
-68.455

@<SCITEGIC>MOL_PROPERTY
W(SA)
SciTegic.value.DoubleValue
1.733

@<SCITEGIC>MOL_PROPERTY
Valence
SciTegic.value.DoubleValue
6.333

@<SCITEGIC>MOL_PROPERTY
Coulomb
SciTegic.value.DoubleValue
1.215

@<SCITEGIC>MOL_PROPERTY
VdW
SciTegic.value.DoubleValue
0.842

@<SCITEGIC>MOL_PROPERTY
VdW6
SciTegic.value.DoubleValue
-3.344

@<SCITEGIC>MOL_PROPERTY
VdW12
SciTegic.value.DoubleValue
4.186

@<SCITEGIC>MOL_PROPERTY
Bond
SciTegic.value.DoubleValue
0.091

@<SCITEGIC>MOL_PROPERTY
Angle
SciTegic.value.DoubleValue
2.713

@<SCITEGIC>MOL_PROPERTY
Pdih
SciTegic.value.DoubleValue
3.529

@<SCITEGIC>MOL_PROPERTY
Idih
SciTegic.value.DoubleValue
0.000

@<SCITEGIC>MOL_PROPERTY
Tether
SciTegic.value.DoubleValue
0.000

@<TRIPOS>MOLECULE
guest-6_confgen4.mol2 : confsearch ligand conformer 702
          13          12           1
SMALL
USER_CHARGES
 
@<TRIPOS>ATOM
       1    C1      21.739638   17.949914   22.289957 C.2        1 MOL1         0.6021
       2    O1      22.184953   17.255802   21.398181 O.co2      1 MOL1        -0.6904
       3    O2      21.945837   17.741926   23.468763 O.co2      1 MOL1        -0.6904
       4    C2      20.858757   19.135295   21.909933 C.3        1 MOL1        -0.2102
       5    H1      21.208654   19.525632   20.946487 H          1 MOL1         0.0687
       6    H2      21.011484   19.926527   22.654006 H          1 MOL1         0.0687
       7    C3      19.357438   18.768875   21.822609 C.3        1 MOL1        -0.1974
       8    H3      19.217887   17.969049   21.081916 H          1 MOL1         0.0689
       9    H4      19.020658   18.370146   22.789779 H          1 MOL1         0.0689
      10    C4      18.494824   19.987225   21.436849 C.3        1 MOL1        -0.2987
      11    H5      17.434615   19.707964   21.380017 H          1 MOL1         0.0700
      12    H6      18.594604   20.789996   22.179250 H          1 MOL1         0.0700
      13    H7      18.793325   20.385786   20.458277 H          1 MOL1         0.0700
@<TRIPOS>BOND
    1     1     2    1
    2     1     3    2
    3     1     4    1
    4     4     5    1
    5     4     6    1
    6     4     7    1
    7     7     8    1
    8     7     9    1
    9     7    10    1
   10    10    11    1
   11    10    12    1
   12    10    13    1
@<TRIPOS>SUBSTRUCTURE
       1 MOL1            1 RESIDUE      1      MOL     
@<SCITEGIC>MOL_PROPERTY
VConf Rank
SciTegic.value.IntegerValue
702

@<SCITEGIC>MOL_PROPERTY
Conf_Id
SciTegic.value.IntegerValue
1

@<SCITEGIC>MOL_PROPERTY
Delta U+W
SciTegic.value.DoubleValue
-1.339

@<SCITEGIC>MOL_PROPERTY
U+W
SciTegic.value.DoubleValue
-59.672

@<SCITEGIC>MOL_PROPERTY
Grad RMS
SciTegic.value.DoubleValue
0.000000

@<SCITEGIC>MOL_PROPERTY
U
SciTegic.value.DoubleValue
7.389

@<SCITEGIC>MOL_PROPERTY
W
SciTegic.value.DoubleValue
-67.061

@<SCITEGIC>MOL_PROPERTY
W(PB)
SciTegic.value.DoubleValue
-68.767

@<SCITEGIC>MOL_PROPERTY
W(SA)
SciTegic.value.DoubleValue
1.707

@<SCITEGIC>MOL_PROPERTY
Valence
SciTegic.value.DoubleValue
5.822

@<SCITEGIC>MOL_PROPERTY
Coulomb
SciTegic.value.DoubleValue
1.255

@<SCITEGIC>MOL_PROPERTY
VdW
SciTegic.value.DoubleValue
0.312

@<SCITEGIC>MOL_PROPERTY
VdW6
SciTegic.value.DoubleValue
-3.061

@<SCITEGIC>MOL_PROPERTY
VdW12
SciTegic.value.DoubleValue
3.372

@<SCITEGIC>MOL_PROPERTY
Bond
SciTegic.value.DoubleValue
0.059

@<SCITEGIC>MOL_PROPERTY
Angle
SciTegic.value.DoubleValue
2.241

@<SCITEGIC>MOL_PROPERTY
Pdih
SciTegic.value.DoubleValue
3.522

@<SCITEGIC>MOL_PROPERTY
Idih
SciTegic.value.DoubleValue
0.000

@<SCITEGIC>MOL_PROPERTY
Tether
SciTegic.value.DoubleValue
0.000

@<TRIPOS>MOLECULE
guest-6_confgen4.mol2 : confsearch ligand conformer 703
          13          12           1
SMALL
USER_CHARGES
 
@<TRIPOS>ATOM
       1    C1      18.593872   18.039591   21.931630 C.2        1 MOL1         0.6021
       2    O1      18.548756   17.141987   21.114091 O.co2      1 MOL1        -0.6904
       3    O2      18.122194   17.952945   23.047837 O.co2      1 MOL1        -0.6904
       4    C2      19.246412   19.356888   21.519745 C.3        1 MOL1        -0.2102
       5    H1      18.929258   20.140019   22.219320 H          1 MOL1         0.0687
       6    H2      18.843247   19.628242   20.536785 H          1 MOL1         0.0687
       7    C3      20.793929   19.302462   21.445115 C.3        1 MOL1        -0.1974
       8    H3      21.101308   18.488193   20.773992 H          1 MOL1         0.0689
       9    H4      21.165825   20.235526   21.000192 H          1 MOL1         0.0689
      10    C4      21.445386   19.110018   22.830214 C.3        1 MOL1        -0.2987
      11    H5      21.129540   18.162558   23.286709 H          1 MOL1         0.0700
      12    H6      22.539700   19.095642   22.744385 H          1 MOL1         0.0700
      13    H7      21.168758   19.925937   23.510762 H          1 MOL1         0.0700
@<TRIPOS>BOND
    1     1     2    1
    2     1     3    2
    3     1     4    1
    4     4     5    1
    5     4     6    1
    6     4     7    1
    7     7     8    1
    8     7     9    1
    9     7    10    1
   10    10    11    1
   11    10    12    1
   12    10    13    1
@<TRIPOS>SUBSTRUCTURE
       1 MOL1            1 RESIDUE      1      MOL     
@<SCITEGIC>MOL_PROPERTY
VConf Rank
SciTegic.value.IntegerValue
703

@<SCITEGIC>MOL_PROPERTY
Conf_Id
SciTegic.value.IntegerValue
4

@<SCITEGIC>MOL_PROPERTY
Delta U+W
SciTegic.value.DoubleValue
0.281

@<SCITEGIC>MOL_PROPERTY
U+W
SciTegic.value.DoubleValue
-58.051

@<SCITEGIC>MOL_PROPERTY
Grad RMS
SciTegic.value.DoubleValue
0.000000

@<SCITEGIC>MOL_PROPERTY
U
SciTegic.value.DoubleValue
9.781

@<SCITEGIC>MOL_PROPERTY
W
SciTegic.value.DoubleValue
-67.832

@<SCITEGIC>MOL_PROPERTY
W(PB)
SciTegic.value.DoubleValue
-69.535

@<SCITEGIC>MOL_PROPERTY
W(SA)
SciTegic.value.DoubleValue
1.703

@<SCITEGIC>MOL_PROPERTY
Valence
SciTegic.value.DoubleValue
6.123

@<SCITEGIC>MOL_PROPERTY
Coulomb
SciTegic.value.DoubleValue
3.449

@<SCITEGIC>MOL_PROPERTY
VdW
SciTegic.value.DoubleValue
0.209

@<SCITEGIC>MOL_PROPERTY
VdW6
SciTegic.value.DoubleValue
-3.762

@<SCITEGIC>MOL_PROPERTY
VdW12
SciTegic.value.DoubleValue
3.972

@<SCITEGIC>MOL_PROPERTY
Bond
SciTegic.value.DoubleValue
0.078

@<SCITEGIC>MOL_PROPERTY
Angle
SciTegic.value.DoubleValue
2.428

@<SCITEGIC>MOL_PROPERTY
Pdih
SciTegic.value.DoubleValue
3.616

@<SCITEGIC>MOL_PROPERTY
Idih
SciTegic.value.DoubleValue
0.002

@<SCITEGIC>MOL_PROPERTY
Tether
SciTegic.value.DoubleValue
0.000

@<TRIPOS>MOLECULE
guest-6_confgen4.mol2 : confsearch ligand conformer 704
          13          12           1
SMALL
USER_CHARGES
 
@<TRIPOS>ATOM
       1    C1      19.321953   20.572220   21.926231 C.2        1 MOL1         0.6021
       2    O1      18.864331   20.848311   23.017222 O.co2      1 MOL1        -0.6904
       3    O2      19.835759   21.390029   21.189149 O.co2      1 MOL1        -0.6904
       4    C2      19.214973   19.129579   21.438310 C.3        1 MOL1        -0.2102
       5    H1      18.824268   19.158876   20.414162 H          1 MOL1         0.0687
       6    H2      18.467369   18.607024   22.047663 H          1 MOL1         0.0687
       7    C3      20.556259   18.352428   21.456373 C.3        1 MOL1        -0.1974
       8    H3      20.418795   17.385551   20.953259 H          1 MOL1         0.0689
       9    H4      21.309400   18.905284   20.877538 H          1 MOL1         0.0689
      10    C4      21.076685   18.106205   22.887616 C.3        1 MOL1        -0.2987
      11    H5      20.347744   17.535083   23.477410 H          1 MOL1         0.0700
      12    H6      22.015569   17.537787   22.865401 H          1 MOL1         0.0700
      13    H7      21.267907   19.054798   23.406685 H          1 MOL1         0.0700
@<TRIPOS>BOND
    1     1     2    1
    2     1     3    2
    3     1     4    1
    4     4     5    1
    5     4     6    1
    6     4     7    1
    7     7     8    1
    8     7     9    1
    9     7    10    1
   10    10    11    1
   11    10    12    1
   12    10    13    1
@<TRIPOS>SUBSTRUCTURE
       1 MOL1            1 RESIDUE      1      MOL     
@<SCITEGIC>MOL_PROPERTY
VConf Rank
SciTegic.value.IntegerValue
704

@<SCITEGIC>MOL_PROPERTY
Conf_Id
SciTegic.value.IntegerValue
36

@<SCITEGIC>MOL_PROPERTY
Delta U+W
SciTegic.value.DoubleValue
0.272

@<SCITEGIC>MOL_PROPERTY
U+W
SciTegic.value.DoubleValue
-58.060

@<SCITEGIC>MOL_PROPERTY
Grad RMS
SciTegic.value.DoubleValue
0.000000

@<SCITEGIC>MOL_PROPERTY
U
SciTegic.value.DoubleValue
9.781

@<SCITEGIC>MOL_PROPERTY
W
SciTegic.value.DoubleValue
-67.841

@<SCITEGIC>MOL_PROPERTY
W(PB)
SciTegic.value.DoubleValue
-69.537

@<SCITEGIC>MOL_PROPERTY
W(SA)
SciTegic.value.DoubleValue
1.696

@<SCITEGIC>MOL_PROPERTY
Valence
SciTegic.value.DoubleValue
6.123

@<SCITEGIC>MOL_PROPERTY
Coulomb
SciTegic.value.DoubleValue
3.449

@<SCITEGIC>MOL_PROPERTY
VdW
SciTegic.value.DoubleValue
0.209

@<SCITEGIC>MOL_PROPERTY
VdW6
SciTegic.value.DoubleValue
-3.762

@<SCITEGIC>MOL_PROPERTY
VdW12
SciTegic.value.DoubleValue
3.972

@<SCITEGIC>MOL_PROPERTY
Bond
SciTegic.value.DoubleValue
0.078

@<SCITEGIC>MOL_PROPERTY
Angle
SciTegic.value.DoubleValue
2.428

@<SCITEGIC>MOL_PROPERTY
Pdih
SciTegic.value.DoubleValue
3.616

@<SCITEGIC>MOL_PROPERTY
Idih
SciTegic.value.DoubleValue
0.002

@<SCITEGIC>MOL_PROPERTY
Tether
SciTegic.value.DoubleValue
0.000

@<TRIPOS>MOLECULE
guest-6_confgen4.mol2 : confsearch ligand conformer 705
          13          12           1
SMALL
USER_CHARGES
 
@<TRIPOS>ATOM
       1    C1      18.283972   19.961661   21.045435 C.2        1 MOL1         0.6021
       2    O1      18.005384   20.687558   21.979668 O.co2      1 MOL1        -0.6904
       3    O2      17.633635   19.923740   20.020535 O.co2      1 MOL1        -0.6904
       4    C2      19.503252   19.041783   21.134115 C.3        1 MOL1        -0.2102
       5    H1      20.160310   19.286369   20.291031 H          1 MOL1         0.0687
       6    H2      19.151200   18.015072   20.978357 H          1 MOL1         0.0687
       7    C3      20.302816   19.124346   22.460704 C.3        1 MOL1        -0.1974
       8    H3      20.652213   20.154614   22.616346 H          1 MOL1         0.0689
       9    H4      19.641839   18.881826   23.304534 H          1 MOL1         0.0689
      10    C4      21.510022   18.164928   22.458675 C.3        1 MOL1        -0.2987
      11    H5      22.202690   18.406695   21.641801 H          1 MOL1         0.0700
      12    H6      22.062863   18.237362   23.404390 H          1 MOL1         0.0700
      13    H7      21.184193   17.123690   22.335460 H          1 MOL1         0.0700
@<TRIPOS>BOND
    1     1     2    1
    2     1     3    2
    3     1     4    1
    4     4     5    1
    5     4     6    1
    6     4     7    1
    7     7     8    1
    8     7     9    1
    9     7    10    1
   10    10    11    1
   11    10    12    1
   12    10    13    1
@<TRIPOS>SUBSTRUCTURE
       1 MOL1            1 RESIDUE      1      MOL     
@<SCITEGIC>MOL_PROPERTY
VConf Rank
SciTegic.value.IntegerValue
705

@<SCITEGIC>MOL_PROPERTY
Conf_Id
SciTegic.value.IntegerValue
0

@<SCITEGIC>MOL_PROPERTY
Delta U+W
SciTegic.value.DoubleValue
0.000

@<SCITEGIC>MOL_PROPERTY
U+W
SciTegic.value.DoubleValue
-58.332

@<SCITEGIC>MOL_PROPERTY
Grad RMS
SciTegic.value.DoubleValue
0.000000

@<SCITEGIC>MOL_PROPERTY
U
SciTegic.value.DoubleValue
8.390

@<SCITEGIC>MOL_PROPERTY
W
SciTegic.value.DoubleValue
-66.722

@<SCITEGIC>MOL_PROPERTY
W(PB)
SciTegic.value.DoubleValue
-68.455

@<SCITEGIC>MOL_PROPERTY
W(SA)
SciTegic.value.DoubleValue
1.733

@<SCITEGIC>MOL_PROPERTY
Valence
SciTegic.value.DoubleValue
6.333

@<SCITEGIC>MOL_PROPERTY
Coulomb
SciTegic.value.DoubleValue
1.215

@<SCITEGIC>MOL_PROPERTY
VdW
SciTegic.value.DoubleValue
0.842

@<SCITEGIC>MOL_PROPERTY
VdW6
SciTegic.value.DoubleValue
-3.344

@<SCITEGIC>MOL_PROPERTY
VdW12
SciTegic.value.DoubleValue
4.186

@<SCITEGIC>MOL_PROPERTY
Bond
SciTegic.value.DoubleValue
0.091

@<SCITEGIC>MOL_PROPERTY
Angle
SciTegic.value.DoubleValue
2.713

@<SCITEGIC>MOL_PROPERTY
Pdih
SciTegic.value.DoubleValue
3.529

@<SCITEGIC>MOL_PROPERTY
Idih
SciTegic.value.DoubleValue
0.000

@<SCITEGIC>MOL_PROPERTY
Tether
SciTegic.value.DoubleValue
0.000

@<TRIPOS>MOLECULE
guest-6_confgen4.mol2 : confsearch ligand conformer 706
          13          12           1
SMALL
USER_CHARGES
 
@<TRIPOS>ATOM
       1    C1      19.945405   19.055889   23.943406 C.2        1 MOL1         0.6021
       2    O1      20.605791   19.919928   24.484413 O.co2      1 MOL1        -0.6904
       3    O2      19.642440   18.008717   24.479131 O.co2      1 MOL1        -0.6904
       4    C2      19.487982   19.290421   22.507698 C.3        1 MOL1        -0.2102
       5    H1      19.316274   20.365614   22.375426 H          1 MOL1         0.0687
       6    H2      18.521824   18.789529   22.371080 H          1 MOL1         0.0687
       7    C3      20.505363   18.780479   21.458534 C.3        1 MOL1        -0.1974
       8    H3      21.471535   19.281492   21.611243 H          1 MOL1         0.0689
       9    H4      20.676833   17.705103   21.606815 H          1 MOL1         0.0689
      10    C4      20.014128   19.032178   20.018873 C.3        1 MOL1        -0.2987
      11    H5      20.748016   18.664231   19.289980 H          1 MOL1         0.0700
      12    H6      19.063121   18.516039   19.832482 H          1 MOL1         0.0700
      13    H7      19.863962   20.104516   19.836943 H          1 MOL1         0.0700
@<TRIPOS>BOND
    1     1     2    1
    2     1     3    2
    3     1     4    1
    4     4     5    1
    5     4     6    1
    6     4     7    1
    7     7     8    1
    8     7     9    1
    9     7    10    1
   10    10    11    1
   11    10    12    1
   12    10    13    1
@<TRIPOS>SUBSTRUCTURE
       1 MOL1            1 RESIDUE      1      MOL     
@<SCITEGIC>MOL_PROPERTY
VConf Rank
SciTegic.value.IntegerValue
706

@<SCITEGIC>MOL_PROPERTY
Conf_Id
SciTegic.value.IntegerValue
1

@<SCITEGIC>MOL_PROPERTY
Delta U+W
SciTegic.value.DoubleValue
-1.339

@<SCITEGIC>MOL_PROPERTY
U+W
SciTegic.value.DoubleValue
-59.672

@<SCITEGIC>MOL_PROPERTY
Grad RMS
SciTegic.value.DoubleValue
0.000000

@<SCITEGIC>MOL_PROPERTY
U
SciTegic.value.DoubleValue
7.389

@<SCITEGIC>MOL_PROPERTY
W
SciTegic.value.DoubleValue
-67.061

@<SCITEGIC>MOL_PROPERTY
W(PB)
SciTegic.value.DoubleValue
-68.767

@<SCITEGIC>MOL_PROPERTY
W(SA)
SciTegic.value.DoubleValue
1.707

@<SCITEGIC>MOL_PROPERTY
Valence
SciTegic.value.DoubleValue
5.822

@<SCITEGIC>MOL_PROPERTY
Coulomb
SciTegic.value.DoubleValue
1.255

@<SCITEGIC>MOL_PROPERTY
VdW
SciTegic.value.DoubleValue
0.312

@<SCITEGIC>MOL_PROPERTY
VdW6
SciTegic.value.DoubleValue
-3.061

@<SCITEGIC>MOL_PROPERTY
VdW12
SciTegic.value.DoubleValue
3.372

@<SCITEGIC>MOL_PROPERTY
Bond
SciTegic.value.DoubleValue
0.059

@<SCITEGIC>MOL_PROPERTY
Angle
SciTegic.value.DoubleValue
2.241

@<SCITEGIC>MOL_PROPERTY
Pdih
SciTegic.value.DoubleValue
3.522

@<SCITEGIC>MOL_PROPERTY
Idih
SciTegic.value.DoubleValue
0.000

@<SCITEGIC>MOL_PROPERTY
Tether
SciTegic.value.DoubleValue
0.000

@<TRIPOS>MOLECULE
guest-6_confgen4.mol2 : confsearch ligand conformer 707
          13          12           1
SMALL
USER_CHARGES
 
@<TRIPOS>ATOM
       1    C1      21.857479   19.034957   21.543566 C.2        1 MOL1         0.6021
       2    O1      22.546096   19.806458   22.181289 O.co2      1 MOL1        -0.6904
       3    O2      22.231414   17.931637   21.198946 O.co2      1 MOL1        -0.6904
       4    C2      20.462742   19.492455   21.123887 C.3        1 MOL1        -0.2102
       5    H1      20.109814   18.844565   20.312118 H          1 MOL1         0.0687
       6    H2      20.561811   20.500567   20.704029 H          1 MOL1         0.0687
       7    C3      19.427896   19.514047   22.277996 C.3        1 MOL1        -0.1974
       8    H3      19.809598   20.132258   23.102642 H          1 MOL1         0.0689
       9    H4      18.504920   19.993921   21.924855 H          1 MOL1         0.0689
      10    C4      19.093806   18.100539   22.797906 C.3        1 MOL1        -0.2987
      11    H5      19.988030   17.606560   23.200617 H          1 MOL1         0.0700
      12    H6      18.345159   18.150037   23.599264 H          1 MOL1         0.0700
      13    H7      18.689420   17.472008   21.993659 H          1 MOL1         0.0700
@<TRIPOS>BOND
    1     1     2    1
    2     1     3    2
    3     1     4    1
    4     4     5    1
    5     4     6    1
    6     4     7    1
    7     7     8    1
    8     7     9    1
    9     7    10    1
   10    10    11    1
   11    10    12    1
   12    10    13    1
@<TRIPOS>SUBSTRUCTURE
       1 MOL1            1 RESIDUE      1      MOL     
@<SCITEGIC>MOL_PROPERTY
VConf Rank
SciTegic.value.IntegerValue
707

@<SCITEGIC>MOL_PROPERTY
Conf_Id
SciTegic.value.IntegerValue
4

@<SCITEGIC>MOL_PROPERTY
Delta U+W
SciTegic.value.DoubleValue
0.281

@<SCITEGIC>MOL_PROPERTY
U+W
SciTegic.value.DoubleValue
-58.051

@<SCITEGIC>MOL_PROPERTY
Grad RMS
SciTegic.value.DoubleValue
0.000000

@<SCITEGIC>MOL_PROPERTY
U
SciTegic.value.DoubleValue
9.781

@<SCITEGIC>MOL_PROPERTY
W
SciTegic.value.DoubleValue
-67.832

@<SCITEGIC>MOL_PROPERTY
W(PB)
SciTegic.value.DoubleValue
-69.535

@<SCITEGIC>MOL_PROPERTY
W(SA)
SciTegic.value.DoubleValue
1.703

@<SCITEGIC>MOL_PROPERTY
Valence
SciTegic.value.DoubleValue
6.123

@<SCITEGIC>MOL_PROPERTY
Coulomb
SciTegic.value.DoubleValue
3.449

@<SCITEGIC>MOL_PROPERTY
VdW
SciTegic.value.DoubleValue
0.209

@<SCITEGIC>MOL_PROPERTY
VdW6
SciTegic.value.DoubleValue
-3.762

@<SCITEGIC>MOL_PROPERTY
VdW12
SciTegic.value.DoubleValue
3.972

@<SCITEGIC>MOL_PROPERTY
Bond
SciTegic.value.DoubleValue
0.078

@<SCITEGIC>MOL_PROPERTY
Angle
SciTegic.value.DoubleValue
2.428

@<SCITEGIC>MOL_PROPERTY
Pdih
SciTegic.value.DoubleValue
3.616

@<SCITEGIC>MOL_PROPERTY
Idih
SciTegic.value.DoubleValue
0.002

@<SCITEGIC>MOL_PROPERTY
Tether
SciTegic.value.DoubleValue
0.000

@<TRIPOS>MOLECULE
guest-6_confgen4.mol2 : confsearch ligand conformer 708
          13          12           1
SMALL
USER_CHARGES
 
@<TRIPOS>ATOM
       1    C1      18.499172   18.589127   22.667457 C.2        1 MOL1         0.6021
       2    O1      18.124355   19.506792   23.369816 O.co2      1 MOL1        -0.6904
       3    O2      17.758014   17.952920   21.944945 O.co2      1 MOL1        -0.6904
       4    C2      19.971560   18.189147   22.720510 C.3        1 MOL1        -0.2102
       5    H1      20.010405   17.099809   22.839759 H          1 MOL1         0.0687
       6    H2      20.421233   18.622698   23.622238 H          1 MOL1         0.0687
       7    C3      20.786325   18.599957   21.467222 C.3        1 MOL1        -0.1974
       8    H3      21.784883   18.145275   21.522164 H          1 MOL1         0.0689
       9    H4      20.304241   18.195200   20.566285 H          1 MOL1         0.0689
      10    C4      20.935791   20.129745   21.335556 C.3        1 MOL1        -0.2987
      11    H5      21.435972   20.552460   22.216761 H          1 MOL1         0.0700
      12    H6      21.533182   20.385332   20.450743 H          1 MOL1         0.0700
      13    H7      19.955878   20.614713   21.233562 H          1 MOL1         0.0700
@<TRIPOS>BOND
    1     1     2    1
    2     1     3    2
    3     1     4    1
    4     4     5    1
    5     4     6    1
    6     4     7    1
    7     7     8    1
    8     7     9    1
    9     7    10    1
   10    10    11    1
   11    10    12    1
   12    10    13    1
@<TRIPOS>SUBSTRUCTURE
       1 MOL1            1 RESIDUE      1      MOL     
@<SCITEGIC>MOL_PROPERTY
VConf Rank
SciTegic.value.IntegerValue
708

@<SCITEGIC>MOL_PROPERTY
Conf_Id
SciTegic.value.IntegerValue
36

@<SCITEGIC>MOL_PROPERTY
Delta U+W
SciTegic.value.DoubleValue
0.272

@<SCITEGIC>MOL_PROPERTY
U+W
SciTegic.value.DoubleValue
-58.060

@<SCITEGIC>MOL_PROPERTY
Grad RMS
SciTegic.value.DoubleValue
0.000000

@<SCITEGIC>MOL_PROPERTY
U
SciTegic.value.DoubleValue
9.781

@<SCITEGIC>MOL_PROPERTY
W
SciTegic.value.DoubleValue
-67.841

@<SCITEGIC>MOL_PROPERTY
W(PB)
SciTegic.value.DoubleValue
-69.537

@<SCITEGIC>MOL_PROPERTY
W(SA)
SciTegic.value.DoubleValue
1.696

@<SCITEGIC>MOL_PROPERTY
Valence
SciTegic.value.DoubleValue
6.123

@<SCITEGIC>MOL_PROPERTY
Coulomb
SciTegic.value.DoubleValue
3.449

@<SCITEGIC>MOL_PROPERTY
VdW
SciTegic.value.DoubleValue
0.209

@<SCITEGIC>MOL_PROPERTY
VdW6
SciTegic.value.DoubleValue
-3.762

@<SCITEGIC>MOL_PROPERTY
VdW12
SciTegic.value.DoubleValue
3.972

@<SCITEGIC>MOL_PROPERTY
Bond
SciTegic.value.DoubleValue
0.078

@<SCITEGIC>MOL_PROPERTY
Angle
SciTegic.value.DoubleValue
2.428

@<SCITEGIC>MOL_PROPERTY
Pdih
SciTegic.value.DoubleValue
3.616

@<SCITEGIC>MOL_PROPERTY
Idih
SciTegic.value.DoubleValue
0.002

@<SCITEGIC>MOL_PROPERTY
Tether
SciTegic.value.DoubleValue
0.000

@<TRIPOS>MOLECULE
guest-6_confgen4.mol2 : confsearch ligand conformer 709
          13          12           1
SMALL
USER_CHARGES
 
@<TRIPOS>ATOM
       1    C1      21.747897   19.996346   22.582361 C.2        1 MOL1         0.6021
       2    O1      21.654339   19.716174   23.761378 O.co2      1 MOL1        -0.6904
       3    O2      22.649911   20.674161   22.133215 O.co2      1 MOL1        -0.6904
       4    C2      20.697039   19.487269   21.593817 C.3        1 MOL1        -0.2102
       5    H1      21.223195   18.908541   20.825330 H          1 MOL1         0.0687
       6    H2      20.264704   20.362967   21.095243 H          1 MOL1         0.0687
       7    C3      19.564797   18.626290   22.212447 C.3        1 MOL1        -0.1974
       8    H3      20.000360   17.750833   22.714059 H          1 MOL1         0.0689
       9    H4      19.040732   19.207026   22.984364 H          1 MOL1         0.0689
      10    C4      18.555675   18.159632   21.143926 C.3        1 MOL1        -0.2987
      11    H5      19.050098   17.549994   20.376196 H          1 MOL1         0.0700
      12    H6      17.762834   17.552519   21.600078 H          1 MOL1         0.0700
      13    H7      18.082809   19.017892   20.648639 H          1 MOL1         0.0700
@<TRIPOS>BOND
    1     1     2    1
    2     1     3    2
    3     1     4    1
    4     4     5    1
    5     4     6    1
    6     4     7    1
    7     7     8    1
    8     7     9    1
    9     7    10    1
   10    10    11    1
   11    10    12    1
   12    10    13    1
@<TRIPOS>SUBSTRUCTURE
       1 MOL1            1 RESIDUE      1      MOL     
@<SCITEGIC>MOL_PROPERTY
VConf Rank
SciTegic.value.IntegerValue
709

@<SCITEGIC>MOL_PROPERTY
Conf_Id
SciTegic.value.IntegerValue
0

@<SCITEGIC>MOL_PROPERTY
Delta U+W
SciTegic.value.DoubleValue
0.000

@<SCITEGIC>MOL_PROPERTY
U+W
SciTegic.value.DoubleValue
-58.332

@<SCITEGIC>MOL_PROPERTY
Grad RMS
SciTegic.value.DoubleValue
0.000000

@<SCITEGIC>MOL_PROPERTY
U
SciTegic.value.DoubleValue
8.390

@<SCITEGIC>MOL_PROPERTY
W
SciTegic.value.DoubleValue
-66.722

@<SCITEGIC>MOL_PROPERTY
W(PB)
SciTegic.value.DoubleValue
-68.455

@<SCITEGIC>MOL_PROPERTY
W(SA)
SciTegic.value.DoubleValue
1.733

@<SCITEGIC>MOL_PROPERTY
Valence
SciTegic.value.DoubleValue
6.333

@<SCITEGIC>MOL_PROPERTY
Coulomb
SciTegic.value.DoubleValue
1.215

@<SCITEGIC>MOL_PROPERTY
VdW
SciTegic.value.DoubleValue
0.842

@<SCITEGIC>MOL_PROPERTY
VdW6
SciTegic.value.DoubleValue
-3.344

@<SCITEGIC>MOL_PROPERTY
VdW12
SciTegic.value.DoubleValue
4.186

@<SCITEGIC>MOL_PROPERTY
Bond
SciTegic.value.DoubleValue
0.091

@<SCITEGIC>MOL_PROPERTY
Angle
SciTegic.value.DoubleValue
2.713

@<SCITEGIC>MOL_PROPERTY
Pdih
SciTegic.value.DoubleValue
3.529

@<SCITEGIC>MOL_PROPERTY
Idih
SciTegic.value.DoubleValue
0.000

@<SCITEGIC>MOL_PROPERTY
Tether
SciTegic.value.DoubleValue
0.000

@<TRIPOS>MOLECULE
guest-6_confgen4.mol2 : confsearch ligand conformer 710
          13          12           1
SMALL
USER_CHARGES
 
@<TRIPOS>ATOM
       1    C1      21.586748   19.104888   23.212060 C.2        1 MOL1         0.6021
       2    O1      21.276710   19.154848   24.385407 O.co2      1 MOL1        -0.6904
       3    O2      22.648612   19.507240   22.780879 O.co2      1 MOL1        -0.6904
       4    C2      20.581102   18.522910   22.224397 C.3        1 MOL1        -0.2102
       5    H1      20.008129   17.742834   22.740344 H          1 MOL1         0.0687
       6    H2      21.139486   18.033419   21.417165 H          1 MOL1         0.0687
       7    C3      19.623014   19.588494   21.639208 C.3        1 MOL1        -0.1974
       8    H3      19.076658   20.078766   22.457101 H          1 MOL1         0.0689
       9    H4      20.208214   20.369323   21.133571 H          1 MOL1         0.0689
      10    C4      18.619917   18.968941   20.645607 C.3        1 MOL1        -0.2987
      11    H5      17.949838   19.739120   20.241775 H          1 MOL1         0.0700
      12    H6      19.142250   18.498051   19.802407 H          1 MOL1         0.0700
      13    H7      18.001997   18.205302   21.136103 H          1 MOL1         0.0700
@<TRIPOS>BOND
    1     1     2    1
    2     1     3    2
    3     1     4    1
    4     4     5    1
    5     4     6    1
    6     4     7    1
    7     7     8    1
    8     7     9    1
    9     7    10    1
   10    10    11    1
   11    10    12    1
   12    10    13    1
@<TRIPOS>SUBSTRUCTURE
       1 MOL1            1 RESIDUE      1      MOL     
@<SCITEGIC>MOL_PROPERTY
VConf Rank
SciTegic.value.IntegerValue
710

@<SCITEGIC>MOL_PROPERTY
Conf_Id
SciTegic.value.IntegerValue
1

@<SCITEGIC>MOL_PROPERTY
Delta U+W
SciTegic.value.DoubleValue
-1.339

@<SCITEGIC>MOL_PROPERTY
U+W
SciTegic.value.DoubleValue
-59.672

@<SCITEGIC>MOL_PROPERTY
Grad RMS
SciTegic.value.DoubleValue
0.000000

@<SCITEGIC>MOL_PROPERTY
U
SciTegic.value.DoubleValue
7.389

@<SCITEGIC>MOL_PROPERTY
W
SciTegic.value.DoubleValue
-67.061

@<SCITEGIC>MOL_PROPERTY
W(PB)
SciTegic.value.DoubleValue
-68.767

@<SCITEGIC>MOL_PROPERTY
W(SA)
SciTegic.value.DoubleValue
1.707

@<SCITEGIC>MOL_PROPERTY
Valence
SciTegic.value.DoubleValue
5.822

@<SCITEGIC>MOL_PROPERTY
Coulomb
SciTegic.value.DoubleValue
1.255

@<SCITEGIC>MOL_PROPERTY
VdW
SciTegic.value.DoubleValue
0.312

@<SCITEGIC>MOL_PROPERTY
VdW6
SciTegic.value.DoubleValue
-3.061

@<SCITEGIC>MOL_PROPERTY
VdW12
SciTegic.value.DoubleValue
3.372

@<SCITEGIC>MOL_PROPERTY
Bond
SciTegic.value.DoubleValue
0.059

@<SCITEGIC>MOL_PROPERTY
Angle
SciTegic.value.DoubleValue
2.241

@<SCITEGIC>MOL_PROPERTY
Pdih
SciTegic.value.DoubleValue
3.522

@<SCITEGIC>MOL_PROPERTY
Idih
SciTegic.value.DoubleValue
0.000

@<SCITEGIC>MOL_PROPERTY
Tether
SciTegic.value.DoubleValue
0.000

@<TRIPOS>MOLECULE
guest-6_confgen4.mol2 : confsearch ligand conformer 711
          13          12           1
SMALL
USER_CHARGES
 
@<TRIPOS>ATOM
       1    C1      21.605005   19.686290   22.707388 C.2        1 MOL1         0.6021
       2    O1      22.582245   18.965454   22.746091 O.co2      1 MOL1        -0.6904
       3    O2      21.655622   20.868722   22.433167 O.co2      1 MOL1        -0.6904
       4    C2      20.248309   19.079822   23.057104 C.3        1 MOL1        -0.2102
       5    H1      19.548910   19.892784   23.287800 H          1 MOL1         0.0687
       6    H2      20.376751   18.501325   23.979725 H          1 MOL1         0.0687
       7    C3      19.658411   18.165257   21.953052 C.3        1 MOL1        -0.1974
       8    H3      20.383722   17.379128   21.700374 H          1 MOL1         0.0689
       9    H4      18.766429   17.657572   22.344839 H          1 MOL1         0.0689
      10    C4      19.274374   18.948347   20.680569 C.3        1 MOL1        -0.2987
      11    H5      20.153094   19.433910   20.235702 H          1 MOL1         0.0700
      12    H6      18.842584   18.275808   19.928010 H          1 MOL1         0.0700
      13    H7      18.532728   19.725588   20.906954 H          1 MOL1         0.0700
@<TRIPOS>BOND
    1     1     2    1
    2     1     3    2
    3     1     4    1
    4     4     5    1
    5     4     6    1
    6     4     7    1
    7     7     8    1
    8     7     9    1
    9     7    10    1
   10    10    11    1
   11    10    12    1
   12    10    13    1
@<TRIPOS>SUBSTRUCTURE
       1 MOL1            1 RESIDUE      1      MOL     
@<SCITEGIC>MOL_PROPERTY
VConf Rank
SciTegic.value.IntegerValue
711

@<SCITEGIC>MOL_PROPERTY
Conf_Id
SciTegic.value.IntegerValue
4

@<SCITEGIC>MOL_PROPERTY
Delta U+W
SciTegic.value.DoubleValue
0.281

@<SCITEGIC>MOL_PROPERTY
U+W
SciTegic.value.DoubleValue
-58.051

@<SCITEGIC>MOL_PROPERTY
Grad RMS
SciTegic.value.DoubleValue
0.000000

@<SCITEGIC>MOL_PROPERTY
U
SciTegic.value.DoubleValue
9.781

@<SCITEGIC>MOL_PROPERTY
W
SciTegic.value.DoubleValue
-67.832

@<SCITEGIC>MOL_PROPERTY
W(PB)
SciTegic.value.DoubleValue
-69.535

@<SCITEGIC>MOL_PROPERTY
W(SA)
SciTegic.value.DoubleValue
1.703

@<SCITEGIC>MOL_PROPERTY
Valence
SciTegic.value.DoubleValue
6.123

@<SCITEGIC>MOL_PROPERTY
Coulomb
SciTegic.value.DoubleValue
3.449

@<SCITEGIC>MOL_PROPERTY
VdW
SciTegic.value.DoubleValue
0.209

@<SCITEGIC>MOL_PROPERTY
VdW6
SciTegic.value.DoubleValue
-3.762

@<SCITEGIC>MOL_PROPERTY
VdW12
SciTegic.value.DoubleValue
3.972

@<SCITEGIC>MOL_PROPERTY
Bond
SciTegic.value.DoubleValue
0.078

@<SCITEGIC>MOL_PROPERTY
Angle
SciTegic.value.DoubleValue
2.428

@<SCITEGIC>MOL_PROPERTY
Pdih
SciTegic.value.DoubleValue
3.616

@<SCITEGIC>MOL_PROPERTY
Idih
SciTegic.value.DoubleValue
0.002

@<SCITEGIC>MOL_PROPERTY
Tether
SciTegic.value.DoubleValue
0.000

@<TRIPOS>MOLECULE
guest-6_confgen4.mol2 : confsearch ligand conformer 712
          13          12           1
SMALL
USER_CHARGES
 
@<TRIPOS>ATOM
       1    C1      21.723563   18.175078   21.963197 C.2        1 MOL1         0.6021
       2    O1      21.957465   17.682589   23.048853 O.co2      1 MOL1        -0.6904
       3    O2      22.040955   17.657618   20.910774 O.co2      1 MOL1        -0.6904
       4    C2      21.026196   19.532382   21.917060 C.3        1 MOL1        -0.2102
       5    H1      21.592955   20.167908   21.226208 H          1 MOL1         0.0687
       6    H2      21.098237   19.998348   22.907501 H          1 MOL1         0.0687
       7    C3      19.545261   19.469857   21.462902 C.3        1 MOL1        -0.1974
       8    H3      19.171138   20.491923   21.313621 H          1 MOL1         0.0689
       9    H4      19.480295   18.964480   20.489098 H          1 MOL1         0.0689
      10    C4      18.644037   18.747772   22.485798 C.3        1 MOL1        -0.2987
      11    H5      18.676939   19.250304   23.461385 H          1 MOL1         0.0700
      12    H6      17.601001   18.738381   22.143624 H          1 MOL1         0.0700
      13    H7      18.962968   17.706536   22.626997 H          1 MOL1         0.0700
@<TRIPOS>BOND
    1     1     2    1
    2     1     3    2
    3     1     4    1
    4     4     5    1
    5     4     6    1
    6     4     7    1
    7     7     8    1
    8     7     9    1
    9     7    10    1
   10    10    11    1
   11    10    12    1
   12    10    13    1
@<TRIPOS>SUBSTRUCTURE
       1 MOL1            1 RESIDUE      1      MOL     
@<SCITEGIC>MOL_PROPERTY
VConf Rank
SciTegic.value.IntegerValue
712

@<SCITEGIC>MOL_PROPERTY
Conf_Id
SciTegic.value.IntegerValue
36

@<SCITEGIC>MOL_PROPERTY
Delta U+W
SciTegic.value.DoubleValue
0.272

@<SCITEGIC>MOL_PROPERTY
U+W
SciTegic.value.DoubleValue
-58.060

@<SCITEGIC>MOL_PROPERTY
Grad RMS
SciTegic.value.DoubleValue
0.000000

@<SCITEGIC>MOL_PROPERTY
U
SciTegic.value.DoubleValue
9.781

@<SCITEGIC>MOL_PROPERTY
W
SciTegic.value.DoubleValue
-67.841

@<SCITEGIC>MOL_PROPERTY
W(PB)
SciTegic.value.DoubleValue
-69.537

@<SCITEGIC>MOL_PROPERTY
W(SA)
SciTegic.value.DoubleValue
1.696

@<SCITEGIC>MOL_PROPERTY
Valence
SciTegic.value.DoubleValue
6.123

@<SCITEGIC>MOL_PROPERTY
Coulomb
SciTegic.value.DoubleValue
3.449

@<SCITEGIC>MOL_PROPERTY
VdW
SciTegic.value.DoubleValue
0.209

@<SCITEGIC>MOL_PROPERTY
VdW6
SciTegic.value.DoubleValue
-3.762

@<SCITEGIC>MOL_PROPERTY
VdW12
SciTegic.value.DoubleValue
3.972

@<SCITEGIC>MOL_PROPERTY
Bond
SciTegic.value.DoubleValue
0.078

@<SCITEGIC>MOL_PROPERTY
Angle
SciTegic.value.DoubleValue
2.428

@<SCITEGIC>MOL_PROPERTY
Pdih
SciTegic.value.DoubleValue
3.616

@<SCITEGIC>MOL_PROPERTY
Idih
SciTegic.value.DoubleValue
0.002

@<SCITEGIC>MOL_PROPERTY
Tether
SciTegic.value.DoubleValue
0.000

@<TRIPOS>MOLECULE
guest-6_confgen4.mol2 : confsearch ligand conformer 713
          13          12           1
SMALL
USER_CHARGES
 
@<TRIPOS>ATOM
       1    C1      22.143082   18.829521   21.672355 C.2        1 MOL1         0.6021
       2    O1      22.304156   19.157716   20.513186 O.co2      1 MOL1        -0.6904
       3    O2      23.060132   18.518356   22.405151 O.co2      1 MOL1        -0.6904
       4    C2      20.732854   18.796600   22.264685 C.3        1 MOL1        -0.2102
       5    H1      20.727988   19.461595   23.136520 H          1 MOL1         0.0687
       6    H2      20.557149   17.780065   22.636332 H          1 MOL1         0.0687
       7    C3      19.594149   19.201514   21.292392 C.3        1 MOL1        -0.1974
       8    H3      19.773659   20.219362   20.918874 H          1 MOL1         0.0689
       9    H4      19.602656   18.535808   20.418026 H          1 MOL1         0.0689
      10    C4      18.212994   19.138648   21.975251 C.3        1 MOL1        -0.2987
      11    H5      18.168540   19.819688   22.835327 H          1 MOL1         0.0700
      12    H6      17.420836   19.428154   21.272450 H          1 MOL1         0.0700
      13    H7      17.996197   18.122617   22.330502 H          1 MOL1         0.0700
@<TRIPOS>BOND
    1     1     2    1
    2     1     3    2
    3     1     4    1
    4     4     5    1
    5     4     6    1
    6     4     7    1
    7     7     8    1
    8     7     9    1
    9     7    10    1
   10    10    11    1
   11    10    12    1
   12    10    13    1
@<TRIPOS>SUBSTRUCTURE
       1 MOL1            1 RESIDUE      1      MOL     
@<SCITEGIC>MOL_PROPERTY
VConf Rank
SciTegic.value.IntegerValue
713

@<SCITEGIC>MOL_PROPERTY
Conf_Id
SciTegic.value.IntegerValue
0

@<SCITEGIC>MOL_PROPERTY
Delta U+W
SciTegic.value.DoubleValue
0.000

@<SCITEGIC>MOL_PROPERTY
U+W
SciTegic.value.DoubleValue
-58.332

@<SCITEGIC>MOL_PROPERTY
Grad RMS
SciTegic.value.DoubleValue
0.000000

@<SCITEGIC>MOL_PROPERTY
U
SciTegic.value.DoubleValue
8.390

@<SCITEGIC>MOL_PROPERTY
W
SciTegic.value.DoubleValue
-66.722

@<SCITEGIC>MOL_PROPERTY
W(PB)
SciTegic.value.DoubleValue
-68.455

@<SCITEGIC>MOL_PROPERTY
W(SA)
SciTegic.value.DoubleValue
1.733

@<SCITEGIC>MOL_PROPERTY
Valence
SciTegic.value.DoubleValue
6.333

@<SCITEGIC>MOL_PROPERTY
Coulomb
SciTegic.value.DoubleValue
1.215

@<SCITEGIC>MOL_PROPERTY
VdW
SciTegic.value.DoubleValue
0.842

@<SCITEGIC>MOL_PROPERTY
VdW6
SciTegic.value.DoubleValue
-3.344

@<SCITEGIC>MOL_PROPERTY
VdW12
SciTegic.value.DoubleValue
4.186

@<SCITEGIC>MOL_PROPERTY
Bond
SciTegic.value.DoubleValue
0.091

@<SCITEGIC>MOL_PROPERTY
Angle
SciTegic.value.DoubleValue
2.713

@<SCITEGIC>MOL_PROPERTY
Pdih
SciTegic.value.DoubleValue
3.529

@<SCITEGIC>MOL_PROPERTY
Idih
SciTegic.value.DoubleValue
0.000

@<SCITEGIC>MOL_PROPERTY
Tether
SciTegic.value.DoubleValue
0.000

@<TRIPOS>MOLECULE
guest-6_confgen4.mol2 : confsearch ligand conformer 714
          13          12           1
SMALL
USER_CHARGES
 
@<TRIPOS>ATOM
       1    C1      18.167478   18.102730   21.319098 C.2        1 MOL1         0.6021
       2    O1      18.182222   17.421051   20.313883 O.co2      1 MOL1        -0.6904
       3    O2      17.160645   18.609952   21.771174 O.co2      1 MOL1        -0.6904
       4    C2      19.487148   18.350646   22.041946 C.3        1 MOL1        -0.2102
       5    H1      20.119163   17.463609   21.912558 H          1 MOL1         0.0687
       6    H2      19.276707   18.444027   23.114333 H          1 MOL1         0.0687
       7    C3      20.227452   19.610995   21.532714 C.3        1 MOL1        -0.1974
       8    H3      20.424035   19.510613   20.456099 H          1 MOL1         0.0689
       9    H4      19.581479   20.491216   21.658217 H          1 MOL1         0.0689
      10    C4      21.556208   19.833511   22.282504 C.3        1 MOL1        -0.2987
      11    H5      22.066026   20.730759   21.907946 H          1 MOL1         0.0700
      12    H6      21.382545   19.966567   23.358465 H          1 MOL1         0.0700
      13    H7      22.231567   18.978461   22.147088 H          1 MOL1         0.0700
@<TRIPOS>BOND
    1     1     2    1
    2     1     3    2
    3     1     4    1
    4     4     5    1
    5     4     6    1
    6     4     7    1
    7     7     8    1
    8     7     9    1
    9     7    10    1
   10    10    11    1
   11    10    12    1
   12    10    13    1
@<TRIPOS>SUBSTRUCTURE
       1 MOL1            1 RESIDUE      1      MOL     
@<SCITEGIC>MOL_PROPERTY
VConf Rank
SciTegic.value.IntegerValue
714

@<SCITEGIC>MOL_PROPERTY
Conf_Id
SciTegic.value.IntegerValue
1

@<SCITEGIC>MOL_PROPERTY
Delta U+W
SciTegic.value.DoubleValue
-1.339

@<SCITEGIC>MOL_PROPERTY
U+W
SciTegic.value.DoubleValue
-59.672

@<SCITEGIC>MOL_PROPERTY
Grad RMS
SciTegic.value.DoubleValue
0.000000

@<SCITEGIC>MOL_PROPERTY
U
SciTegic.value.DoubleValue
7.389

@<SCITEGIC>MOL_PROPERTY
W
SciTegic.value.DoubleValue
-67.061

@<SCITEGIC>MOL_PROPERTY
W(PB)
SciTegic.value.DoubleValue
-68.767

@<SCITEGIC>MOL_PROPERTY
W(SA)
SciTegic.value.DoubleValue
1.707

@<SCITEGIC>MOL_PROPERTY
Valence
SciTegic.value.DoubleValue
5.822

@<SCITEGIC>MOL_PROPERTY
Coulomb
SciTegic.value.DoubleValue
1.255

@<SCITEGIC>MOL_PROPERTY
VdW
SciTegic.value.DoubleValue
0.312

@<SCITEGIC>MOL_PROPERTY
VdW6
SciTegic.value.DoubleValue
-3.061

@<SCITEGIC>MOL_PROPERTY
VdW12
SciTegic.value.DoubleValue
3.372

@<SCITEGIC>MOL_PROPERTY
Bond
SciTegic.value.DoubleValue
0.059

@<SCITEGIC>MOL_PROPERTY
Angle
SciTegic.value.DoubleValue
2.241

@<SCITEGIC>MOL_PROPERTY
Pdih
SciTegic.value.DoubleValue
3.522

@<SCITEGIC>MOL_PROPERTY
Idih
SciTegic.value.DoubleValue
0.000

@<SCITEGIC>MOL_PROPERTY
Tether
SciTegic.value.DoubleValue
0.000

@<TRIPOS>MOLECULE
guest-6_confgen4.mol2 : confsearch ligand conformer 715
          13          12           1
SMALL
USER_CHARGES
 
@<TRIPOS>ATOM
       1    C1      19.699871   20.656397   21.574985 C.2        1 MOL1         0.6021
       2    O1      18.547018   20.849017   21.243433 O.co2      1 MOL1        -0.6904
       3    O2      20.332478   21.422591   22.274028 O.co2      1 MOL1        -0.6904
       4    C2      20.399045   19.402795   21.055020 C.3        1 MOL1        -0.2102
       5    H1      21.482591   19.533414   21.165274 H          1 MOL1         0.0687
       6    H2      20.195870   19.337350   19.979463 H          1 MOL1         0.0687
       7    C3      19.946407   18.090899   21.745952 C.3        1 MOL1        -0.1974
       8    H3      18.854895   17.990611   21.665551 H          1 MOL1         0.0689
       9    H4      20.382101   17.234662   21.213127 H          1 MOL1         0.0689
      10    C4      20.367496   18.028918   23.228778 C.3        1 MOL1        -0.2987
      11    H5      19.912846   18.847288   23.802706 H          1 MOL1         0.0700
      12    H6      20.049556   17.080927   23.681903 H          1 MOL1         0.0700
      13    H7      21.458011   18.105141   23.330556 H          1 MOL1         0.0700
@<TRIPOS>BOND
    1     1     2    1
    2     1     3    2
    3     1     4    1
    4     4     5    1
    5     4     6    1
    6     4     7    1
    7     7     8    1
    8     7     9    1
    9     7    10    1
   10    10    11    1
   11    10    12    1
   12    10    13    1
@<TRIPOS>SUBSTRUCTURE
       1 MOL1            1 RESIDUE      1      MOL     
@<SCITEGIC>MOL_PROPERTY
VConf Rank
SciTegic.value.IntegerValue
715

@<SCITEGIC>MOL_PROPERTY
Conf_Id
SciTegic.value.IntegerValue
4

@<SCITEGIC>MOL_PROPERTY
Delta U+W
SciTegic.value.DoubleValue
0.281

@<SCITEGIC>MOL_PROPERTY
U+W
SciTegic.value.DoubleValue
-58.051

@<SCITEGIC>MOL_PROPERTY
Grad RMS
SciTegic.value.DoubleValue
0.000000

@<SCITEGIC>MOL_PROPERTY
U
SciTegic.value.DoubleValue
9.781

@<SCITEGIC>MOL_PROPERTY
W
SciTegic.value.DoubleValue
-67.832

@<SCITEGIC>MOL_PROPERTY
W(PB)
SciTegic.value.DoubleValue
-69.535

@<SCITEGIC>MOL_PROPERTY
W(SA)
SciTegic.value.DoubleValue
1.703

@<SCITEGIC>MOL_PROPERTY
Valence
SciTegic.value.DoubleValue
6.123

@<SCITEGIC>MOL_PROPERTY
Coulomb
SciTegic.value.DoubleValue
3.449

@<SCITEGIC>MOL_PROPERTY
VdW
SciTegic.value.DoubleValue
0.209

@<SCITEGIC>MOL_PROPERTY
VdW6
SciTegic.value.DoubleValue
-3.762

@<SCITEGIC>MOL_PROPERTY
VdW12
SciTegic.value.DoubleValue
3.972

@<SCITEGIC>MOL_PROPERTY
Bond
SciTegic.value.DoubleValue
0.078

@<SCITEGIC>MOL_PROPERTY
Angle
SciTegic.value.DoubleValue
2.428

@<SCITEGIC>MOL_PROPERTY
Pdih
SciTegic.value.DoubleValue
3.616

@<SCITEGIC>MOL_PROPERTY
Idih
SciTegic.value.DoubleValue
0.002

@<SCITEGIC>MOL_PROPERTY
Tether
SciTegic.value.DoubleValue
0.000

@<TRIPOS>MOLECULE
guest-6_confgen4.mol2 : confsearch ligand conformer 716
          13          12           1
SMALL
USER_CHARGES
 
@<TRIPOS>ATOM
       1    C1      20.033375   20.216174   20.713845 C.2        1 MOL1         0.6021
       2    O1      18.885631   20.332628   20.333019 O.co2      1 MOL1        -0.6904
       3    O2      20.798475   21.152719   20.830472 O.co2      1 MOL1        -0.6904
       4    C2      20.555003   18.816383   21.028829 C.3        1 MOL1        -0.2102
       5    H1      21.522096   18.706479   20.523816 H          1 MOL1         0.0687
       6    H2      19.877658   18.079629   20.579736 H          1 MOL1         0.0687
       7    C3      20.728233   18.529394   22.542423 C.3        1 MOL1        -0.1974
       8    H3      21.244477   17.568058   22.669684 H          1 MOL1         0.0689
       9    H4      21.374918   19.296794   22.990549 H          1 MOL1         0.0689
      10    C4      19.380817   18.480880   23.292119 C.3        1 MOL1        -0.2987
      11    H5      18.726861   17.704379   22.874055 H          1 MOL1         0.0700
      12    H6      19.537511   18.256697   24.355268 H          1 MOL1         0.0700
      13    H7      18.855956   19.442960   23.223202 H          1 MOL1         0.0700
@<TRIPOS>BOND
    1     1     2    1
    2     1     3    2
    3     1     4    1
    4     4     5    1
    5     4     6    1
    6     4     7    1
    7     7     8    1
    8     7     9    1
    9     7    10    1
   10    10    11    1
   11    10    12    1
   12    10    13    1
@<TRIPOS>SUBSTRUCTURE
       1 MOL1            1 RESIDUE      1      MOL     
@<SCITEGIC>MOL_PROPERTY
VConf Rank
SciTegic.value.IntegerValue
716

@<SCITEGIC>MOL_PROPERTY
Conf_Id
SciTegic.value.IntegerValue
36

@<SCITEGIC>MOL_PROPERTY
Delta U+W
SciTegic.value.DoubleValue
0.272

@<SCITEGIC>MOL_PROPERTY
U+W
SciTegic.value.DoubleValue
-58.060

@<SCITEGIC>MOL_PROPERTY
Grad RMS
SciTegic.value.DoubleValue
0.000000

@<SCITEGIC>MOL_PROPERTY
U
SciTegic.value.DoubleValue
9.781

@<SCITEGIC>MOL_PROPERTY
W
SciTegic.value.DoubleValue
-67.841

@<SCITEGIC>MOL_PROPERTY
W(PB)
SciTegic.value.DoubleValue
-69.537

@<SCITEGIC>MOL_PROPERTY
W(SA)
SciTegic.value.DoubleValue
1.696

@<SCITEGIC>MOL_PROPERTY
Valence
SciTegic.value.DoubleValue
6.123

@<SCITEGIC>MOL_PROPERTY
Coulomb
SciTegic.value.DoubleValue
3.449

@<SCITEGIC>MOL_PROPERTY
VdW
SciTegic.value.DoubleValue
0.209

@<SCITEGIC>MOL_PROPERTY
VdW6
SciTegic.value.DoubleValue
-3.762

@<SCITEGIC>MOL_PROPERTY
VdW12
SciTegic.value.DoubleValue
3.972

@<SCITEGIC>MOL_PROPERTY
Bond
SciTegic.value.DoubleValue
0.078

@<SCITEGIC>MOL_PROPERTY
Angle
SciTegic.value.DoubleValue
2.428

@<SCITEGIC>MOL_PROPERTY
Pdih
SciTegic.value.DoubleValue
3.616

@<SCITEGIC>MOL_PROPERTY
Idih
SciTegic.value.DoubleValue
0.002

@<SCITEGIC>MOL_PROPERTY
Tether
SciTegic.value.DoubleValue
0.000

@<TRIPOS>MOLECULE
guest-6_confgen4.mol2 : confsearch ligand conformer 717
          13          12           1
SMALL
USER_CHARGES
 
@<TRIPOS>ATOM
       1    C1      21.157146   17.341824   22.533954 C.2        1 MOL1         0.6021
       2    O1      22.279732   17.712240   22.251248 O.co2      1 MOL1        -0.6904
       3    O2      20.928128   16.279555   23.076107 O.co2      1 MOL1        -0.6904
       4    C2      19.956971   18.231604   22.204481 C.3        1 MOL1        -0.2102
       5    H1      19.423599   18.423241   23.143165 H          1 MOL1         0.0687
       6    H2      19.282360   17.648768   21.566093 H          1 MOL1         0.0687
       7    C3      20.297661   19.577603   21.512980 C.3        1 MOL1        -0.1974
       8    H3      20.976074   20.158854   22.153025 H          1 MOL1         0.0689
       9    H4      20.834733   19.383432   20.574041 H          1 MOL1         0.0689
      10    C4      19.029444   20.404555   21.220388 C.3        1 MOL1        -0.2987
      11    H5      18.490376   20.638664   22.147816 H          1 MOL1         0.0700
      12    H6      19.290288   21.352324   20.731562 H          1 MOL1         0.0700
      13    H7      18.347881   19.856980   20.556192 H          1 MOL1         0.0700
@<TRIPOS>BOND
    1     1     2    1
    2     1     3    2
    3     1     4    1
    4     4     5    1
    5     4     6    1
    6     4     7    1
    7     7     8    1
    8     7     9    1
    9     7    10    1
   10    10    11    1
   11    10    12    1
   12    10    13    1
@<TRIPOS>SUBSTRUCTURE
       1 MOL1            1 RESIDUE      1      MOL     
@<SCITEGIC>MOL_PROPERTY
VConf Rank
SciTegic.value.IntegerValue
717

@<SCITEGIC>MOL_PROPERTY
Conf_Id
SciTegic.value.IntegerValue
0

@<SCITEGIC>MOL_PROPERTY
Delta U+W
SciTegic.value.DoubleValue
0.000

@<SCITEGIC>MOL_PROPERTY
U+W
SciTegic.value.DoubleValue
-58.332

@<SCITEGIC>MOL_PROPERTY
Grad RMS
SciTegic.value.DoubleValue
0.000000

@<SCITEGIC>MOL_PROPERTY
U
SciTegic.value.DoubleValue
8.390

@<SCITEGIC>MOL_PROPERTY
W
SciTegic.value.DoubleValue
-66.722

@<SCITEGIC>MOL_PROPERTY
W(PB)
SciTegic.value.DoubleValue
-68.455

@<SCITEGIC>MOL_PROPERTY
W(SA)
SciTegic.value.DoubleValue
1.733

@<SCITEGIC>MOL_PROPERTY
Valence
SciTegic.value.DoubleValue
6.333

@<SCITEGIC>MOL_PROPERTY
Coulomb
SciTegic.value.DoubleValue
1.215

@<SCITEGIC>MOL_PROPERTY
VdW
SciTegic.value.DoubleValue
0.842

@<SCITEGIC>MOL_PROPERTY
VdW6
SciTegic.value.DoubleValue
-3.344

@<SCITEGIC>MOL_PROPERTY
VdW12
SciTegic.value.DoubleValue
4.186

@<SCITEGIC>MOL_PROPERTY
Bond
SciTegic.value.DoubleValue
0.091

@<SCITEGIC>MOL_PROPERTY
Angle
SciTegic.value.DoubleValue
2.713

@<SCITEGIC>MOL_PROPERTY
Pdih
SciTegic.value.DoubleValue
3.529

@<SCITEGIC>MOL_PROPERTY
Idih
SciTegic.value.DoubleValue
0.000

@<SCITEGIC>MOL_PROPERTY
Tether
SciTegic.value.DoubleValue
0.000

@<TRIPOS>MOLECULE
guest-6_confgen4.mol2 : confsearch ligand conformer 718
          13          12           1
SMALL
USER_CHARGES
 
@<TRIPOS>ATOM
       1    C1      20.814153   17.957227   23.447135 C.2        1 MOL1         0.6021
       2    O1      21.958431   18.233887   23.746215 O.co2      1 MOL1        -0.6904
       3    O2      20.297372   16.885331   23.690721 O.co2      1 MOL1        -0.6904
       4    C2      19.987890   19.005320   22.709375 C.3        1 MOL1        -0.2102
       5    H1      20.308858   19.996477   23.052315 H          1 MOL1         0.0687
       6    H2      18.939049   18.884387   23.006571 H          1 MOL1         0.0687
       7    C3      20.120319   18.905494   21.170432 C.3        1 MOL1        -0.1974
       8    H3      21.175717   19.018097   20.885342 H          1 MOL1         0.0689
       9    H4      19.805534   17.905857   20.839585 H          1 MOL1         0.0689
      10    C4      19.274103   19.977415   20.454756 C.3        1 MOL1        -0.2987
      11    H5      19.380843   19.890701   19.365560 H          1 MOL1         0.0700
      12    H6      18.209841   19.866594   20.700967 H          1 MOL1         0.0700
      13    H7      19.590565   20.987352   20.747049 H          1 MOL1         0.0700
@<TRIPOS>BOND
    1     1     2    1
    2     1     3    2
    3     1     4    1
    4     4     5    1
    5     4     6    1
    6     4     7    1
    7     7     8    1
    8     7     9    1
    9     7    10    1
   10    10    11    1
   11    10    12    1
   12    10    13    1
@<TRIPOS>SUBSTRUCTURE
       1 MOL1            1 RESIDUE      1      MOL     
@<SCITEGIC>MOL_PROPERTY
VConf Rank
SciTegic.value.IntegerValue
718

@<SCITEGIC>MOL_PROPERTY
Conf_Id
SciTegic.value.IntegerValue
1

@<SCITEGIC>MOL_PROPERTY
Delta U+W
SciTegic.value.DoubleValue
-1.339

@<SCITEGIC>MOL_PROPERTY
U+W
SciTegic.value.DoubleValue
-59.672

@<SCITEGIC>MOL_PROPERTY
Grad RMS
SciTegic.value.DoubleValue
0.000000

@<SCITEGIC>MOL_PROPERTY
U
SciTegic.value.DoubleValue
7.389

@<SCITEGIC>MOL_PROPERTY
W
SciTegic.value.DoubleValue
-67.061

@<SCITEGIC>MOL_PROPERTY
W(PB)
SciTegic.value.DoubleValue
-68.767

@<SCITEGIC>MOL_PROPERTY
W(SA)
SciTegic.value.DoubleValue
1.707

@<SCITEGIC>MOL_PROPERTY
Valence
SciTegic.value.DoubleValue
5.822

@<SCITEGIC>MOL_PROPERTY
Coulomb
SciTegic.value.DoubleValue
1.255

@<SCITEGIC>MOL_PROPERTY
VdW
SciTegic.value.DoubleValue
0.312

@<SCITEGIC>MOL_PROPERTY
VdW6
SciTegic.value.DoubleValue
-3.061

@<SCITEGIC>MOL_PROPERTY
VdW12
SciTegic.value.DoubleValue
3.372

@<SCITEGIC>MOL_PROPERTY
Bond
SciTegic.value.DoubleValue
0.059

@<SCITEGIC>MOL_PROPERTY
Angle
SciTegic.value.DoubleValue
2.241

@<SCITEGIC>MOL_PROPERTY
Pdih
SciTegic.value.DoubleValue
3.522

@<SCITEGIC>MOL_PROPERTY
Idih
SciTegic.value.DoubleValue
0.000

@<SCITEGIC>MOL_PROPERTY
Tether
SciTegic.value.DoubleValue
0.000

@<TRIPOS>MOLECULE
guest-6_confgen4.mol2 : confsearch ligand conformer 719
          13          12           1
SMALL
USER_CHARGES
 
@<TRIPOS>ATOM
       1    C1      20.639906   19.175748   23.700680 C.2        1 MOL1         0.6021
       2    O1      21.621021   18.545728   24.042127 O.co2      1 MOL1        -0.6904
       3    O2      20.419329   20.316240   24.056390 O.co2      1 MOL1        -0.6904
       4    C2      19.614292   18.483135   22.806739 C.3        1 MOL1        -0.2102
       5    H1      18.671724   19.042188   22.854826 H          1 MOL1         0.0687
       6    H2      19.418444   17.494564   23.238895 H          1 MOL1         0.0687
       7    C3      20.064321   18.321184   21.332092 C.3        1 MOL1        -0.1974
       8    H3      21.029426   17.796485   21.297659 H          1 MOL1         0.0689
       9    H4      19.340834   17.686233   20.802680 H          1 MOL1         0.0689
      10    C4      20.179868   19.673220   20.598216 C.3        1 MOL1        -0.2987
      11    H5      20.929134   20.318628   21.075581 H          1 MOL1         0.0700
      12    H6      20.480598   19.521775   19.553361 H          1 MOL1         0.0700
      13    H7      19.219286   20.204881   20.601532 H          1 MOL1         0.0700
@<TRIPOS>BOND
    1     1     2    1
    2     1     3    2
    3     1     4    1
    4     4     5    1
    5     4     6    1
    6     4     7    1
    7     7     8    1
    8     7     9    1
    9     7    10    1
   10    10    11    1
   11    10    12    1
   12    10    13    1
@<TRIPOS>SUBSTRUCTURE
       1 MOL1            1 RESIDUE      1      MOL     
@<SCITEGIC>MOL_PROPERTY
VConf Rank
SciTegic.value.IntegerValue
719

@<SCITEGIC>MOL_PROPERTY
Conf_Id
SciTegic.value.IntegerValue
4

@<SCITEGIC>MOL_PROPERTY
Delta U+W
SciTegic.value.DoubleValue
0.281

@<SCITEGIC>MOL_PROPERTY
U+W
SciTegic.value.DoubleValue
-58.051

@<SCITEGIC>MOL_PROPERTY
Grad RMS
SciTegic.value.DoubleValue
0.000000

@<SCITEGIC>MOL_PROPERTY
U
SciTegic.value.DoubleValue
9.781

@<SCITEGIC>MOL_PROPERTY
W
SciTegic.value.DoubleValue
-67.832

@<SCITEGIC>MOL_PROPERTY
W(PB)
SciTegic.value.DoubleValue
-69.535

@<SCITEGIC>MOL_PROPERTY
W(SA)
SciTegic.value.DoubleValue
1.703

@<SCITEGIC>MOL_PROPERTY
Valence
SciTegic.value.DoubleValue
6.123

@<SCITEGIC>MOL_PROPERTY
Coulomb
SciTegic.value.DoubleValue
3.449

@<SCITEGIC>MOL_PROPERTY
VdW
SciTegic.value.DoubleValue
0.209

@<SCITEGIC>MOL_PROPERTY
VdW6
SciTegic.value.DoubleValue
-3.762

@<SCITEGIC>MOL_PROPERTY
VdW12
SciTegic.value.DoubleValue
3.972

@<SCITEGIC>MOL_PROPERTY
Bond
SciTegic.value.DoubleValue
0.078

@<SCITEGIC>MOL_PROPERTY
Angle
SciTegic.value.DoubleValue
2.428

@<SCITEGIC>MOL_PROPERTY
Pdih
SciTegic.value.DoubleValue
3.616

@<SCITEGIC>MOL_PROPERTY
Idih
SciTegic.value.DoubleValue
0.002

@<SCITEGIC>MOL_PROPERTY
Tether
SciTegic.value.DoubleValue
0.000

@<TRIPOS>MOLECULE
guest-6_confgen4.mol2 : confsearch ligand conformer 720
          13          12           1
SMALL
USER_CHARGES
 
@<TRIPOS>ATOM
       1    C1      21.416699   18.439375   23.111233 C.2        1 MOL1         0.6021
       2    O1      22.240930   17.791296   22.497602 O.co2      1 MOL1        -0.6904
       3    O2      21.702367   19.213879   24.002656 O.co2      1 MOL1        -0.6904
       4    C2      19.941162   18.245682   22.770648 C.3        1 MOL1        -0.2102
       5    H1      19.403464   18.102851   23.715564 H          1 MOL1         0.0687
       6    H2      19.831395   17.315293   22.200021 H          1 MOL1         0.0687
       7    C3      19.309264   19.427587   21.991453 C.3        1 MOL1        -0.1974
       8    H3      18.223672   19.273880   21.922631 H          1 MOL1         0.0689
       9    H4      19.461120   20.360666   22.552011 H          1 MOL1         0.0689
      10    C4      19.888600   19.574049   20.569186 C.3        1 MOL1        -0.2987
      11    H5      19.727598   18.659319   19.983748 H          1 MOL1         0.0700
      12    H6      19.406779   20.405808   20.038978 H          1 MOL1         0.0700
      13    H7      20.967961   19.773490   20.601289 H          1 MOL1         0.0700
@<TRIPOS>BOND
    1     1     2    1
    2     1     3    2
    3     1     4    1
    4     4     5    1
    5     4     6    1
    6     4     7    1
    7     7     8    1
    8     7     9    1
    9     7    10    1
   10    10    11    1
   11    10    12    1
   12    10    13    1
@<TRIPOS>SUBSTRUCTURE
       1 MOL1            1 RESIDUE      1      MOL     
@<SCITEGIC>MOL_PROPERTY
VConf Rank
SciTegic.value.IntegerValue
720

@<SCITEGIC>MOL_PROPERTY
Conf_Id
SciTegic.value.IntegerValue
36

@<SCITEGIC>MOL_PROPERTY
Delta U+W
SciTegic.value.DoubleValue
0.272

@<SCITEGIC>MOL_PROPERTY
U+W
SciTegic.value.DoubleValue
-58.060

@<SCITEGIC>MOL_PROPERTY
Grad RMS
SciTegic.value.DoubleValue
0.000000

@<SCITEGIC>MOL_PROPERTY
U
SciTegic.value.DoubleValue
9.781

@<SCITEGIC>MOL_PROPERTY
W
SciTegic.value.DoubleValue
-67.841

@<SCITEGIC>MOL_PROPERTY
W(PB)
SciTegic.value.DoubleValue
-69.537

@<SCITEGIC>MOL_PROPERTY
W(SA)
SciTegic.value.DoubleValue
1.696

@<SCITEGIC>MOL_PROPERTY
Valence
SciTegic.value.DoubleValue
6.123

@<SCITEGIC>MOL_PROPERTY
Coulomb
SciTegic.value.DoubleValue
3.449

@<SCITEGIC>MOL_PROPERTY
VdW
SciTegic.value.DoubleValue
0.209

@<SCITEGIC>MOL_PROPERTY
VdW6
SciTegic.value.DoubleValue
-3.762

@<SCITEGIC>MOL_PROPERTY
VdW12
SciTegic.value.DoubleValue
3.972

@<SCITEGIC>MOL_PROPERTY
Bond
SciTegic.value.DoubleValue
0.078

@<SCITEGIC>MOL_PROPERTY
Angle
SciTegic.value.DoubleValue
2.428

@<SCITEGIC>MOL_PROPERTY
Pdih
SciTegic.value.DoubleValue
3.616

@<SCITEGIC>MOL_PROPERTY
Idih
SciTegic.value.DoubleValue
0.002

@<SCITEGIC>MOL_PROPERTY
Tether
SciTegic.value.DoubleValue
0.000

@<TRIPOS>MOLECULE
guest-6_confgen4.mol2 : confsearch ligand conformer 721
          13          12           1
SMALL
USER_CHARGES
 
@<TRIPOS>ATOM
       1    C1      19.659775   17.409888   20.447851 C.2        1 MOL1         0.6021
       2    O1      19.244559   18.039601   19.494758 O.co2      1 MOL1        -0.6904
       3    O2      19.771831   16.200665   20.443501 O.co2      1 MOL1        -0.6904
       4    C2      20.067723   18.145155   21.725992 C.3        1 MOL1        -0.2102
       5    H1      21.113391   17.887785   21.932575 H          1 MOL1         0.0687
       6    H2      19.468404   17.733114   22.546587 H          1 MOL1         0.0687
       7    C3      19.907516   19.687437   21.685270 C.3        1 MOL1        -0.1974
       8    H3      20.506571   20.098053   20.860478 H          1 MOL1         0.0689
       9    H4      18.859566   19.943198   21.475168 H          1 MOL1         0.0689
      10    C4      20.341680   20.340339   23.013071 C.3        1 MOL1        -0.2987
      11    H5      21.396146   20.125024   23.230471 H          1 MOL1         0.0700
      12    H6      20.221287   21.430511   22.965228 H          1 MOL1         0.0700
      13    H7      19.735942   19.968875   23.850101 H          1 MOL1         0.0700
@<TRIPOS>BOND
    1     1     2    1
    2     1     3    2
    3     1     4    1
    4     4     5    1
    5     4     6    1
    6     4     7    1
    7     7     8    1
    8     7     9    1
    9     7    10    1
   10    10    11    1
   11    10    12    1
   12    10    13    1
@<TRIPOS>SUBSTRUCTURE
       1 MOL1            1 RESIDUE      1      MOL     
@<SCITEGIC>MOL_PROPERTY
VConf Rank
SciTegic.value.IntegerValue
721

@<SCITEGIC>MOL_PROPERTY
Conf_Id
SciTegic.value.IntegerValue
0

@<SCITEGIC>MOL_PROPERTY
Delta U+W
SciTegic.value.DoubleValue
0.000

@<SCITEGIC>MOL_PROPERTY
U+W
SciTegic.value.DoubleValue
-58.332

@<SCITEGIC>MOL_PROPERTY
Grad RMS
SciTegic.value.DoubleValue
0.000000

@<SCITEGIC>MOL_PROPERTY
U
SciTegic.value.DoubleValue
8.390

@<SCITEGIC>MOL_PROPERTY
W
SciTegic.value.DoubleValue
-66.722

@<SCITEGIC>MOL_PROPERTY
W(PB)
SciTegic.value.DoubleValue
-68.455

@<SCITEGIC>MOL_PROPERTY
W(SA)
SciTegic.value.DoubleValue
1.733

@<SCITEGIC>MOL_PROPERTY
Valence
SciTegic.value.DoubleValue
6.333

@<SCITEGIC>MOL_PROPERTY
Coulomb
SciTegic.value.DoubleValue
1.215

@<SCITEGIC>MOL_PROPERTY
VdW
SciTegic.value.DoubleValue
0.842

@<SCITEGIC>MOL_PROPERTY
VdW6
SciTegic.value.DoubleValue
-3.344

@<SCITEGIC>MOL_PROPERTY
VdW12
SciTegic.value.DoubleValue
4.186

@<SCITEGIC>MOL_PROPERTY
Bond
SciTegic.value.DoubleValue
0.091

@<SCITEGIC>MOL_PROPERTY
Angle
SciTegic.value.DoubleValue
2.713

@<SCITEGIC>MOL_PROPERTY
Pdih
SciTegic.value.DoubleValue
3.529

@<SCITEGIC>MOL_PROPERTY
Idih
SciTegic.value.DoubleValue
0.000

@<SCITEGIC>MOL_PROPERTY
Tether
SciTegic.value.DoubleValue
0.000

@<TRIPOS>MOLECULE
guest-6_confgen4.mol2 : confsearch ligand conformer 722
          13          12           1
SMALL
USER_CHARGES
 
@<TRIPOS>ATOM
       1    C1      21.345200   19.563286   20.299736 C.2        1 MOL1         0.6021
       2    O1      21.123828   19.085936   19.204979 O.co2      1 MOL1        -0.6904
       3    O2      22.445272   19.928969   20.662334 O.co2      1 MOL1        -0.6904
       4    C2      20.182994   19.693079   21.278475 C.3        1 MOL1        -0.2102
       5    H1      19.269861   19.882163   20.701021 H          1 MOL1         0.0687
       6    H2      20.359596   20.577394   21.902830 H          1 MOL1         0.0687
       7    C3      20.000238   18.440270   22.168934 C.3        1 MOL1        -0.1974
       8    H3      19.834011   17.559607   21.532835 H          1 MOL1         0.0689
       9    H4      20.923892   18.255050   22.734954 H          1 MOL1         0.0689
      10    C4      18.818694   18.602882   23.146074 C.3        1 MOL1        -0.2987
      11    H5      18.705096   17.705512   23.768235 H          1 MOL1         0.0700
      12    H6      18.976114   19.460404   23.813481 H          1 MOL1         0.0700
      13    H7      17.877880   18.759584   22.602136 H          1 MOL1         0.0700
@<TRIPOS>BOND
    1     1     2    1
    2     1     3    2
    3     1     4    1
    4     4     5    1
    5     4     6    1
    6     4     7    1
    7     7     8    1
    8     7     9    1
    9     7    10    1
   10    10    11    1
   11    10    12    1
   12    10    13    1
@<TRIPOS>SUBSTRUCTURE
       1 MOL1            1 RESIDUE      1      MOL     
@<SCITEGIC>MOL_PROPERTY
VConf Rank
SciTegic.value.IntegerValue
722

@<SCITEGIC>MOL_PROPERTY
Conf_Id
SciTegic.value.IntegerValue
1

@<SCITEGIC>MOL_PROPERTY
Delta U+W
SciTegic.value.DoubleValue
-1.339

@<SCITEGIC>MOL_PROPERTY
U+W
SciTegic.value.DoubleValue
-59.672

@<SCITEGIC>MOL_PROPERTY
Grad RMS
SciTegic.value.DoubleValue
0.000000

@<SCITEGIC>MOL_PROPERTY
U
SciTegic.value.DoubleValue
7.389

@<SCITEGIC>MOL_PROPERTY
W
SciTegic.value.DoubleValue
-67.061

@<SCITEGIC>MOL_PROPERTY
W(PB)
SciTegic.value.DoubleValue
-68.767

@<SCITEGIC>MOL_PROPERTY
W(SA)
SciTegic.value.DoubleValue
1.707

@<SCITEGIC>MOL_PROPERTY
Valence
SciTegic.value.DoubleValue
5.822

@<SCITEGIC>MOL_PROPERTY
Coulomb
SciTegic.value.DoubleValue
1.255

@<SCITEGIC>MOL_PROPERTY
VdW
SciTegic.value.DoubleValue
0.312

@<SCITEGIC>MOL_PROPERTY
VdW6
SciTegic.value.DoubleValue
-3.061

@<SCITEGIC>MOL_PROPERTY
VdW12
SciTegic.value.DoubleValue
3.372

@<SCITEGIC>MOL_PROPERTY
Bond
SciTegic.value.DoubleValue
0.059

@<SCITEGIC>MOL_PROPERTY
Angle
SciTegic.value.DoubleValue
2.241

@<SCITEGIC>MOL_PROPERTY
Pdih
SciTegic.value.DoubleValue
3.522

@<SCITEGIC>MOL_PROPERTY
Idih
SciTegic.value.DoubleValue
0.000

@<SCITEGIC>MOL_PROPERTY
Tether
SciTegic.value.DoubleValue
0.000

@<TRIPOS>MOLECULE
guest-6_confgen4.mol2 : confsearch ligand conformer 723
          13          12           1
SMALL
USER_CHARGES
 
@<TRIPOS>ATOM
       1    C1      21.768275   18.405467   21.555280 C.2        1 MOL1         0.6021
       2    O1      21.826010   17.364058   20.932198 O.co2      1 MOL1        -0.6904
       3    O2      22.478446   19.363837   21.324868 O.co2      1 MOL1        -0.6904
       4    C2      20.775148   18.499271   22.710973 C.3        1 MOL1        -0.2102
       5    H1      21.061320   19.341591   23.352760 H          1 MOL1         0.0687
       6    H2      20.887476   17.589889   23.313296 H          1 MOL1         0.0687
       7    C3      19.296859   18.644379   22.267188 C.3        1 MOL1        -0.1974
       8    H3      19.032847   17.818364   21.591970 H          1 MOL1         0.0689
       9    H4      18.646147   18.552633   23.147546 H          1 MOL1         0.0689
      10    C4      19.018502   19.993807   21.573293 C.3        1 MOL1        -0.2987
      11    H5      19.621433   20.100659   20.661764 H          1 MOL1         0.0700
      12    H6      17.960797   20.072248   21.290090 H          1 MOL1         0.0700
      13    H7      19.254923   20.833807   22.239550 H          1 MOL1         0.0700
@<TRIPOS>BOND
    1     1     2    1
    2     1     3    2
    3     1     4    1
    4     4     5    1
    5     4     6    1
    6     4     7    1
    7     7     8    1
    8     7     9    1
    9     7    10    1
   10    10    11    1
   11    10    12    1
   12    10    13    1
@<TRIPOS>SUBSTRUCTURE
       1 MOL1            1 RESIDUE      1      MOL     
@<SCITEGIC>MOL_PROPERTY
VConf Rank
SciTegic.value.IntegerValue
723

@<SCITEGIC>MOL_PROPERTY
Conf_Id
SciTegic.value.IntegerValue
4

@<SCITEGIC>MOL_PROPERTY
Delta U+W
SciTegic.value.DoubleValue
0.281

@<SCITEGIC>MOL_PROPERTY
U+W
SciTegic.value.DoubleValue
-58.051

@<SCITEGIC>MOL_PROPERTY
Grad RMS
SciTegic.value.DoubleValue
0.000000

@<SCITEGIC>MOL_PROPERTY
U
SciTegic.value.DoubleValue
9.781

@<SCITEGIC>MOL_PROPERTY
W
SciTegic.value.DoubleValue
-67.832

@<SCITEGIC>MOL_PROPERTY
W(PB)
SciTegic.value.DoubleValue
-69.535

@<SCITEGIC>MOL_PROPERTY
W(SA)
SciTegic.value.DoubleValue
1.703

@<SCITEGIC>MOL_PROPERTY
Valence
SciTegic.value.DoubleValue
6.123

@<SCITEGIC>MOL_PROPERTY
Coulomb
SciTegic.value.DoubleValue
3.449

@<SCITEGIC>MOL_PROPERTY
VdW
SciTegic.value.DoubleValue
0.209

@<SCITEGIC>MOL_PROPERTY
VdW6
SciTegic.value.DoubleValue
-3.762

@<SCITEGIC>MOL_PROPERTY
VdW12
SciTegic.value.DoubleValue
3.972

@<SCITEGIC>MOL_PROPERTY
Bond
SciTegic.value.DoubleValue
0.078

@<SCITEGIC>MOL_PROPERTY
Angle
SciTegic.value.DoubleValue
2.428

@<SCITEGIC>MOL_PROPERTY
Pdih
SciTegic.value.DoubleValue
3.616

@<SCITEGIC>MOL_PROPERTY
Idih
SciTegic.value.DoubleValue
0.002

@<SCITEGIC>MOL_PROPERTY
Tether
SciTegic.value.DoubleValue
0.000

@<TRIPOS>MOLECULE
guest-6_confgen4.mol2 : confsearch ligand conformer 724
          13          12           1
SMALL
USER_CHARGES
 
@<TRIPOS>ATOM
       1    C1      19.702678   19.484324   20.331620 C.2        1 MOL1         0.6021
       2    O1      19.416531   18.511382   19.662734 O.co2      1 MOL1        -0.6904
       3    O2      19.138994   20.555822   20.230376 O.co2      1 MOL1        -0.6904
       4    C2      20.854264   19.367460   21.327067 C.3        1 MOL1        -0.2102
       5    H1      21.506538   20.235842   21.175948 H          1 MOL1         0.0687
       6    H2      21.446682   18.478928   21.076389 H          1 MOL1         0.0687
       7    C3      20.407499   19.310190   22.810461 C.3        1 MOL1        -0.1974
       8    H3      21.293592   19.379563   23.456138 H          1 MOL1         0.0689
       9    H4      19.780665   20.183378   23.039685 H          1 MOL1         0.0689
      10    C4      19.639568   18.015002   23.146169 C.3        1 MOL1        -0.2987
      11    H5      20.256764   17.129534   22.945153 H          1 MOL1         0.0700
      12    H6      19.355565   17.997434   24.206418 H          1 MOL1         0.0700
      13    H7      18.721671   17.934316   22.548858 H          1 MOL1         0.0700
@<TRIPOS>BOND
    1     1     2    1
    2     1     3    2
    3     1     4    1
    4     4     5    1
    5     4     6    1
    6     4     7    1
    7     7     8    1
    8     7     9    1
    9     7    10    1
   10    10    11    1
   11    10    12    1
   12    10    13    1
@<TRIPOS>SUBSTRUCTURE
       1 MOL1            1 RESIDUE      1      MOL     
@<SCITEGIC>MOL_PROPERTY
VConf Rank
SciTegic.value.IntegerValue
724

@<SCITEGIC>MOL_PROPERTY
Conf_Id
SciTegic.value.IntegerValue
36

@<SCITEGIC>MOL_PROPERTY
Delta U+W
SciTegic.value.DoubleValue
0.272

@<SCITEGIC>MOL_PROPERTY
U+W
SciTegic.value.DoubleValue
-58.060

@<SCITEGIC>MOL_PROPERTY
Grad RMS
SciTegic.value.DoubleValue
0.000000

@<SCITEGIC>MOL_PROPERTY
U
SciTegic.value.DoubleValue
9.781

@<SCITEGIC>MOL_PROPERTY
W
SciTegic.value.DoubleValue
-67.841

@<SCITEGIC>MOL_PROPERTY
W(PB)
SciTegic.value.DoubleValue
-69.537

@<SCITEGIC>MOL_PROPERTY
W(SA)
SciTegic.value.DoubleValue
1.696

@<SCITEGIC>MOL_PROPERTY
Valence
SciTegic.value.DoubleValue
6.123

@<SCITEGIC>MOL_PROPERTY
Coulomb
SciTegic.value.DoubleValue
3.449

@<SCITEGIC>MOL_PROPERTY
VdW
SciTegic.value.DoubleValue
0.209

@<SCITEGIC>MOL_PROPERTY
VdW6
SciTegic.value.DoubleValue
-3.762

@<SCITEGIC>MOL_PROPERTY
VdW12
SciTegic.value.DoubleValue
3.972

@<SCITEGIC>MOL_PROPERTY
Bond
SciTegic.value.DoubleValue
0.078

@<SCITEGIC>MOL_PROPERTY
Angle
SciTegic.value.DoubleValue
2.428

@<SCITEGIC>MOL_PROPERTY
Pdih
SciTegic.value.DoubleValue
3.616

@<SCITEGIC>MOL_PROPERTY
Idih
SciTegic.value.DoubleValue
0.002

@<SCITEGIC>MOL_PROPERTY
Tether
SciTegic.value.DoubleValue
0.000

@<TRIPOS>MOLECULE
guest-6_confgen4.mol2 : confsearch ligand conformer 725
          13          12           1
SMALL
USER_CHARGES
 
@<TRIPOS>ATOM
       1    C1      20.899426   19.675208   19.997675 C.2        1 MOL1         0.6021
       2    O1      19.897234   19.893323   19.345474 O.co2      1 MOL1        -0.6904
       3    O2      22.020783   19.850843   19.565811 O.co2      1 MOL1        -0.6904
       4    C2      20.775898   19.154813   21.431066 C.3        1 MOL1        -0.2102
       5    H1      21.297202   19.865208   22.083691 H          1 MOL1         0.0687
       6    H2      21.326041   18.207802   21.484453 H          1 MOL1         0.0687
       7    C3      19.325427   18.945792   21.939398 C.3        1 MOL1        -0.1974
       8    H3      18.775008   19.895286   21.882341 H          1 MOL1         0.0689
       9    H4      18.803851   18.235892   21.282318 H          1 MOL1         0.0689
      10    C4      19.300134   18.421112   23.389193 C.3        1 MOL1        -0.2987
      11    H5      19.788876   19.128773   24.071740 H          1 MOL1         0.0700
      12    H6      18.266509   18.279517   23.730995 H          1 MOL1         0.0700
      13    H7      19.818003   17.456075   23.466896 H          1 MOL1         0.0700
@<TRIPOS>BOND
    1     1     2    1
    2     1     3    2
    3     1     4    1
    4     4     5    1
    5     4     6    1
    6     4     7    1
    7     7     8    1
    8     7     9    1
    9     7    10    1
   10    10    11    1
   11    10    12    1
   12    10    13    1
@<TRIPOS>SUBSTRUCTURE
       1 MOL1            1 RESIDUE      1      MOL     
@<SCITEGIC>MOL_PROPERTY
VConf Rank
SciTegic.value.IntegerValue
725

@<SCITEGIC>MOL_PROPERTY
Conf_Id
SciTegic.value.IntegerValue
0

@<SCITEGIC>MOL_PROPERTY
Delta U+W
SciTegic.value.DoubleValue
0.000

@<SCITEGIC>MOL_PROPERTY
U+W
SciTegic.value.DoubleValue
-58.332

@<SCITEGIC>MOL_PROPERTY
Grad RMS
SciTegic.value.DoubleValue
0.000000

@<SCITEGIC>MOL_PROPERTY
U
SciTegic.value.DoubleValue
8.390

@<SCITEGIC>MOL_PROPERTY
W
SciTegic.value.DoubleValue
-66.722

@<SCITEGIC>MOL_PROPERTY
W(PB)
SciTegic.value.DoubleValue
-68.455

@<SCITEGIC>MOL_PROPERTY
W(SA)
SciTegic.value.DoubleValue
1.733

@<SCITEGIC>MOL_PROPERTY
Valence
SciTegic.value.DoubleValue
6.333

@<SCITEGIC>MOL_PROPERTY
Coulomb
SciTegic.value.DoubleValue
1.215

@<SCITEGIC>MOL_PROPERTY
VdW
SciTegic.value.DoubleValue
0.842

@<SCITEGIC>MOL_PROPERTY
VdW6
SciTegic.value.DoubleValue
-3.344

@<SCITEGIC>MOL_PROPERTY
VdW12
SciTegic.value.DoubleValue
4.186

@<SCITEGIC>MOL_PROPERTY
Bond
SciTegic.value.DoubleValue
0.091

@<SCITEGIC>MOL_PROPERTY
Angle
SciTegic.value.DoubleValue
2.713

@<SCITEGIC>MOL_PROPERTY
Pdih
SciTegic.value.DoubleValue
3.529

@<SCITEGIC>MOL_PROPERTY
Idih
SciTegic.value.DoubleValue
0.000

@<SCITEGIC>MOL_PROPERTY
Tether
SciTegic.value.DoubleValue
0.000

@<TRIPOS>MOLECULE
guest-6_confgen4.mol2 : confsearch ligand conformer 726
          13          12           1
SMALL
USER_CHARGES
 
@<TRIPOS>ATOM
       1    C1      19.715420   17.952758   20.042020 C.2        1 MOL1         0.6021
       2    O1      20.709680   17.776788   19.366859 O.co2      1 MOL1        -0.6904
       3    O2      18.587637   17.942516   19.591066 O.co2      1 MOL1        -0.6904
       4    C2      19.893772   18.219613   21.532818 C.3        1 MOL1        -0.2102
       5    H1      20.776865   17.666603   21.875377 H          1 MOL1         0.0687
       6    H2      19.026906   17.803252   22.060271 H          1 MOL1         0.0687
       7    C3      20.046160   19.724077   21.863292 C.3        1 MOL1        -0.1974
       8    H3      20.911095   20.132415   21.322025 H          1 MOL1         0.0689
       9    H4      19.160763   20.269057   21.507074 H          1 MOL1         0.0689
      10    C4      20.224571   19.960079   23.376488 C.3        1 MOL1        -0.2987
      11    H5      20.330862   21.031527   23.590874 H          1 MOL1         0.0700
      12    H6      19.357585   19.586554   23.937174 H          1 MOL1         0.0700
      13    H7      21.121358   19.448897   23.750685 H          1 MOL1         0.0700
@<TRIPOS>BOND
    1     1     2    1
    2     1     3    2
    3     1     4    1
    4     4     5    1
    5     4     6    1
    6     4     7    1
    7     7     8    1
    8     7     9    1
    9     7    10    1
   10    10    11    1
   11    10    12    1
   12    10    13    1
@<TRIPOS>SUBSTRUCTURE
       1 MOL1            1 RESIDUE      1      MOL     
@<SCITEGIC>MOL_PROPERTY
VConf Rank
SciTegic.value.IntegerValue
726

@<SCITEGIC>MOL_PROPERTY
Conf_Id
SciTegic.value.IntegerValue
1

@<SCITEGIC>MOL_PROPERTY
Delta U+W
SciTegic.value.DoubleValue
-1.339

@<SCITEGIC>MOL_PROPERTY
U+W
SciTegic.value.DoubleValue
-59.672

@<SCITEGIC>MOL_PROPERTY
Grad RMS
SciTegic.value.DoubleValue
0.000000

@<SCITEGIC>MOL_PROPERTY
U
SciTegic.value.DoubleValue
7.389

@<SCITEGIC>MOL_PROPERTY
W
SciTegic.value.DoubleValue
-67.061

@<SCITEGIC>MOL_PROPERTY
W(PB)
SciTegic.value.DoubleValue
-68.767

@<SCITEGIC>MOL_PROPERTY
W(SA)
SciTegic.value.DoubleValue
1.707

@<SCITEGIC>MOL_PROPERTY
Valence
SciTegic.value.DoubleValue
5.822

@<SCITEGIC>MOL_PROPERTY
Coulomb
SciTegic.value.DoubleValue
1.255

@<SCITEGIC>MOL_PROPERTY
VdW
SciTegic.value.DoubleValue
0.312

@<SCITEGIC>MOL_PROPERTY
VdW6
SciTegic.value.DoubleValue
-3.061

@<SCITEGIC>MOL_PROPERTY
VdW12
SciTegic.value.DoubleValue
3.372

@<SCITEGIC>MOL_PROPERTY
Bond
SciTegic.value.DoubleValue
0.059

@<SCITEGIC>MOL_PROPERTY
Angle
SciTegic.value.DoubleValue
2.241

@<SCITEGIC>MOL_PROPERTY
Pdih
SciTegic.value.DoubleValue
3.522

@<SCITEGIC>MOL_PROPERTY
Idih
SciTegic.value.DoubleValue
0.000

@<SCITEGIC>MOL_PROPERTY
Tether
SciTegic.value.DoubleValue
0.000

@<TRIPOS>MOLECULE
guest-6_confgen4.mol2 : confsearch ligand conformer 727
          13          12           1
SMALL
USER_CHARGES
 
@<TRIPOS>ATOM
       1    C1      20.890436   17.815499   23.136140 C.2        1 MOL1         0.6021
       2    O1      20.231996   17.513058   24.111376 O.co2      1 MOL1        -0.6904
       3    O2      21.573098   17.023685   22.517345 O.co2      1 MOL1        -0.6904
       4    C2      20.886092   19.275065   22.688509 C.3        1 MOL1        -0.2102
       5    H1      21.746170   19.442841   22.028656 H          1 MOL1         0.0687
       6    H2      21.046899   19.891340   23.581108 H          1 MOL1         0.0687
       7    C3      19.578299   19.718995   21.984277 C.3        1 MOL1        -0.1974
       8    H3      18.719470   19.508533   22.636994 H          1 MOL1         0.0689
       9    H4      19.601683   20.807061   21.834480 H          1 MOL1         0.0689
      10    C4      19.378005   19.026760   20.620231 C.3        1 MOL1        -0.2987
      11    H5      19.305477   17.937337   20.737383 H          1 MOL1         0.0700
      12    H6      18.455017   19.377328   20.140343 H          1 MOL1         0.0700
      13    H7      20.215543   19.242505   19.943936 H          1 MOL1         0.0700
@<TRIPOS>BOND
    1     1     2    1
    2     1     3    2
    3     1     4    1
    4     4     5    1
    5     4     6    1
    6     4     7    1
    7     7     8    1
    8     7     9    1
    9     7    10    1
   10    10    11    1
   11    10    12    1
   12    10    13    1
@<TRIPOS>SUBSTRUCTURE
       1 MOL1            1 RESIDUE      1      MOL     
@<SCITEGIC>MOL_PROPERTY
VConf Rank
SciTegic.value.IntegerValue
727

@<SCITEGIC>MOL_PROPERTY
Conf_Id
SciTegic.value.IntegerValue
4

@<SCITEGIC>MOL_PROPERTY
Delta U+W
SciTegic.value.DoubleValue
0.281

@<SCITEGIC>MOL_PROPERTY
U+W
SciTegic.value.DoubleValue
-58.051

@<SCITEGIC>MOL_PROPERTY
Grad RMS
SciTegic.value.DoubleValue
0.000000

@<SCITEGIC>MOL_PROPERTY
U
SciTegic.value.DoubleValue
9.781

@<SCITEGIC>MOL_PROPERTY
W
SciTegic.value.DoubleValue
-67.832

@<SCITEGIC>MOL_PROPERTY
W(PB)
SciTegic.value.DoubleValue
-69.535

@<SCITEGIC>MOL_PROPERTY
W(SA)
SciTegic.value.DoubleValue
1.703

@<SCITEGIC>MOL_PROPERTY
Valence
SciTegic.value.DoubleValue
6.123

@<SCITEGIC>MOL_PROPERTY
Coulomb
SciTegic.value.DoubleValue
3.449

@<SCITEGIC>MOL_PROPERTY
VdW
SciTegic.value.DoubleValue
0.209

@<SCITEGIC>MOL_PROPERTY
VdW6
SciTegic.value.DoubleValue
-3.762

@<SCITEGIC>MOL_PROPERTY
VdW12
SciTegic.value.DoubleValue
3.972

@<SCITEGIC>MOL_PROPERTY
Bond
SciTegic.value.DoubleValue
0.078

@<SCITEGIC>MOL_PROPERTY
Angle
SciTegic.value.DoubleValue
2.428

@<SCITEGIC>MOL_PROPERTY
Pdih
SciTegic.value.DoubleValue
3.616

@<SCITEGIC>MOL_PROPERTY
Idih
SciTegic.value.DoubleValue
0.002

@<SCITEGIC>MOL_PROPERTY
Tether
SciTegic.value.DoubleValue
0.000

@<TRIPOS>MOLECULE
guest-6_confgen4.mol2 : confsearch ligand conformer 728
          13          12           1
SMALL
USER_CHARGES
 
@<TRIPOS>ATOM
       1    C1      18.583398   18.118291   21.626618 C.2        1 MOL1         0.6021
       2    O1      18.429825   18.060754   20.422870 O.co2      1 MOL1        -0.6904
       3    O2      18.274939   17.220359   22.384687 O.co2      1 MOL1        -0.6904
       4    C2      19.160939   19.398965   22.224151 C.3        1 MOL1        -0.2102
       5    H1      18.518715   19.685933   23.065331 H          1 MOL1         0.0687
       6    H2      19.083839   20.200318   21.479050 H          1 MOL1         0.0687
       7    C3      20.625255   19.265876   22.715480 C.3        1 MOL1        -0.1974
       8    H3      20.905825   20.176848   23.261632 H          1 MOL1         0.0689
       9    H4      20.699231   18.434007   23.429934 H          1 MOL1         0.0689
      10    C4      21.619358   19.047038   21.556259 C.3        1 MOL1        -0.2987
      11    H5      21.577614   19.879059   20.841143 H          1 MOL1         0.0700
      12    H6      22.646976   18.976802   21.935949 H          1 MOL1         0.0700
      13    H7      21.395095   18.118925   21.013913 H          1 MOL1         0.0700
@<TRIPOS>BOND
    1     1     2    1
    2     1     3    2
    3     1     4    1
    4     4     5    1
    5     4     6    1
    6     4     7    1
    7     7     8    1
    8     7     9    1
    9     7    10    1
   10    10    11    1
   11    10    12    1
   12    10    13    1
@<TRIPOS>SUBSTRUCTURE
       1 MOL1            1 RESIDUE      1      MOL     
@<SCITEGIC>MOL_PROPERTY
VConf Rank
SciTegic.value.IntegerValue
728

@<SCITEGIC>MOL_PROPERTY
Conf_Id
SciTegic.value.IntegerValue
36

@<SCITEGIC>MOL_PROPERTY
Delta U+W
SciTegic.value.DoubleValue
0.272

@<SCITEGIC>MOL_PROPERTY
U+W
SciTegic.value.DoubleValue
-58.060

@<SCITEGIC>MOL_PROPERTY
Grad RMS
SciTegic.value.DoubleValue
0.000000

@<SCITEGIC>MOL_PROPERTY
U
SciTegic.value.DoubleValue
9.781

@<SCITEGIC>MOL_PROPERTY
W
SciTegic.value.DoubleValue
-67.841

@<SCITEGIC>MOL_PROPERTY
W(PB)
SciTegic.value.DoubleValue
-69.537

@<SCITEGIC>MOL_PROPERTY
W(SA)
SciTegic.value.DoubleValue
1.696

@<SCITEGIC>MOL_PROPERTY
Valence
SciTegic.value.DoubleValue
6.123

@<SCITEGIC>MOL_PROPERTY
Coulomb
SciTegic.value.DoubleValue
3.449

@<SCITEGIC>MOL_PROPERTY
VdW
SciTegic.value.DoubleValue
0.209

@<SCITEGIC>MOL_PROPERTY
VdW6
SciTegic.value.DoubleValue
-3.762

@<SCITEGIC>MOL_PROPERTY
VdW12
SciTegic.value.DoubleValue
3.972

@<SCITEGIC>MOL_PROPERTY
Bond
SciTegic.value.DoubleValue
0.078

@<SCITEGIC>MOL_PROPERTY
Angle
SciTegic.value.DoubleValue
2.428

@<SCITEGIC>MOL_PROPERTY
Pdih
SciTegic.value.DoubleValue
3.616

@<SCITEGIC>MOL_PROPERTY
Idih
SciTegic.value.DoubleValue
0.002

@<SCITEGIC>MOL_PROPERTY
Tether
SciTegic.value.DoubleValue
0.000

@<TRIPOS>MOLECULE
guest-6_confgen4.mol2 : confsearch ligand conformer 729
          13          12           1
SMALL
USER_CHARGES
 
@<TRIPOS>ATOM
       1    C1      22.085572   18.516282   22.060119 C.2        1 MOL1         0.6021
       2    O1      22.114755   18.285424   23.253091 O.co2      1 MOL1        -0.6904
       3    O2      23.066360   18.441698   21.347877 O.co2      1 MOL1        -0.6904
       4    C2      20.768450   18.921999   21.395840 C.3        1 MOL1        -0.2102
       5    H1      20.568499   18.199087   20.595993 H          1 MOL1         0.0687
       6    H2      20.929550   19.894496   20.915596 H          1 MOL1         0.0687
       7    C3      19.543674   19.004067   22.344073 C.3        1 MOL1        -0.1974
       8    H3      19.385737   18.029350   22.826502 H          1 MOL1         0.0689
       9    H4      19.747261   19.726794   23.146551 H          1 MOL1         0.0689
      10    C4      18.265147   19.418869   21.588332 C.3        1 MOL1        -0.2987
      11    H5      18.022369   18.694498   20.799745 H          1 MOL1         0.0700
      12    H6      17.410187   19.471523   22.275011 H          1 MOL1         0.0700
      13    H7      18.386829   20.405555   21.122321 H          1 MOL1         0.0700
@<TRIPOS>BOND
    1     1     2    1
    2     1     3    2
    3     1     4    1
    4     4     5    1
    5     4     6    1
    6     4     7    1
    7     7     8    1
    8     7     9    1
    9     7    10    1
   10    10    11    1
   11    10    12    1
   12    10    13    1
@<TRIPOS>SUBSTRUCTURE
       1 MOL1            1 RESIDUE      1      MOL     
@<SCITEGIC>MOL_PROPERTY
VConf Rank
SciTegic.value.IntegerValue
729

@<SCITEGIC>MOL_PROPERTY
Conf_Id
SciTegic.value.IntegerValue
0

@<SCITEGIC>MOL_PROPERTY
Delta U+W
SciTegic.value.DoubleValue
0.000

@<SCITEGIC>MOL_PROPERTY
U+W
SciTegic.value.DoubleValue
-58.332

@<SCITEGIC>MOL_PROPERTY
Grad RMS
SciTegic.value.DoubleValue
0.000000

@<SCITEGIC>MOL_PROPERTY
U
SciTegic.value.DoubleValue
8.390

@<SCITEGIC>MOL_PROPERTY
W
SciTegic.value.DoubleValue
-66.722

@<SCITEGIC>MOL_PROPERTY
W(PB)
SciTegic.value.DoubleValue
-68.455

@<SCITEGIC>MOL_PROPERTY
W(SA)
SciTegic.value.DoubleValue
1.733

@<SCITEGIC>MOL_PROPERTY
Valence
SciTegic.value.DoubleValue
6.333

@<SCITEGIC>MOL_PROPERTY
Coulomb
SciTegic.value.DoubleValue
1.215

@<SCITEGIC>MOL_PROPERTY
VdW
SciTegic.value.DoubleValue
0.842

@<SCITEGIC>MOL_PROPERTY
VdW6
SciTegic.value.DoubleValue
-3.344

@<SCITEGIC>MOL_PROPERTY
VdW12
SciTegic.value.DoubleValue
4.186

@<SCITEGIC>MOL_PROPERTY
Bond
SciTegic.value.DoubleValue
0.091

@<SCITEGIC>MOL_PROPERTY
Angle
SciTegic.value.DoubleValue
2.713

@<SCITEGIC>MOL_PROPERTY
Pdih
SciTegic.value.DoubleValue
3.529

@<SCITEGIC>MOL_PROPERTY
Idih
SciTegic.value.DoubleValue
0.000

@<SCITEGIC>MOL_PROPERTY
Tether
SciTegic.value.DoubleValue
0.000

@<TRIPOS>MOLECULE
guest-6_confgen4.mol2 : confsearch ligand conformer 730
          13          12           1
SMALL
USER_CHARGES
 
@<TRIPOS>ATOM
       1    C1      19.129423   19.747964   23.626092 C.2        1 MOL1         0.6021
       2    O1      18.661295   20.868119   23.587740 O.co2      1 MOL1        -0.6904
       3    O2      19.512479   19.215433   24.648363 O.co2      1 MOL1        -0.6904
       4    C2      19.260687   18.975845   22.317618 C.3        1 MOL1        -0.2102
       5    H1      18.432433   19.271510   21.662182 H          1 MOL1         0.0687
       6    H2      19.134348   17.908605   22.536837 H          1 MOL1         0.0687
       7    C3      20.614464   19.217006   21.607001 C.3        1 MOL1        -0.1974
       8    H3      20.734448   20.289930   21.401429 H          1 MOL1         0.0689
       9    H4      21.436474   18.926653   22.276192 H          1 MOL1         0.0689
      10    C4      20.715714   18.423415   20.288952 C.3        1 MOL1        -0.2987
      11    H5      21.681447   18.607081   19.800191 H          1 MOL1         0.0700
      12    H6      20.628425   17.344404   20.472450 H          1 MOL1         0.0700
      13    H7      19.921041   18.718171   19.590976 H          1 MOL1         0.0700
@<TRIPOS>BOND
    1     1     2    1
    2     1     3    2
    3     1     4    1
    4     4     5    1
    5     4     6    1
    6     4     7    1
    7     7     8    1
    8     7     9    1
    9     7    10    1
   10    10    11    1
   11    10    12    1
   12    10    13    1
@<TRIPOS>SUBSTRUCTURE
       1 MOL1            1 RESIDUE      1      MOL     
@<SCITEGIC>MOL_PROPERTY
VConf Rank
SciTegic.value.IntegerValue
730

@<SCITEGIC>MOL_PROPERTY
Conf_Id
SciTegic.value.IntegerValue
1

@<SCITEGIC>MOL_PROPERTY
Delta U+W
SciTegic.value.DoubleValue
-1.339

@<SCITEGIC>MOL_PROPERTY
U+W
SciTegic.value.DoubleValue
-59.672

@<SCITEGIC>MOL_PROPERTY
Grad RMS
SciTegic.value.DoubleValue
0.000000

@<SCITEGIC>MOL_PROPERTY
U
SciTegic.value.DoubleValue
7.389

@<SCITEGIC>MOL_PROPERTY
W
SciTegic.value.DoubleValue
-67.061

@<SCITEGIC>MOL_PROPERTY
W(PB)
SciTegic.value.DoubleValue
-68.767

@<SCITEGIC>MOL_PROPERTY
W(SA)
SciTegic.value.DoubleValue
1.707

@<SCITEGIC>MOL_PROPERTY
Valence
SciTegic.value.DoubleValue
5.822

@<SCITEGIC>MOL_PROPERTY
Coulomb
SciTegic.value.DoubleValue
1.255

@<SCITEGIC>MOL_PROPERTY
VdW
SciTegic.value.DoubleValue
0.312

@<SCITEGIC>MOL_PROPERTY
VdW6
SciTegic.value.DoubleValue
-3.061

@<SCITEGIC>MOL_PROPERTY
VdW12
SciTegic.value.DoubleValue
3.372

@<SCITEGIC>MOL_PROPERTY
Bond
SciTegic.value.DoubleValue
0.059

@<SCITEGIC>MOL_PROPERTY
Angle
SciTegic.value.DoubleValue
2.241

@<SCITEGIC>MOL_PROPERTY
Pdih
SciTegic.value.DoubleValue
3.522

@<SCITEGIC>MOL_PROPERTY
Idih
SciTegic.value.DoubleValue
0.000

@<SCITEGIC>MOL_PROPERTY
Tether
SciTegic.value.DoubleValue
0.000

@<TRIPOS>MOLECULE
guest-6_confgen4.mol2 : confsearch ligand conformer 731
          13          12           1
SMALL
USER_CHARGES
 
@<TRIPOS>ATOM
       1    C1      21.743980   18.400932   21.478111 C.2        1 MOL1         0.6021
       2    O1      21.847053   17.210482   21.258334 O.co2      1 MOL1        -0.6904
       3    O2      22.276332   19.255812   20.798637 O.co2      1 MOL1        -0.6904
       4    C2      20.931788   18.841348   22.693474 C.3        1 MOL1        -0.2102
       5    H1      21.195134   19.878439   22.935090 H          1 MOL1         0.0687
       6    H2      21.254262   18.226813   23.542440 H          1 MOL1         0.0687
       7    C3      19.397745   18.708055   22.513798 C.3        1 MOL1        -0.1974
       8    H3      19.148904   17.675398   22.231629 H          1 MOL1         0.0689
       9    H4      18.904622   18.899689   23.476596 H          1 MOL1         0.0689
      10    C4      18.839799   19.685359   21.458571 C.3        1 MOL1        -0.2987
      11    H5      19.279418   19.492905   20.470885 H          1 MOL1         0.0700
      12    H6      17.750756   19.579038   21.370378 H          1 MOL1         0.0700
      13    H7      19.058391   20.725739   21.732832 H          1 MOL1         0.0700
@<TRIPOS>BOND
    1     1     2    1
    2     1     3    2
    3     1     4    1
    4     4     5    1
    5     4     6    1
    6     4     7    1
    7     7     8    1
    8     7     9    1
    9     7    10    1
   10    10    11    1
   11    10    12    1
   12    10    13    1
@<TRIPOS>SUBSTRUCTURE
       1 MOL1            1 RESIDUE      1      MOL     
@<SCITEGIC>MOL_PROPERTY
VConf Rank
SciTegic.value.IntegerValue
731

@<SCITEGIC>MOL_PROPERTY
Conf_Id
SciTegic.value.IntegerValue
4

@<SCITEGIC>MOL_PROPERTY
Delta U+W
SciTegic.value.DoubleValue
0.281

@<SCITEGIC>MOL_PROPERTY
U+W
SciTegic.value.DoubleValue
-58.051

@<SCITEGIC>MOL_PROPERTY
Grad RMS
SciTegic.value.DoubleValue
0.000000

@<SCITEGIC>MOL_PROPERTY
U
SciTegic.value.DoubleValue
9.781

@<SCITEGIC>MOL_PROPERTY
W
SciTegic.value.DoubleValue
-67.832

@<SCITEGIC>MOL_PROPERTY
W(PB)
SciTegic.value.DoubleValue
-69.535

@<SCITEGIC>MOL_PROPERTY
W(SA)
SciTegic.value.DoubleValue
1.703

@<SCITEGIC>MOL_PROPERTY
Valence
SciTegic.value.DoubleValue
6.123

@<SCITEGIC>MOL_PROPERTY
Coulomb
SciTegic.value.DoubleValue
3.449

@<SCITEGIC>MOL_PROPERTY
VdW
SciTegic.value.DoubleValue
0.209

@<SCITEGIC>MOL_PROPERTY
VdW6
SciTegic.value.DoubleValue
-3.762

@<SCITEGIC>MOL_PROPERTY
VdW12
SciTegic.value.DoubleValue
3.972

@<SCITEGIC>MOL_PROPERTY
Bond
SciTegic.value.DoubleValue
0.078

@<SCITEGIC>MOL_PROPERTY
Angle
SciTegic.value.DoubleValue
2.428

@<SCITEGIC>MOL_PROPERTY
Pdih
SciTegic.value.DoubleValue
3.616

@<SCITEGIC>MOL_PROPERTY
Idih
SciTegic.value.DoubleValue
0.002

@<SCITEGIC>MOL_PROPERTY
Tether
SciTegic.value.DoubleValue
0.000

@<TRIPOS>MOLECULE
guest-6_confgen4.mol2 : confsearch ligand conformer 732
          13          12           1
SMALL
USER_CHARGES
 
@<TRIPOS>ATOM
       1    C1      19.198944   20.482553   21.724853 C.2        1 MOL1         0.6021
       2    O1      19.012202   20.637611   20.534479 O.co2      1 MOL1        -0.6904
       3    O2      18.378630   20.768582   22.574188 O.co2      1 MOL1        -0.6904
       4    C2      20.547838   19.933076   22.182327 C.3        1 MOL1        -0.2102
       5    H1      20.906793   20.579714   22.991893 H          1 MOL1         0.0687
       6    H2      21.264804   20.030263   21.357826 H          1 MOL1         0.0687
       7    C3      20.499956   18.464941   22.677932 C.3        1 MOL1        -0.1974
       8    H3      21.469207   18.204013   23.124409 H          1 MOL1         0.0689
       9    H4      19.749371   18.370251   23.475163 H          1 MOL1         0.0689
      10    C4      20.183354   17.468828   21.543274 C.3        1 MOL1        -0.2987
      11    H5      20.934748   17.531300   20.745216 H          1 MOL1         0.0700
      12    H6      20.176435   16.438978   21.923349 H          1 MOL1         0.0700
      13    H7      19.198728   17.673062   21.102110 H          1 MOL1         0.0700
@<TRIPOS>BOND
    1     1     2    1
    2     1     3    2
    3     1     4    1
    4     4     5    1
    5     4     6    1
    6     4     7    1
    7     7     8    1
    8     7     9    1
    9     7    10    1
   10    10    11    1
   11    10    12    1
   12    10    13    1
@<TRIPOS>SUBSTRUCTURE
       1 MOL1            1 RESIDUE      1      MOL     
@<SCITEGIC>MOL_PROPERTY
VConf Rank
SciTegic.value.IntegerValue
732

@<SCITEGIC>MOL_PROPERTY
Conf_Id
SciTegic.value.IntegerValue
36

@<SCITEGIC>MOL_PROPERTY
Delta U+W
SciTegic.value.DoubleValue
0.272

@<SCITEGIC>MOL_PROPERTY
U+W
SciTegic.value.DoubleValue
-58.060

@<SCITEGIC>MOL_PROPERTY
Grad RMS
SciTegic.value.DoubleValue
0.000000

@<SCITEGIC>MOL_PROPERTY
U
SciTegic.value.DoubleValue
9.781

@<SCITEGIC>MOL_PROPERTY
W
SciTegic.value.DoubleValue
-67.841

@<SCITEGIC>MOL_PROPERTY
W(PB)
SciTegic.value.DoubleValue
-69.537

@<SCITEGIC>MOL_PROPERTY
W(SA)
SciTegic.value.DoubleValue
1.696

@<SCITEGIC>MOL_PROPERTY
Valence
SciTegic.value.DoubleValue
6.123

@<SCITEGIC>MOL_PROPERTY
Coulomb
SciTegic.value.DoubleValue
3.449

@<SCITEGIC>MOL_PROPERTY
VdW
SciTegic.value.DoubleValue
0.209

@<SCITEGIC>MOL_PROPERTY
VdW6
SciTegic.value.DoubleValue
-3.762

@<SCITEGIC>MOL_PROPERTY
VdW12
SciTegic.value.DoubleValue
3.972

@<SCITEGIC>MOL_PROPERTY
Bond
SciTegic.value.DoubleValue
0.078

@<SCITEGIC>MOL_PROPERTY
Angle
SciTegic.value.DoubleValue
2.428

@<SCITEGIC>MOL_PROPERTY
Pdih
SciTegic.value.DoubleValue
3.616

@<SCITEGIC>MOL_PROPERTY
Idih
SciTegic.value.DoubleValue
0.002

@<SCITEGIC>MOL_PROPERTY
Tether
SciTegic.value.DoubleValue
0.000

@<TRIPOS>MOLECULE
guest-6_confgen4.mol2 : confsearch ligand conformer 733
          13          12           1
SMALL
USER_CHARGES
 
@<TRIPOS>ATOM
       1    C1      18.332774   18.373249   20.681462 C.2        1 MOL1         0.6021
       2    O1      17.782794   17.653588   21.491980 O.co2      1 MOL1        -0.6904
       3    O2      17.894785   18.568331   19.565709 O.co2      1 MOL1        -0.6904
       4    C2      19.637979   19.079467   21.053457 C.3        1 MOL1        -0.2102
       5    H1      19.477141   20.156085   20.921691 H          1 MOL1         0.0687
       6    H2      20.394940   18.776676   20.320201 H          1 MOL1         0.0687
       7    C3      20.158922   18.800715   22.487637 C.3        1 MOL1        -0.1974
       8    H3      19.397737   19.102140   23.220778 H          1 MOL1         0.0689
       9    H4      20.316597   17.721017   22.618577 H          1 MOL1         0.0689
      10    C4      21.474998   19.552467   22.771621 C.3        1 MOL1        -0.2987
      11    H5      21.335895   20.637511   22.677533 H          1 MOL1         0.0700
      12    H6      21.827716   19.343071   23.789953 H          1 MOL1         0.0700
      13    H7      22.262114   19.245328   22.070452 H          1 MOL1         0.0700
@<TRIPOS>BOND
    1     1     2    1
    2     1     3    2
    3     1     4    1
    4     4     5    1
    5     4     6    1
    6     4     7    1
    7     7     8    1
    8     7     9    1
    9     7    10    1
   10    10    11    1
   11    10    12    1
   12    10    13    1
@<TRIPOS>SUBSTRUCTURE
       1 MOL1            1 RESIDUE      1      MOL     
@<SCITEGIC>MOL_PROPERTY
VConf Rank
SciTegic.value.IntegerValue
733

@<SCITEGIC>MOL_PROPERTY
Conf_Id
SciTegic.value.IntegerValue
0

@<SCITEGIC>MOL_PROPERTY
Delta U+W
SciTegic.value.DoubleValue
0.000

@<SCITEGIC>MOL_PROPERTY
U+W
SciTegic.value.DoubleValue
-58.332

@<SCITEGIC>MOL_PROPERTY
Grad RMS
SciTegic.value.DoubleValue
0.000000

@<SCITEGIC>MOL_PROPERTY
U
SciTegic.value.DoubleValue
8.390

@<SCITEGIC>MOL_PROPERTY
W
SciTegic.value.DoubleValue
-66.722

@<SCITEGIC>MOL_PROPERTY
W(PB)
SciTegic.value.DoubleValue
-68.455

@<SCITEGIC>MOL_PROPERTY
W(SA)
SciTegic.value.DoubleValue
1.733

@<SCITEGIC>MOL_PROPERTY
Valence
SciTegic.value.DoubleValue
6.333

@<SCITEGIC>MOL_PROPERTY
Coulomb
SciTegic.value.DoubleValue
1.215

@<SCITEGIC>MOL_PROPERTY
VdW
SciTegic.value.DoubleValue
0.842

@<SCITEGIC>MOL_PROPERTY
VdW6
SciTegic.value.DoubleValue
-3.344

@<SCITEGIC>MOL_PROPERTY
VdW12
SciTegic.value.DoubleValue
4.186

@<SCITEGIC>MOL_PROPERTY
Bond
SciTegic.value.DoubleValue
0.091

@<SCITEGIC>MOL_PROPERTY
Angle
SciTegic.value.DoubleValue
2.713

@<SCITEGIC>MOL_PROPERTY
Pdih
SciTegic.value.DoubleValue
3.529

@<SCITEGIC>MOL_PROPERTY
Idih
SciTegic.value.DoubleValue
0.000

@<SCITEGIC>MOL_PROPERTY
Tether
SciTegic.value.DoubleValue
0.000

@<TRIPOS>MOLECULE
guest-6_confgen4.mol2 : confsearch ligand conformer 734
          13          12           1
SMALL
USER_CHARGES
 
@<TRIPOS>ATOM
       1    C1      19.677913   19.292745   23.905424 C.2        1 MOL1         0.6021
       2    O1      20.101160   20.324528   24.386721 O.co2      1 MOL1        -0.6904
       3    O2      19.500548   18.276478   24.546597 O.co2      1 MOL1        -0.6904
       4    C2      19.370470   19.266325   22.412012 C.3        1 MOL1        -0.2102
       5    H1      19.028792   20.265671   22.116066 H          1 MOL1         0.0687
       6    H2      18.533475   18.576739   22.247915 H          1 MOL1         0.0687
       7    C3      20.585958   18.842738   21.552354 C.3        1 MOL1        -0.1974
       8    H3      21.420921   19.534318   21.732287 H          1 MOL1         0.0689
       9    H4      20.925422   17.845032   21.864072 H          1 MOL1         0.0689
      10    C4      20.242964   18.826092   20.049234 C.3        1 MOL1        -0.2987
      11    H5      21.116262   18.523689   19.456641 H          1 MOL1         0.0700
      12    H6      19.429724   18.118766   19.839746 H          1 MOL1         0.0700
      13    H7      19.929066   19.821014   19.706955 H          1 MOL1         0.0700
@<TRIPOS>BOND
    1     1     2    1
    2     1     3    2
    3     1     4    1
    4     4     5    1
    5     4     6    1
    6     4     7    1
    7     7     8    1
    8     7     9    1
    9     7    10    1
   10    10    11    1
   11    10    12    1
   12    10    13    1
@<TRIPOS>SUBSTRUCTURE
       1 MOL1            1 RESIDUE      1      MOL     
@<SCITEGIC>MOL_PROPERTY
VConf Rank
SciTegic.value.IntegerValue
734

@<SCITEGIC>MOL_PROPERTY
Conf_Id
SciTegic.value.IntegerValue
1

@<SCITEGIC>MOL_PROPERTY
Delta U+W
SciTegic.value.DoubleValue
-1.339

@<SCITEGIC>MOL_PROPERTY
U+W
SciTegic.value.DoubleValue
-59.672

@<SCITEGIC>MOL_PROPERTY
Grad RMS
SciTegic.value.DoubleValue
0.000000

@<SCITEGIC>MOL_PROPERTY
U
SciTegic.value.DoubleValue
7.389

@<SCITEGIC>MOL_PROPERTY
W
SciTegic.value.DoubleValue
-67.061

@<SCITEGIC>MOL_PROPERTY
W(PB)
SciTegic.value.DoubleValue
-68.767

@<SCITEGIC>MOL_PROPERTY
W(SA)
SciTegic.value.DoubleValue
1.707

@<SCITEGIC>MOL_PROPERTY
Valence
SciTegic.value.DoubleValue
5.822

@<SCITEGIC>MOL_PROPERTY
Coulomb
SciTegic.value.DoubleValue
1.255

@<SCITEGIC>MOL_PROPERTY
VdW
SciTegic.value.DoubleValue
0.312

@<SCITEGIC>MOL_PROPERTY
VdW6
SciTegic.value.DoubleValue
-3.061

@<SCITEGIC>MOL_PROPERTY
VdW12
SciTegic.value.DoubleValue
3.372

@<SCITEGIC>MOL_PROPERTY
Bond
SciTegic.value.DoubleValue
0.059

@<SCITEGIC>MOL_PROPERTY
Angle
SciTegic.value.DoubleValue
2.241

@<SCITEGIC>MOL_PROPERTY
Pdih
SciTegic.value.DoubleValue
3.522

@<SCITEGIC>MOL_PROPERTY
Idih
SciTegic.value.DoubleValue
0.000

@<SCITEGIC>MOL_PROPERTY
Tether
SciTegic.value.DoubleValue
0.000

@<TRIPOS>MOLECULE
guest-6_confgen4.mol2 : confsearch ligand conformer 735
          13          12           1
SMALL
USER_CHARGES
 
@<TRIPOS>ATOM
       1    C1      21.092183   17.981709   20.855224 C.2        1 MOL1         0.6021
       2    O1      21.136923   18.383244   19.709420 O.co2      1 MOL1        -0.6904
       3    O2      22.047479   17.506074   21.435815 O.co2      1 MOL1        -0.6904
       4    C2      19.755247   18.046488   21.589481 C.3        1 MOL1        -0.2102
       5    H1      19.797348   17.375240   22.456050 H          1 MOL1         0.0687
       6    H2      18.991251   17.643717   20.913855 H          1 MOL1         0.0687
       7    C3      19.346227   19.472848   22.038411 C.3        1 MOL1        -0.1974
       8    H3      19.347323   20.146221   21.169797 H          1 MOL1         0.0689
       9    H4      18.315569   19.449006   22.417947 H          1 MOL1         0.0689
      10    C4      20.274101   20.035457   23.134974 C.3        1 MOL1        -0.2987
      11    H5      21.308224   20.115106   22.774316 H          1 MOL1         0.0700
      12    H6      19.945668   21.036467   23.443529 H          1 MOL1         0.0700
      13    H7      20.270640   19.388432   24.021956 H          1 MOL1         0.0700
@<TRIPOS>BOND
    1     1     2    1
    2     1     3    2
    3     1     4    1
    4     4     5    1
    5     4     6    1
    6     4     7    1
    7     7     8    1
    8     7     9    1
    9     7    10    1
   10    10    11    1
   11    10    12    1
   12    10    13    1
@<TRIPOS>SUBSTRUCTURE
       1 MOL1            1 RESIDUE      1      MOL     
@<SCITEGIC>MOL_PROPERTY
VConf Rank
SciTegic.value.IntegerValue
735

@<SCITEGIC>MOL_PROPERTY
Conf_Id
SciTegic.value.IntegerValue
4

@<SCITEGIC>MOL_PROPERTY
Delta U+W
SciTegic.value.DoubleValue
0.281

@<SCITEGIC>MOL_PROPERTY
U+W
SciTegic.value.DoubleValue
-58.051

@<SCITEGIC>MOL_PROPERTY
Grad RMS
SciTegic.value.DoubleValue
0.000000

@<SCITEGIC>MOL_PROPERTY
U
SciTegic.value.DoubleValue
9.781

@<SCITEGIC>MOL_PROPERTY
W
SciTegic.value.DoubleValue
-67.832

@<SCITEGIC>MOL_PROPERTY
W(PB)
SciTegic.value.DoubleValue
-69.535

@<SCITEGIC>MOL_PROPERTY
W(SA)
SciTegic.value.DoubleValue
1.703

@<SCITEGIC>MOL_PROPERTY
Valence
SciTegic.value.DoubleValue
6.123

@<SCITEGIC>MOL_PROPERTY
Coulomb
SciTegic.value.DoubleValue
3.449

@<SCITEGIC>MOL_PROPERTY
VdW
SciTegic.value.DoubleValue
0.209

@<SCITEGIC>MOL_PROPERTY
VdW6
SciTegic.value.DoubleValue
-3.762

@<SCITEGIC>MOL_PROPERTY
VdW12
SciTegic.value.DoubleValue
3.972

@<SCITEGIC>MOL_PROPERTY
Bond
SciTegic.value.DoubleValue
0.078

@<SCITEGIC>MOL_PROPERTY
Angle
SciTegic.value.DoubleValue
2.428

@<SCITEGIC>MOL_PROPERTY
Pdih
SciTegic.value.DoubleValue
3.616

@<SCITEGIC>MOL_PROPERTY
Idih
SciTegic.value.DoubleValue
0.002

@<SCITEGIC>MOL_PROPERTY
Tether
SciTegic.value.DoubleValue
0.000

@<TRIPOS>MOLECULE
guest-6_confgen4.mol2 : confsearch ligand conformer 736
          13          12           1
SMALL
USER_CHARGES
 
@<TRIPOS>ATOM
       1    C1      20.309703   18.797646   20.223376 C.2        1 MOL1         0.6021
       2    O1      20.182132   17.630853   19.909966 O.co2      1 MOL1        -0.6904
       3    O2      19.895319   19.720781   19.550914 O.co2      1 MOL1        -0.6904
       4    C2      21.061087   19.125162   21.511351 C.3        1 MOL1        -0.2102
       5    H1      21.792716   19.906513   21.273455 H          1 MOL1         0.0687
       6    H2      21.631542   18.240536   21.820067 H          1 MOL1         0.0687
       7    C3      20.152184   19.605959   22.671552 C.3        1 MOL1        -0.1974
       8    H3      20.781985   19.960122   23.499073 H          1 MOL1         0.0689
       9    H4      19.555099   20.466489   22.338538 H          1 MOL1         0.0689
      10    C4      19.218085   18.492978   23.189875 C.3        1 MOL1        -0.2987
      11    H5      19.795937   17.631177   23.548732 H          1 MOL1         0.0700
      12    H6      18.603553   18.860126   24.022130 H          1 MOL1         0.0700
      13    H7      18.541670   18.144832   22.397989 H          1 MOL1         0.0700
@<TRIPOS>BOND
    1     1     2    1
    2     1     3    2
    3     1     4    1
    4     4     5    1
    5     4     6    1
    6     4     7    1
    7     7     8    1
    8     7     9    1
    9     7    10    1
   10    10    11    1
   11    10    12    1
   12    10    13    1
@<TRIPOS>SUBSTRUCTURE
       1 MOL1            1 RESIDUE      1      MOL     
@<SCITEGIC>MOL_PROPERTY
VConf Rank
SciTegic.value.IntegerValue
736

@<SCITEGIC>MOL_PROPERTY
Conf_Id
SciTegic.value.IntegerValue
36

@<SCITEGIC>MOL_PROPERTY
Delta U+W
SciTegic.value.DoubleValue
0.272

@<SCITEGIC>MOL_PROPERTY
U+W
SciTegic.value.DoubleValue
-58.060

@<SCITEGIC>MOL_PROPERTY
Grad RMS
SciTegic.value.DoubleValue
0.000000

@<SCITEGIC>MOL_PROPERTY
U
SciTegic.value.DoubleValue
9.781

@<SCITEGIC>MOL_PROPERTY
W
SciTegic.value.DoubleValue
-67.841

@<SCITEGIC>MOL_PROPERTY
W(PB)
SciTegic.value.DoubleValue
-69.537

@<SCITEGIC>MOL_PROPERTY
W(SA)
SciTegic.value.DoubleValue
1.696

@<SCITEGIC>MOL_PROPERTY
Valence
SciTegic.value.DoubleValue
6.123

@<SCITEGIC>MOL_PROPERTY
Coulomb
SciTegic.value.DoubleValue
3.449

@<SCITEGIC>MOL_PROPERTY
VdW
SciTegic.value.DoubleValue
0.209

@<SCITEGIC>MOL_PROPERTY
VdW6
SciTegic.value.DoubleValue
-3.762

@<SCITEGIC>MOL_PROPERTY
VdW12
SciTegic.value.DoubleValue
3.972

@<SCITEGIC>MOL_PROPERTY
Bond
SciTegic.value.DoubleValue
0.078

@<SCITEGIC>MOL_PROPERTY
Angle
SciTegic.value.DoubleValue
2.428

@<SCITEGIC>MOL_PROPERTY
Pdih
SciTegic.value.DoubleValue
3.616

@<SCITEGIC>MOL_PROPERTY
Idih
SciTegic.value.DoubleValue
0.002

@<SCITEGIC>MOL_PROPERTY
Tether
SciTegic.value.DoubleValue
0.000

@<TRIPOS>MOLECULE
guest-6_confgen4.mol2 : confsearch ligand conformer 737
          13          12           1
SMALL
USER_CHARGES
 
@<TRIPOS>ATOM
       1    C1      20.211281   17.715597   23.512132 C.2        1 MOL1         0.6021
       2    O1      19.704308   18.412828   24.368974 O.co2      1 MOL1        -0.6904
       3    O2      20.655025   16.607928   23.737871 O.co2      1 MOL1        -0.6904
       4    C2      20.310059   18.228540   22.074143 C.3        1 MOL1        -0.2102
       5    H1      19.793981   17.504972   21.431919 H          1 MOL1         0.0687
       6    H2      21.369306   18.209292   21.791366 H          1 MOL1         0.0687
       7    C3      19.730735   19.647129   21.833422 C.3        1 MOL1        -0.1974
       8    H3      18.669969   19.665030   22.120147 H          1 MOL1         0.0689
       9    H4      20.247182   20.370212   22.480096 H          1 MOL1         0.0689
      10    C4      19.874219   20.078367   20.359895 C.3        1 MOL1        -0.2987
      11    H5      19.339603   19.387719   19.694528 H          1 MOL1         0.0700
      12    H6      19.459237   21.083522   20.209195 H          1 MOL1         0.0700
      13    H7      20.929487   20.098508   20.057362 H          1 MOL1         0.0700
@<TRIPOS>BOND
    1     1     2    1
    2     1     3    2
    3     1     4    1
    4     4     5    1
    5     4     6    1
    6     4     7    1
    7     7     8    1
    8     7     9    1
    9     7    10    1
   10    10    11    1
   11    10    12    1
   12    10    13    1
@<TRIPOS>SUBSTRUCTURE
       1 MOL1            1 RESIDUE      1      MOL     
@<SCITEGIC>MOL_PROPERTY
VConf Rank
SciTegic.value.IntegerValue
737

@<SCITEGIC>MOL_PROPERTY
Conf_Id
SciTegic.value.IntegerValue
0

@<SCITEGIC>MOL_PROPERTY
Delta U+W
SciTegic.value.DoubleValue
0.000

@<SCITEGIC>MOL_PROPERTY
U+W
SciTegic.value.DoubleValue
-58.332

@<SCITEGIC>MOL_PROPERTY
Grad RMS
SciTegic.value.DoubleValue
0.000000

@<SCITEGIC>MOL_PROPERTY
U
SciTegic.value.DoubleValue
8.390

@<SCITEGIC>MOL_PROPERTY
W
SciTegic.value.DoubleValue
-66.722

@<SCITEGIC>MOL_PROPERTY
W(PB)
SciTegic.value.DoubleValue
-68.455

@<SCITEGIC>MOL_PROPERTY
W(SA)
SciTegic.value.DoubleValue
1.733

@<SCITEGIC>MOL_PROPERTY
Valence
SciTegic.value.DoubleValue
6.333

@<SCITEGIC>MOL_PROPERTY
Coulomb
SciTegic.value.DoubleValue
1.215

@<SCITEGIC>MOL_PROPERTY
VdW
SciTegic.value.DoubleValue
0.842

@<SCITEGIC>MOL_PROPERTY
VdW6
SciTegic.value.DoubleValue
-3.344

@<SCITEGIC>MOL_PROPERTY
VdW12
SciTegic.value.DoubleValue
4.186

@<SCITEGIC>MOL_PROPERTY
Bond
SciTegic.value.DoubleValue
0.091

@<SCITEGIC>MOL_PROPERTY
Angle
SciTegic.value.DoubleValue
2.713

@<SCITEGIC>MOL_PROPERTY
Pdih
SciTegic.value.DoubleValue
3.529

@<SCITEGIC>MOL_PROPERTY
Idih
SciTegic.value.DoubleValue
0.000

@<SCITEGIC>MOL_PROPERTY
Tether
SciTegic.value.DoubleValue
0.000

@<TRIPOS>MOLECULE
guest-6_confgen4.mol2 : confsearch ligand conformer 738
          13          12           1
SMALL
USER_CHARGES
 
@<TRIPOS>ATOM
       1    C1      17.912566   18.885387   21.481176 C.2        1 MOL1         0.6021
       2    O1      17.310108   19.934564   21.373315 O.co2      1 MOL1        -0.6904
       3    O2      17.389615   17.843248   21.821512 O.co2      1 MOL1        -0.6904
       4    C2      19.409837   18.880323   21.191947 C.3        1 MOL1        -0.2102
       5    H1      19.609072   19.623553   20.410324 H          1 MOL1         0.0687
       6    H2      19.674632   17.898931   20.779913 H          1 MOL1         0.0687
       7    C3      20.268123   19.181341   22.444378 C.3        1 MOL1        -0.1974
       8    H3      19.987447   20.161772   22.854009 H          1 MOL1         0.0689
       9    H4      20.053114   18.436761   23.223605 H          1 MOL1         0.0689
      10    C4      21.775201   19.169012   22.119029 C.3        1 MOL1        -0.2987
      11    H5      22.366759   19.384226   23.018475 H          1 MOL1         0.0700
      12    H6      22.086189   18.188377   21.735368 H          1 MOL1         0.0700
      13    H7      22.020012   19.926642   21.362972 H          1 MOL1         0.0700
@<TRIPOS>BOND
    1     1     2    1
    2     1     3    2
    3     1     4    1
    4     4     5    1
    5     4     6    1
    6     4     7    1
    7     7     8    1
    8     7     9    1
    9     7    10    1
   10    10    11    1
   11    10    12    1
   12    10    13    1
@<TRIPOS>SUBSTRUCTURE
       1 MOL1            1 RESIDUE      1      MOL     
@<SCITEGIC>MOL_PROPERTY
VConf Rank
SciTegic.value.IntegerValue
738

@<SCITEGIC>MOL_PROPERTY
Conf_Id
SciTegic.value.IntegerValue
1

@<SCITEGIC>MOL_PROPERTY
Delta U+W
SciTegic.value.DoubleValue
-1.339

@<SCITEGIC>MOL_PROPERTY
U+W
SciTegic.value.DoubleValue
-59.672

@<SCITEGIC>MOL_PROPERTY
Grad RMS
SciTegic.value.DoubleValue
0.000000

@<SCITEGIC>MOL_PROPERTY
U
SciTegic.value.DoubleValue
7.389

@<SCITEGIC>MOL_PROPERTY
W
SciTegic.value.DoubleValue
-67.061

@<SCITEGIC>MOL_PROPERTY
W(PB)
SciTegic.value.DoubleValue
-68.767

@<SCITEGIC>MOL_PROPERTY
W(SA)
SciTegic.value.DoubleValue
1.707

@<SCITEGIC>MOL_PROPERTY
Valence
SciTegic.value.DoubleValue
5.822

@<SCITEGIC>MOL_PROPERTY
Coulomb
SciTegic.value.DoubleValue
1.255

@<SCITEGIC>MOL_PROPERTY
VdW
SciTegic.value.DoubleValue
0.312

@<SCITEGIC>MOL_PROPERTY
VdW6
SciTegic.value.DoubleValue
-3.061

@<SCITEGIC>MOL_PROPERTY
VdW12
SciTegic.value.DoubleValue
3.372

@<SCITEGIC>MOL_PROPERTY
Bond
SciTegic.value.DoubleValue
0.059

@<SCITEGIC>MOL_PROPERTY
Angle
SciTegic.value.DoubleValue
2.241

@<SCITEGIC>MOL_PROPERTY
Pdih
SciTegic.value.DoubleValue
3.522

@<SCITEGIC>MOL_PROPERTY
Idih
SciTegic.value.DoubleValue
0.000

@<SCITEGIC>MOL_PROPERTY
Tether
SciTegic.value.DoubleValue
0.000

@<TRIPOS>MOLECULE
guest-6_confgen4.mol2 : confsearch ligand conformer 739
          13          12           1
SMALL
USER_CHARGES
 
@<TRIPOS>ATOM
       1    C1      18.802086   17.768511   21.848793 C.2        1 MOL1         0.6021
       2    O1      18.669003   17.003061   22.782857 O.co2      1 MOL1        -0.6904
       3    O2      17.867842   18.264606   21.251313 O.co2      1 MOL1        -0.6904
       4    C2      20.218213   18.094211   21.380572 C.3        1 MOL1        -0.2102
       5    H1      20.165681   18.516339   20.369466 H          1 MOL1         0.0687
       6    H2      20.762205   17.145568   21.299727 H          1 MOL1         0.0687
       7    C3      20.992326   19.053959   22.320239 C.3        1 MOL1        -0.1974
       8    H3      21.003377   18.641629   23.338956 H          1 MOL1         0.0689
       9    H4      22.039104   19.112330   21.992028 H          1 MOL1         0.0689
      10    C4      20.390361   20.474239   22.339526 C.3        1 MOL1        -0.2987
      11    H5      19.355314   20.459265   22.705970 H          1 MOL1         0.0700
      12    H6      20.972504   21.132220   22.997755 H          1 MOL1         0.0700
      13    H7      20.390167   20.914070   21.333574 H          1 MOL1         0.0700
@<TRIPOS>BOND
    1     1     2    1
    2     1     3    2
    3     1     4    1
    4     4     5    1
    5     4     6    1
    6     4     7    1
    7     7     8    1
    8     7     9    1
    9     7    10    1
   10    10    11    1
   11    10    12    1
   12    10    13    1
@<TRIPOS>SUBSTRUCTURE
       1 MOL1            1 RESIDUE      1      MOL     
@<SCITEGIC>MOL_PROPERTY
VConf Rank
SciTegic.value.IntegerValue
739

@<SCITEGIC>MOL_PROPERTY
Conf_Id
SciTegic.value.IntegerValue
4

@<SCITEGIC>MOL_PROPERTY
Delta U+W
SciTegic.value.DoubleValue
0.281

@<SCITEGIC>MOL_PROPERTY
U+W
SciTegic.value.DoubleValue
-58.051

@<SCITEGIC>MOL_PROPERTY
Grad RMS
SciTegic.value.DoubleValue
0.000000

@<SCITEGIC>MOL_PROPERTY
U
SciTegic.value.DoubleValue
9.781

@<SCITEGIC>MOL_PROPERTY
W
SciTegic.value.DoubleValue
-67.832

@<SCITEGIC>MOL_PROPERTY
W(PB)
SciTegic.value.DoubleValue
-69.535

@<SCITEGIC>MOL_PROPERTY
W(SA)
SciTegic.value.DoubleValue
1.703

@<SCITEGIC>MOL_PROPERTY
Valence
SciTegic.value.DoubleValue
6.123

@<SCITEGIC>MOL_PROPERTY
Coulomb
SciTegic.value.DoubleValue
3.449

@<SCITEGIC>MOL_PROPERTY
VdW
SciTegic.value.DoubleValue
0.209

@<SCITEGIC>MOL_PROPERTY
VdW6
SciTegic.value.DoubleValue
-3.762

@<SCITEGIC>MOL_PROPERTY
VdW12
SciTegic.value.DoubleValue
3.972

@<SCITEGIC>MOL_PROPERTY
Bond
SciTegic.value.DoubleValue
0.078

@<SCITEGIC>MOL_PROPERTY
Angle
SciTegic.value.DoubleValue
2.428

@<SCITEGIC>MOL_PROPERTY
Pdih
SciTegic.value.DoubleValue
3.616

@<SCITEGIC>MOL_PROPERTY
Idih
SciTegic.value.DoubleValue
0.002

@<SCITEGIC>MOL_PROPERTY
Tether
SciTegic.value.DoubleValue
0.000

@<TRIPOS>MOLECULE
guest-6_confgen4.mol2 : confsearch ligand conformer 740
          13          12           1
SMALL
USER_CHARGES
 
@<TRIPOS>ATOM
       1    C1      20.837880   18.796652   23.628191 C.2        1 MOL1         0.6021
       2    O1      22.034976   18.994569   23.567403 O.co2      1 MOL1        -0.6904
       3    O2      20.145431   19.160223   24.557938 O.co2      1 MOL1        -0.6904
       4    C2      20.172372   18.019286   22.495263 C.3        1 MOL1        -0.2102
       5    H1      19.546505   17.244475   22.953895 H          1 MOL1         0.0687
       6    H2      20.949715   17.499923   21.921428 H          1 MOL1         0.0687
       7    C3      19.304798   18.891085   21.551538 C.3        1 MOL1        -0.1974
       8    H3      18.749272   18.236395   20.866231 H          1 MOL1         0.0689
       9    H4      18.556297   19.438600   22.141364 H          1 MOL1         0.0689
      10    C4      20.147089   19.885763   20.726258 C.3        1 MOL1        -0.2987
      11    H5      20.887697   19.357361   20.111699 H          1 MOL1         0.0700
      12    H6      19.505787   20.472436   20.055704 H          1 MOL1         0.0700
      13    H7      20.683192   20.586408   21.380105 H          1 MOL1         0.0700
@<TRIPOS>BOND
    1     1     2    1
    2     1     3    2
    3     1     4    1
    4     4     5    1
    5     4     6    1
    6     4     7    1
    7     7     8    1
    8     7     9    1
    9     7    10    1
   10    10    11    1
   11    10    12    1
   12    10    13    1
@<TRIPOS>SUBSTRUCTURE
       1 MOL1            1 RESIDUE      1      MOL     
@<SCITEGIC>MOL_PROPERTY
VConf Rank
SciTegic.value.IntegerValue
740

@<SCITEGIC>MOL_PROPERTY
Conf_Id
SciTegic.value.IntegerValue
36

@<SCITEGIC>MOL_PROPERTY
Delta U+W
SciTegic.value.DoubleValue
0.272

@<SCITEGIC>MOL_PROPERTY
U+W
SciTegic.value.DoubleValue
-58.060

@<SCITEGIC>MOL_PROPERTY
Grad RMS
SciTegic.value.DoubleValue
0.000000

@<SCITEGIC>MOL_PROPERTY
U
SciTegic.value.DoubleValue
9.781

@<SCITEGIC>MOL_PROPERTY
W
SciTegic.value.DoubleValue
-67.841

@<SCITEGIC>MOL_PROPERTY
W(PB)
SciTegic.value.DoubleValue
-69.537

@<SCITEGIC>MOL_PROPERTY
W(SA)
SciTegic.value.DoubleValue
1.696

@<SCITEGIC>MOL_PROPERTY
Valence
SciTegic.value.DoubleValue
6.123

@<SCITEGIC>MOL_PROPERTY
Coulomb
SciTegic.value.DoubleValue
3.449

@<SCITEGIC>MOL_PROPERTY
VdW
SciTegic.value.DoubleValue
0.209

@<SCITEGIC>MOL_PROPERTY
VdW6
SciTegic.value.DoubleValue
-3.762

@<SCITEGIC>MOL_PROPERTY
VdW12
SciTegic.value.DoubleValue
3.972

@<SCITEGIC>MOL_PROPERTY
Bond
SciTegic.value.DoubleValue
0.078

@<SCITEGIC>MOL_PROPERTY
Angle
SciTegic.value.DoubleValue
2.428

@<SCITEGIC>MOL_PROPERTY
Pdih
SciTegic.value.DoubleValue
3.616

@<SCITEGIC>MOL_PROPERTY
Idih
SciTegic.value.DoubleValue
0.002

@<SCITEGIC>MOL_PROPERTY
Tether
SciTegic.value.DoubleValue
0.000

@<TRIPOS>MOLECULE
guest-6_confgen4.mol2 : confsearch ligand conformer 741
          13          12           1
SMALL
USER_CHARGES
 
@<TRIPOS>ATOM
       1    C1      21.319791   17.368897   21.371279 C.2        1 MOL1         0.6021
       2    O1      21.988532   17.864189   20.485390 O.co2      1 MOL1        -0.6904
       3    O2      21.484722   16.233074   21.768142 O.co2      1 MOL1        -0.6904
       4    C2      20.211867   18.187868   22.036466 C.3        1 MOL1        -0.2102
       5    H1      20.427071   18.218271   23.111222 H          1 MOL1         0.0687
       6    H2      19.274605   17.632286   21.913158 H          1 MOL1         0.0687
       7    C3      20.038055   19.631873   21.497395 C.3        1 MOL1        -0.1974
       8    H3      20.979249   20.186006   21.619235 H          1 MOL1         0.0689
       9    H4      19.825438   19.599307   20.419672 H          1 MOL1         0.0689
      10    C4      18.901877   20.378489   22.225063 C.3        1 MOL1        -0.2987
      11    H5      19.106094   20.451786   23.301374 H          1 MOL1         0.0700
      12    H6      18.794061   21.397265   21.830440 H          1 MOL1         0.0700
      13    H7      17.943029   19.860334   22.092215 H          1 MOL1         0.0700
@<TRIPOS>BOND
    1     1     2    1
    2     1     3    2
    3     1     4    1
    4     4     5    1
    5     4     6    1
    6     4     7    1
    7     7     8    1
    8     7     9    1
    9     7    10    1
   10    10    11    1
   11    10    12    1
   12    10    13    1
@<TRIPOS>SUBSTRUCTURE
       1 MOL1            1 RESIDUE      1      MOL     
@<SCITEGIC>MOL_PROPERTY
VConf Rank
SciTegic.value.IntegerValue
741

@<SCITEGIC>MOL_PROPERTY
Conf_Id
SciTegic.value.IntegerValue
0

@<SCITEGIC>MOL_PROPERTY
Delta U+W
SciTegic.value.DoubleValue
0.000

@<SCITEGIC>MOL_PROPERTY
U+W
SciTegic.value.DoubleValue
-58.332

@<SCITEGIC>MOL_PROPERTY
Grad RMS
SciTegic.value.DoubleValue
0.000000

@<SCITEGIC>MOL_PROPERTY
U
SciTegic.value.DoubleValue
8.390

@<SCITEGIC>MOL_PROPERTY
W
SciTegic.value.DoubleValue
-66.722

@<SCITEGIC>MOL_PROPERTY
W(PB)
SciTegic.value.DoubleValue
-68.455

@<SCITEGIC>MOL_PROPERTY
W(SA)
SciTegic.value.DoubleValue
1.733

@<SCITEGIC>MOL_PROPERTY
Valence
SciTegic.value.DoubleValue
6.333

@<SCITEGIC>MOL_PROPERTY
Coulomb
SciTegic.value.DoubleValue
1.215

@<SCITEGIC>MOL_PROPERTY
VdW
SciTegic.value.DoubleValue
0.842

@<SCITEGIC>MOL_PROPERTY
VdW6
SciTegic.value.DoubleValue
-3.344

@<SCITEGIC>MOL_PROPERTY
VdW12
SciTegic.value.DoubleValue
4.186

@<SCITEGIC>MOL_PROPERTY
Bond
SciTegic.value.DoubleValue
0.091

@<SCITEGIC>MOL_PROPERTY
Angle
SciTegic.value.DoubleValue
2.713

@<SCITEGIC>MOL_PROPERTY
Pdih
SciTegic.value.DoubleValue
3.529

@<SCITEGIC>MOL_PROPERTY
Idih
SciTegic.value.DoubleValue
0.000

@<SCITEGIC>MOL_PROPERTY
Tether
SciTegic.value.DoubleValue
0.000

@<TRIPOS>MOLECULE
guest-6_confgen4.mol2 : confsearch ligand conformer 742
          13          12           1
SMALL
USER_CHARGES
 
@<TRIPOS>ATOM
       1    C1      19.993393   20.791473   23.011400 C.2        1 MOL1         0.6021
       2    O1      21.002301   20.999392   23.655011 O.co2      1 MOL1        -0.6904
       3    O2      18.903336   21.236374   23.310063 O.co2      1 MOL1        -0.6904
       4    C2      20.097401   19.908872   21.772168 C.3        1 MOL1        -0.2102
       5    H1      21.087802   20.061703   21.326333 H          1 MOL1         0.0687
       6    H2      19.356880   20.257149   21.041860 H          1 MOL1         0.0687
       7    C3      19.877427   18.407831   22.079310 C.3        1 MOL1        -0.1974
       8    H3      20.618068   18.072710   22.818882 H          1 MOL1         0.0689
       9    H4      18.886786   18.268182   22.534229 H          1 MOL1         0.0689
      10    C4      19.988958   17.543433   20.807434 C.3        1 MOL1        -0.2987
      11    H5      19.830182   16.483453   21.045114 H          1 MOL1         0.0700
      12    H6      19.237786   17.840281   20.063675 H          1 MOL1         0.0700
      13    H7      20.982355   17.643284   20.350545 H          1 MOL1         0.0700
@<TRIPOS>BOND
    1     1     2    1
    2     1     3    2
    3     1     4    1
    4     4     5    1
    5     4     6    1
    6     4     7    1
    7     7     8    1
    8     7     9    1
    9     7    10    1
   10    10    11    1
   11    10    12    1
   12    10    13    1
@<TRIPOS>SUBSTRUCTURE
       1 MOL1            1 RESIDUE      1      MOL     
@<SCITEGIC>MOL_PROPERTY
VConf Rank
SciTegic.value.IntegerValue
742

@<SCITEGIC>MOL_PROPERTY
Conf_Id
SciTegic.value.IntegerValue
1

@<SCITEGIC>MOL_PROPERTY
Delta U+W
SciTegic.value.DoubleValue
-1.339

@<SCITEGIC>MOL_PROPERTY
U+W
SciTegic.value.DoubleValue
-59.672

@<SCITEGIC>MOL_PROPERTY
Grad RMS
SciTegic.value.DoubleValue
0.000000

@<SCITEGIC>MOL_PROPERTY
U
SciTegic.value.DoubleValue
7.389

@<SCITEGIC>MOL_PROPERTY
W
SciTegic.value.DoubleValue
-67.061

@<SCITEGIC>MOL_PROPERTY
W(PB)
SciTegic.value.DoubleValue
-68.767

@<SCITEGIC>MOL_PROPERTY
W(SA)
SciTegic.value.DoubleValue
1.707

@<SCITEGIC>MOL_PROPERTY
Valence
SciTegic.value.DoubleValue
5.822

@<SCITEGIC>MOL_PROPERTY
Coulomb
SciTegic.value.DoubleValue
1.255

@<SCITEGIC>MOL_PROPERTY
VdW
SciTegic.value.DoubleValue
0.312

@<SCITEGIC>MOL_PROPERTY
VdW6
SciTegic.value.DoubleValue
-3.061

@<SCITEGIC>MOL_PROPERTY
VdW12
SciTegic.value.DoubleValue
3.372

@<SCITEGIC>MOL_PROPERTY
Bond
SciTegic.value.DoubleValue
0.059

@<SCITEGIC>MOL_PROPERTY
Angle
SciTegic.value.DoubleValue
2.241

@<SCITEGIC>MOL_PROPERTY
Pdih
SciTegic.value.DoubleValue
3.522

@<SCITEGIC>MOL_PROPERTY
Idih
SciTegic.value.DoubleValue
0.000

@<SCITEGIC>MOL_PROPERTY
Tether
SciTegic.value.DoubleValue
0.000

@<TRIPOS>MOLECULE
guest-6_confgen4.mol2 : confsearch ligand conformer 743
          13          12           1
SMALL
USER_CHARGES
 
@<TRIPOS>ATOM
       1    C1      21.645254   19.848601   21.644391 C.2        1 MOL1         0.6021
       2    O1      22.439734   19.928999   22.560052 O.co2      1 MOL1        -0.6904
       3    O2      21.971041   19.653036   20.490475 O.co2      1 MOL1        -0.6904
       4    C2      20.163316   20.039413   21.957729 C.3        1 MOL1        -0.2102
       5    H1      19.631705   20.257014   21.023209 H          1 MOL1         0.0687
       6    H2      20.074635   20.932498   22.587745 H          1 MOL1         0.0687
       7    C3      19.506420   18.833578   22.677302 C.3        1 MOL1        -0.1974
       8    H3      20.071070   18.598055   23.590331 H          1 MOL1         0.0689
       9    H4      18.493051   19.113263   22.996259 H          1 MOL1         0.0689
      10    C4      19.424421   17.582679   21.778161 C.3        1 MOL1        -0.2987
      11    H5      20.425498   17.247692   21.475742 H          1 MOL1         0.0700
      12    H6      18.937418   16.755105   22.310181 H          1 MOL1         0.0700
      13    H7      18.844622   17.790075   20.869198 H          1 MOL1         0.0700
@<TRIPOS>BOND
    1     1     2    1
    2     1     3    2
    3     1     4    1
    4     4     5    1
    5     4     6    1
    6     4     7    1
    7     7     8    1
    8     7     9    1
    9     7    10    1
   10    10    11    1
   11    10    12    1
   12    10    13    1
@<TRIPOS>SUBSTRUCTURE
       1 MOL1            1 RESIDUE      1      MOL     
@<SCITEGIC>MOL_PROPERTY
VConf Rank
SciTegic.value.IntegerValue
743

@<SCITEGIC>MOL_PROPERTY
Conf_Id
SciTegic.value.IntegerValue
4

@<SCITEGIC>MOL_PROPERTY
Delta U+W
SciTegic.value.DoubleValue
0.281

@<SCITEGIC>MOL_PROPERTY
U+W
SciTegic.value.DoubleValue
-58.051

@<SCITEGIC>MOL_PROPERTY
Grad RMS
SciTegic.value.DoubleValue
0.000000

@<SCITEGIC>MOL_PROPERTY
U
SciTegic.value.DoubleValue
9.781

@<SCITEGIC>MOL_PROPERTY
W
SciTegic.value.DoubleValue
-67.832

@<SCITEGIC>MOL_PROPERTY
W(PB)
SciTegic.value.DoubleValue
-69.535

@<SCITEGIC>MOL_PROPERTY
W(SA)
SciTegic.value.DoubleValue
1.703

@<SCITEGIC>MOL_PROPERTY
Valence
SciTegic.value.DoubleValue
6.123

@<SCITEGIC>MOL_PROPERTY
Coulomb
SciTegic.value.DoubleValue
3.449

@<SCITEGIC>MOL_PROPERTY
VdW
SciTegic.value.DoubleValue
0.209

@<SCITEGIC>MOL_PROPERTY
VdW6
SciTegic.value.DoubleValue
-3.762

@<SCITEGIC>MOL_PROPERTY
VdW12
SciTegic.value.DoubleValue
3.972

@<SCITEGIC>MOL_PROPERTY
Bond
SciTegic.value.DoubleValue
0.078

@<SCITEGIC>MOL_PROPERTY
Angle
SciTegic.value.DoubleValue
2.428

@<SCITEGIC>MOL_PROPERTY
Pdih
SciTegic.value.DoubleValue
3.616

@<SCITEGIC>MOL_PROPERTY
Idih
SciTegic.value.DoubleValue
0.002

@<SCITEGIC>MOL_PROPERTY
Tether
SciTegic.value.DoubleValue
0.000

@<TRIPOS>MOLECULE
guest-6_confgen4.mol2 : confsearch ligand conformer 744
          13          12           1
SMALL
USER_CHARGES
 
@<TRIPOS>ATOM
       1    C1      19.213300   17.445388   21.721082 C.2        1 MOL1         0.6021
       2    O1      18.430975   17.265289   22.632914 O.co2      1 MOL1        -0.6904
       3    O2      18.965578   17.174553   20.562902 O.co2      1 MOL1        -0.6904
       4    C2      20.593893   18.008079   22.049817 C.3        1 MOL1        -0.2102
       5    H1      21.333269   17.379305   21.539568 H          1 MOL1         0.0687
       6    H2      20.771842   17.895994   23.126413 H          1 MOL1         0.0687
       7    C3      20.794074   19.485972   21.626618 C.3        1 MOL1        -0.1974
       8    H3      21.849762   19.758850   21.760529 H          1 MOL1         0.0689
       9    H4      20.573228   19.594901   20.555505 H          1 MOL1         0.0689
      10    C4      19.915250   20.457567   22.441234 C.3        1 MOL1        -0.2987
      11    H5      20.135921   20.380835   23.513991 H          1 MOL1         0.0700
      12    H6      20.095397   21.495007   22.130814 H          1 MOL1         0.0700
      13    H7      18.848520   20.241435   22.295631 H          1 MOL1         0.0700
@<TRIPOS>BOND
    1     1     2    1
    2     1     3    2
    3     1     4    1
    4     4     5    1
    5     4     6    1
    6     4     7    1
    7     7     8    1
    8     7     9    1
    9     7    10    1
   10    10    11    1
   11    10    12    1
   12    10    13    1
@<TRIPOS>SUBSTRUCTURE
       1 MOL1            1 RESIDUE      1      MOL     
@<SCITEGIC>MOL_PROPERTY
VConf Rank
SciTegic.value.IntegerValue
744

@<SCITEGIC>MOL_PROPERTY
Conf_Id
SciTegic.value.IntegerValue
36

@<SCITEGIC>MOL_PROPERTY
Delta U+W
SciTegic.value.DoubleValue
0.272

@<SCITEGIC>MOL_PROPERTY
U+W
SciTegic.value.DoubleValue
-58.060

@<SCITEGIC>MOL_PROPERTY
Grad RMS
SciTegic.value.DoubleValue
0.000000

@<SCITEGIC>MOL_PROPERTY
U
SciTegic.value.DoubleValue
9.781

@<SCITEGIC>MOL_PROPERTY
W
SciTegic.value.DoubleValue
-67.841

@<SCITEGIC>MOL_PROPERTY
W(PB)
SciTegic.value.DoubleValue
-69.537

@<SCITEGIC>MOL_PROPERTY
W(SA)
SciTegic.value.DoubleValue
1.696

@<SCITEGIC>MOL_PROPERTY
Valence
SciTegic.value.DoubleValue
6.123

@<SCITEGIC>MOL_PROPERTY
Coulomb
SciTegic.value.DoubleValue
3.449

@<SCITEGIC>MOL_PROPERTY
VdW
SciTegic.value.DoubleValue
0.209

@<SCITEGIC>MOL_PROPERTY
VdW6
SciTegic.value.DoubleValue
-3.762

@<SCITEGIC>MOL_PROPERTY
VdW12
SciTegic.value.DoubleValue
3.972

@<SCITEGIC>MOL_PROPERTY
Bond
SciTegic.value.DoubleValue
0.078

@<SCITEGIC>MOL_PROPERTY
Angle
SciTegic.value.DoubleValue
2.428

@<SCITEGIC>MOL_PROPERTY
Pdih
SciTegic.value.DoubleValue
3.616

@<SCITEGIC>MOL_PROPERTY
Idih
SciTegic.value.DoubleValue
0.002

@<SCITEGIC>MOL_PROPERTY
Tether
SciTegic.value.DoubleValue
0.000

@<TRIPOS>MOLECULE
guest-6_confgen4.mol2 : confsearch ligand conformer 745
          13          12           1
SMALL
USER_CHARGES
 
@<TRIPOS>ATOM
       1    C1      17.903094   19.078683   22.042311 C.2        1 MOL1         0.6021
       2    O1      17.690040   20.215553   21.668862 O.co2      1 MOL1        -0.6904
       3    O2      17.022570   18.327145   22.409276 O.co2      1 MOL1        -0.6904
       4    C2      19.335115   18.540564   22.062918 C.3        1 MOL1        -0.2102
       5    H1      19.356228   17.641015   21.436257 H          1 MOL1         0.0687
       6    H2      19.550313   18.220813   23.089460 H          1 MOL1         0.0687
       7    C3      20.425637   19.535208   21.586052 C.3        1 MOL1        -0.1974
       8    H3      20.206533   19.856629   20.558220 H          1 MOL1         0.0689
       9    H4      20.400809   20.437181   22.213413 H          1 MOL1         0.0689
      10    C4      21.832796   18.906962   21.641250 C.3        1 MOL1        -0.2987
      11    H5      21.892607   18.019900   20.996994 H          1 MOL1         0.0700
      12    H6      22.590238   19.624924   21.300560 H          1 MOL1         0.0700
      13    H7      22.088411   18.605068   22.665479 H          1 MOL1         0.0700
@<TRIPOS>BOND
    1     1     2    1
    2     1     3    2
    3     1     4    1
    4     4     5    1
    5     4     6    1
    6     4     7    1
    7     7     8    1
    8     7     9    1
    9     7    10    1
   10    10    11    1
   11    10    12    1
   12    10    13    1
@<TRIPOS>SUBSTRUCTURE
       1 MOL1            1 RESIDUE      1      MOL     
@<SCITEGIC>MOL_PROPERTY
VConf Rank
SciTegic.value.IntegerValue
745

@<SCITEGIC>MOL_PROPERTY
Conf_Id
SciTegic.value.IntegerValue
0

@<SCITEGIC>MOL_PROPERTY
Delta U+W
SciTegic.value.DoubleValue
0.000

@<SCITEGIC>MOL_PROPERTY
U+W
SciTegic.value.DoubleValue
-58.332

@<SCITEGIC>MOL_PROPERTY
Grad RMS
SciTegic.value.DoubleValue
0.000000

@<SCITEGIC>MOL_PROPERTY
U
SciTegic.value.DoubleValue
8.390

@<SCITEGIC>MOL_PROPERTY
W
SciTegic.value.DoubleValue
-66.722

@<SCITEGIC>MOL_PROPERTY
W(PB)
SciTegic.value.DoubleValue
-68.455

@<SCITEGIC>MOL_PROPERTY
W(SA)
SciTegic.value.DoubleValue
1.733

@<SCITEGIC>MOL_PROPERTY
Valence
SciTegic.value.DoubleValue
6.333

@<SCITEGIC>MOL_PROPERTY
Coulomb
SciTegic.value.DoubleValue
1.215

@<SCITEGIC>MOL_PROPERTY
VdW
SciTegic.value.DoubleValue
0.842

@<SCITEGIC>MOL_PROPERTY
VdW6
SciTegic.value.DoubleValue
-3.344

@<SCITEGIC>MOL_PROPERTY
VdW12
SciTegic.value.DoubleValue
4.186

@<SCITEGIC>MOL_PROPERTY
Bond
SciTegic.value.DoubleValue
0.091

@<SCITEGIC>MOL_PROPERTY
Angle
SciTegic.value.DoubleValue
2.713

@<SCITEGIC>MOL_PROPERTY
Pdih
SciTegic.value.DoubleValue
3.529

@<SCITEGIC>MOL_PROPERTY
Idih
SciTegic.value.DoubleValue
0.000

@<SCITEGIC>MOL_PROPERTY
Tether
SciTegic.value.DoubleValue
0.000

@<TRIPOS>MOLECULE
guest-6_confgen4.mol2 : confsearch ligand conformer 746
          13          12           1
SMALL
USER_CHARGES
 
@<TRIPOS>ATOM
       1    C1      21.702091   18.778561   20.624138 C.2        1 MOL1         0.6021
       2    O1      22.560315   18.041829   21.066899 O.co2      1 MOL1        -0.6904
       3    O2      21.923957   19.657330   19.815497 O.co2      1 MOL1        -0.6904
       4    C2      20.272329   18.603049   21.124614 C.3        1 MOL1        -0.2102
       5    H1      20.114559   17.539448   21.341138 H          1 MOL1         0.0687
       6    H2      19.589782   18.871669   20.309145 H          1 MOL1         0.0687
       7    C3      19.962997   19.453801   22.380154 C.3        1 MOL1        -0.1974
       8    H3      20.658794   19.183278   23.186693 H          1 MOL1         0.0689
       9    H4      20.133792   20.515742   22.154468 H          1 MOL1         0.0689
      10    C4      18.511590   19.254118   22.860608 C.3        1 MOL1        -0.2987
      11    H5      18.311417   19.864802   23.750697 H          1 MOL1         0.0700
      12    H6      17.796000   19.546589   22.080898 H          1 MOL1         0.0700
      13    H7      18.325052   18.203919   23.121074 H          1 MOL1         0.0700
@<TRIPOS>BOND
    1     1     2    1
    2     1     3    2
    3     1     4    1
    4     4     5    1
    5     4     6    1
    6     4     7    1
    7     7     8    1
    8     7     9    1
    9     7    10    1
   10    10    11    1
   11    10    12    1
   12    10    13    1
@<TRIPOS>SUBSTRUCTURE
       1 MOL1            1 RESIDUE      1      MOL     
@<SCITEGIC>MOL_PROPERTY
VConf Rank
SciTegic.value.IntegerValue
746

@<SCITEGIC>MOL_PROPERTY
Conf_Id
SciTegic.value.IntegerValue
1

@<SCITEGIC>MOL_PROPERTY
Delta U+W
SciTegic.value.DoubleValue
-1.339

@<SCITEGIC>MOL_PROPERTY
U+W
SciTegic.value.DoubleValue
-59.672

@<SCITEGIC>MOL_PROPERTY
Grad RMS
SciTegic.value.DoubleValue
0.000000

@<SCITEGIC>MOL_PROPERTY
U
SciTegic.value.DoubleValue
7.389

@<SCITEGIC>MOL_PROPERTY
W
SciTegic.value.DoubleValue
-67.061

@<SCITEGIC>MOL_PROPERTY
W(PB)
SciTegic.value.DoubleValue
-68.767

@<SCITEGIC>MOL_PROPERTY
W(SA)
SciTegic.value.DoubleValue
1.707

@<SCITEGIC>MOL_PROPERTY
Valence
SciTegic.value.DoubleValue
5.822

@<SCITEGIC>MOL_PROPERTY
Coulomb
SciTegic.value.DoubleValue
1.255

@<SCITEGIC>MOL_PROPERTY
VdW
SciTegic.value.DoubleValue
0.312

@<SCITEGIC>MOL_PROPERTY
VdW6
SciTegic.value.DoubleValue
-3.061

@<SCITEGIC>MOL_PROPERTY
VdW12
SciTegic.value.DoubleValue
3.372

@<SCITEGIC>MOL_PROPERTY
Bond
SciTegic.value.DoubleValue
0.059

@<SCITEGIC>MOL_PROPERTY
Angle
SciTegic.value.DoubleValue
2.241

@<SCITEGIC>MOL_PROPERTY
Pdih
SciTegic.value.DoubleValue
3.522

@<SCITEGIC>MOL_PROPERTY
Idih
SciTegic.value.DoubleValue
0.000

@<SCITEGIC>MOL_PROPERTY
Tether
SciTegic.value.DoubleValue
0.000

@<TRIPOS>MOLECULE
guest-6_confgen4.mol2 : confsearch ligand conformer 747
          13          12           1
SMALL
USER_CHARGES
 
@<TRIPOS>ATOM
       1    C1      18.653099   19.915977   21.617125 C.2        1 MOL1         0.6021
       2    O1      17.636793   19.274533   21.438885 O.co2      1 MOL1        -0.6904
       3    O2      18.682041   20.971294   22.218270 O.co2      1 MOL1        -0.6904
       4    C2      19.954518   19.383515   21.022550 C.3        1 MOL1        -0.2102
       5    H1      20.685092   20.201011   20.987199 H          1 MOL1         0.0687
       6    H2      19.747269   19.099007   19.984046 H          1 MOL1         0.0687
       7    C3      20.548623   18.169007   21.781069 C.3        1 MOL1        -0.1974
       8    H3      19.794819   17.371894   21.846743 H          1 MOL1         0.0689
       9    H4      21.389959   17.761007   21.204387 H          1 MOL1         0.0689
      10    C4      21.039948   18.539312   23.195778 C.3        1 MOL1        -0.2987
      11    H5      20.213327   18.910416   23.816105 H          1 MOL1         0.0700
      12    H6      21.471803   17.663279   23.696941 H          1 MOL1         0.0700
      13    H7      21.810893   19.319755   23.151678 H          1 MOL1         0.0700
@<TRIPOS>BOND
    1     1     2    1
    2     1     3    2
    3     1     4    1
    4     4     5    1
    5     4     6    1
    6     4     7    1
    7     7     8    1
    8     7     9    1
    9     7    10    1
   10    10    11    1
   11    10    12    1
   12    10    13    1
@<TRIPOS>SUBSTRUCTURE
       1 MOL1            1 RESIDUE      1      MOL     
@<SCITEGIC>MOL_PROPERTY
VConf Rank
SciTegic.value.IntegerValue
747

@<SCITEGIC>MOL_PROPERTY
Conf_Id
SciTegic.value.IntegerValue
4

@<SCITEGIC>MOL_PROPERTY
Delta U+W
SciTegic.value.DoubleValue
0.281

@<SCITEGIC>MOL_PROPERTY
U+W
SciTegic.value.DoubleValue
-58.051

@<SCITEGIC>MOL_PROPERTY
Grad RMS
SciTegic.value.DoubleValue
0.000000

@<SCITEGIC>MOL_PROPERTY
U
SciTegic.value.DoubleValue
9.781

@<SCITEGIC>MOL_PROPERTY
W
SciTegic.value.DoubleValue
-67.832

@<SCITEGIC>MOL_PROPERTY
W(PB)
SciTegic.value.DoubleValue
-69.535

@<SCITEGIC>MOL_PROPERTY
W(SA)
SciTegic.value.DoubleValue
1.703

@<SCITEGIC>MOL_PROPERTY
Valence
SciTegic.value.DoubleValue
6.123

@<SCITEGIC>MOL_PROPERTY
Coulomb
SciTegic.value.DoubleValue
3.449

@<SCITEGIC>MOL_PROPERTY
VdW
SciTegic.value.DoubleValue
0.209

@<SCITEGIC>MOL_PROPERTY
VdW6
SciTegic.value.DoubleValue
-3.762

@<SCITEGIC>MOL_PROPERTY
VdW12
SciTegic.value.DoubleValue
3.972

@<SCITEGIC>MOL_PROPERTY
Bond
SciTegic.value.DoubleValue
0.078

@<SCITEGIC>MOL_PROPERTY
Angle
SciTegic.value.DoubleValue
2.428

@<SCITEGIC>MOL_PROPERTY
Pdih
SciTegic.value.DoubleValue
3.616

@<SCITEGIC>MOL_PROPERTY
Idih
SciTegic.value.DoubleValue
0.002

@<SCITEGIC>MOL_PROPERTY
Tether
SciTegic.value.DoubleValue
0.000

@<TRIPOS>MOLECULE
guest-6_confgen4.mol2 : confsearch ligand conformer 748
          13          12           1
SMALL
USER_CHARGES
 
@<TRIPOS>ATOM
       1    C1      18.747531   17.830160   22.198703 C.2        1 MOL1         0.6021
       2    O1      18.225426   18.009232   23.280943 O.co2      1 MOL1        -0.6904
       3    O2      18.124451   17.561452   21.190901 O.co2      1 MOL1        -0.6904
       4    C2      20.269151   17.911169   22.104711 C.3        1 MOL1        -0.2102
       5    H1      20.610539   17.025138   21.556267 H          1 MOL1         0.0687
       6    H2      20.688076   17.838614   23.115911 H          1 MOL1         0.0687
       7    C3      20.794337   19.188012   21.399596 C.3        1 MOL1        -0.1974
       8    H3      21.877378   19.092571   21.242163 H          1 MOL1         0.0689
       9    H4      20.336816   19.272811   20.403902 H          1 MOL1         0.0689
      10    C4      20.514269   20.468914   22.212479 C.3        1 MOL1        -0.2987
      11    H5      20.982037   20.414430   23.204253 H          1 MOL1         0.0700
      12    H6      20.915445   21.350468   21.695744 H          1 MOL1         0.0700
      13    H7      19.435554   20.620203   22.351446 H          1 MOL1         0.0700
@<TRIPOS>BOND
    1     1     2    1
    2     1     3    2
    3     1     4    1
    4     4     5    1
    5     4     6    1
    6     4     7    1
    7     7     8    1
    8     7     9    1
    9     7    10    1
   10    10    11    1
   11    10    12    1
   12    10    13    1
@<TRIPOS>SUBSTRUCTURE
       1 MOL1            1 RESIDUE      1      MOL     
@<SCITEGIC>MOL_PROPERTY
VConf Rank
SciTegic.value.IntegerValue
748

@<SCITEGIC>MOL_PROPERTY
Conf_Id
SciTegic.value.IntegerValue
36

@<SCITEGIC>MOL_PROPERTY
Delta U+W
SciTegic.value.DoubleValue
0.272

@<SCITEGIC>MOL_PROPERTY
U+W
SciTegic.value.DoubleValue
-58.060

@<SCITEGIC>MOL_PROPERTY
Grad RMS
SciTegic.value.DoubleValue
0.000000

@<SCITEGIC>MOL_PROPERTY
U
SciTegic.value.DoubleValue
9.781

@<SCITEGIC>MOL_PROPERTY
W
SciTegic.value.DoubleValue
-67.841

@<SCITEGIC>MOL_PROPERTY
W(PB)
SciTegic.value.DoubleValue
-69.537

@<SCITEGIC>MOL_PROPERTY
W(SA)
SciTegic.value.DoubleValue
1.696

@<SCITEGIC>MOL_PROPERTY
Valence
SciTegic.value.DoubleValue
6.123

@<SCITEGIC>MOL_PROPERTY
Coulomb
SciTegic.value.DoubleValue
3.449

@<SCITEGIC>MOL_PROPERTY
VdW
SciTegic.value.DoubleValue
0.209

@<SCITEGIC>MOL_PROPERTY
VdW6
SciTegic.value.DoubleValue
-3.762

@<SCITEGIC>MOL_PROPERTY
VdW12
SciTegic.value.DoubleValue
3.972

@<SCITEGIC>MOL_PROPERTY
Bond
SciTegic.value.DoubleValue
0.078

@<SCITEGIC>MOL_PROPERTY
Angle
SciTegic.value.DoubleValue
2.428

@<SCITEGIC>MOL_PROPERTY
Pdih
SciTegic.value.DoubleValue
3.616

@<SCITEGIC>MOL_PROPERTY
Idih
SciTegic.value.DoubleValue
0.002

@<SCITEGIC>MOL_PROPERTY
Tether
SciTegic.value.DoubleValue
0.000

@<TRIPOS>MOLECULE
guest-6_confgen4.mol2 : confsearch ligand conformer 749
          13          12           1
SMALL
USER_CHARGES
 
@<TRIPOS>ATOM
       1    C1      18.506197   18.290605   20.500356 C.2        1 MOL1         0.6021
       2    O1      19.184001   17.989625   19.537380 O.co2      1 MOL1        -0.6904
       3    O2      17.299678   18.155199   20.528203 O.co2      1 MOL1        -0.6904
       4    C2      19.173729   18.869190   21.749484 C.3        1 MOL1        -0.2102
       5    H1      18.911900   18.218384   22.592239 H          1 MOL1         0.0687
       6    H2      18.714296   19.845597   21.944131 H          1 MOL1         0.0687
       7    C3      20.714958   19.023902   21.668029 C.3        1 MOL1        -0.1974
       8    H3      21.173193   18.044834   21.470035 H          1 MOL1         0.0689
       9    H4      20.975356   19.673994   20.821077 H          1 MOL1         0.0689
      10    C4      21.297720   19.612746   22.968600 C.3        1 MOL1        -0.2987
      11    H5      21.077353   18.964314   23.826794 H          1 MOL1         0.0700
      12    H6      22.388135   19.714717   22.892081 H          1 MOL1         0.0700
      13    H7      20.877877   20.606537   23.172643 H          1 MOL1         0.0700
@<TRIPOS>BOND
    1     1     2    1
    2     1     3    2
    3     1     4    1
    4     4     5    1
    5     4     6    1
    6     4     7    1
    7     7     8    1
    8     7     9    1
    9     7    10    1
   10    10    11    1
   11    10    12    1
   12    10    13    1
@<TRIPOS>SUBSTRUCTURE
       1 MOL1            1 RESIDUE      1      MOL     
@<SCITEGIC>MOL_PROPERTY
VConf Rank
SciTegic.value.IntegerValue
749

@<SCITEGIC>MOL_PROPERTY
Conf_Id
SciTegic.value.IntegerValue
0

@<SCITEGIC>MOL_PROPERTY
Delta U+W
SciTegic.value.DoubleValue
0.000

@<SCITEGIC>MOL_PROPERTY
U+W
SciTegic.value.DoubleValue
-58.332

@<SCITEGIC>MOL_PROPERTY
Grad RMS
SciTegic.value.DoubleValue
0.000000

@<SCITEGIC>MOL_PROPERTY
U
SciTegic.value.DoubleValue
8.390

@<SCITEGIC>MOL_PROPERTY
W
SciTegic.value.DoubleValue
-66.722

@<SCITEGIC>MOL_PROPERTY
W(PB)
SciTegic.value.DoubleValue
-68.455

@<SCITEGIC>MOL_PROPERTY
W(SA)
SciTegic.value.DoubleValue
1.733

@<SCITEGIC>MOL_PROPERTY
Valence
SciTegic.value.DoubleValue
6.333

@<SCITEGIC>MOL_PROPERTY
Coulomb
SciTegic.value.DoubleValue
1.215

@<SCITEGIC>MOL_PROPERTY
VdW
SciTegic.value.DoubleValue
0.842

@<SCITEGIC>MOL_PROPERTY
VdW6
SciTegic.value.DoubleValue
-3.344

@<SCITEGIC>MOL_PROPERTY
VdW12
SciTegic.value.DoubleValue
4.186

@<SCITEGIC>MOL_PROPERTY
Bond
SciTegic.value.DoubleValue
0.091

@<SCITEGIC>MOL_PROPERTY
Angle
SciTegic.value.DoubleValue
2.713

@<SCITEGIC>MOL_PROPERTY
Pdih
SciTegic.value.DoubleValue
3.529

@<SCITEGIC>MOL_PROPERTY
Idih
SciTegic.value.DoubleValue
0.000

@<SCITEGIC>MOL_PROPERTY
Tether
SciTegic.value.DoubleValue
0.000

@<TRIPOS>MOLECULE
guest-6_confgen4.mol2 : confsearch ligand conformer 750
          13          12           1
SMALL
USER_CHARGES
 
@<TRIPOS>ATOM
       1    C1      21.138339   20.535587   22.781805 C.2        1 MOL1         0.6021
       2    O1      21.478382   20.302598   23.924368 O.co2      1 MOL1        -0.6904
       3    O2      21.033353   21.657572   22.328499 O.co2      1 MOL1        -0.6904
       4    C2      20.807221   19.356564   21.873089 C.3        1 MOL1        -0.2102
       5    H1      21.445599   18.512840   22.162265 H          1 MOL1         0.0687
       6    H2      21.078623   19.630229   20.846217 H          1 MOL1         0.0687
       7    C3      19.316884   18.943620   21.938046 C.3        1 MOL1        -0.1974
       8    H3      19.054010   18.681350   22.972422 H          1 MOL1         0.0689
       9    H4      18.686985   19.798900   21.656007 H          1 MOL1         0.0689
      10    C4      19.014981   17.750466   21.009321 C.3        1 MOL1        -0.2987
      11    H5      17.954569   17.472582   21.069041 H          1 MOL1         0.0700
      12    H6      19.241959   17.998975   19.964199 H          1 MOL1         0.0700
      13    H7      19.611770   16.872855   21.290743 H          1 MOL1         0.0700
@<TRIPOS>BOND
    1     1     2    1
    2     1     3    2
    3     1     4    1
    4     4     5    1
    5     4     6    1
    6     4     7    1
    7     7     8    1
    8     7     9    1
    9     7    10    1
   10    10    11    1
   11    10    12    1
   12    10    13    1
@<TRIPOS>SUBSTRUCTURE
       1 MOL1            1 RESIDUE      1      MOL     
@<SCITEGIC>MOL_PROPERTY
VConf Rank
SciTegic.value.IntegerValue
750

@<SCITEGIC>MOL_PROPERTY
Conf_Id
SciTegic.value.IntegerValue
1

@<SCITEGIC>MOL_PROPERTY
Delta U+W
SciTegic.value.DoubleValue
-1.339

@<SCITEGIC>MOL_PROPERTY
U+W
SciTegic.value.DoubleValue
-59.672

@<SCITEGIC>MOL_PROPERTY
Grad RMS
SciTegic.value.DoubleValue
0.000000

@<SCITEGIC>MOL_PROPERTY
U
SciTegic.value.DoubleValue
7.389

@<SCITEGIC>MOL_PROPERTY
W
SciTegic.value.DoubleValue
-67.061

@<SCITEGIC>MOL_PROPERTY
W(PB)
SciTegic.value.DoubleValue
-68.767

@<SCITEGIC>MOL_PROPERTY
W(SA)
SciTegic.value.DoubleValue
1.707

@<SCITEGIC>MOL_PROPERTY
Valence
SciTegic.value.DoubleValue
5.822

@<SCITEGIC>MOL_PROPERTY
Coulomb
SciTegic.value.DoubleValue
1.255

@<SCITEGIC>MOL_PROPERTY
VdW
SciTegic.value.DoubleValue
0.312

@<SCITEGIC>MOL_PROPERTY
VdW6
SciTegic.value.DoubleValue
-3.061

@<SCITEGIC>MOL_PROPERTY
VdW12
SciTegic.value.DoubleValue
3.372

@<SCITEGIC>MOL_PROPERTY
Bond
SciTegic.value.DoubleValue
0.059

@<SCITEGIC>MOL_PROPERTY
Angle
SciTegic.value.DoubleValue
2.241

@<SCITEGIC>MOL_PROPERTY
Pdih
SciTegic.value.DoubleValue
3.522

@<SCITEGIC>MOL_PROPERTY
Idih
SciTegic.value.DoubleValue
0.000

@<SCITEGIC>MOL_PROPERTY
Tether
SciTegic.value.DoubleValue
0.000

@<TRIPOS>MOLECULE
guest-6_confgen4.mol2 : confsearch ligand conformer 751
          13          12           1
SMALL
USER_CHARGES
 
@<TRIPOS>ATOM
       1    C1      21.593435   19.988915   21.886210 C.2        1 MOL1         0.6021
       2    O1      22.084201   20.099115   20.780270 O.co2      1 MOL1        -0.6904
       3    O2      21.511088   20.907676   22.676779 O.co2      1 MOL1        -0.6904
       4    C2      21.087017   18.614242   22.315795 C.3        1 MOL1        -0.2102
       5    H1      20.980996   18.604190   23.407558 H          1 MOL1         0.0687
       6    H2      21.867751   17.885649   22.066811 H          1 MOL1         0.0687
       7    C3      19.754445   18.191071   21.646082 C.3        1 MOL1        -0.1974
       8    H3      19.858915   18.244380   20.553302 H          1 MOL1         0.0689
       9    H4      19.545470   17.141029   21.892285 H          1 MOL1         0.0689
      10    C4      18.563777   19.061333   22.098718 C.3        1 MOL1        -0.2987
      11    H5      18.719081   20.114183   21.828136 H          1 MOL1         0.0700
      12    H6      17.634384   18.723387   21.622149 H          1 MOL1         0.0700
      13    H7      18.427624   19.004837   23.186681 H          1 MOL1         0.0700
@<TRIPOS>BOND
    1     1     2    1
    2     1     3    2
    3     1     4    1
    4     4     5    1
    5     4     6    1
    6     4     7    1
    7     7     8    1
    8     7     9    1
    9     7    10    1
   10    10    11    1
   11    10    12    1
   12    10    13    1
@<TRIPOS>SUBSTRUCTURE
       1 MOL1            1 RESIDUE      1      MOL     
@<SCITEGIC>MOL_PROPERTY
VConf Rank
SciTegic.value.IntegerValue
751

@<SCITEGIC>MOL_PROPERTY
Conf_Id
SciTegic.value.IntegerValue
4

@<SCITEGIC>MOL_PROPERTY
Delta U+W
SciTegic.value.DoubleValue
0.281

@<SCITEGIC>MOL_PROPERTY
U+W
SciTegic.value.DoubleValue
-58.051

@<SCITEGIC>MOL_PROPERTY
Grad RMS
SciTegic.value.DoubleValue
0.000000

@<SCITEGIC>MOL_PROPERTY
U
SciTegic.value.DoubleValue
9.781

@<SCITEGIC>MOL_PROPERTY
W
SciTegic.value.DoubleValue
-67.832

@<SCITEGIC>MOL_PROPERTY
W(PB)
SciTegic.value.DoubleValue
-69.535

@<SCITEGIC>MOL_PROPERTY
W(SA)
SciTegic.value.DoubleValue
1.703

@<SCITEGIC>MOL_PROPERTY
Valence
SciTegic.value.DoubleValue
6.123

@<SCITEGIC>MOL_PROPERTY
Coulomb
SciTegic.value.DoubleValue
3.449

@<SCITEGIC>MOL_PROPERTY
VdW
SciTegic.value.DoubleValue
0.209

@<SCITEGIC>MOL_PROPERTY
VdW6
SciTegic.value.DoubleValue
-3.762

@<SCITEGIC>MOL_PROPERTY
VdW12
SciTegic.value.DoubleValue
3.972

@<SCITEGIC>MOL_PROPERTY
Bond
SciTegic.value.DoubleValue
0.078

@<SCITEGIC>MOL_PROPERTY
Angle
SciTegic.value.DoubleValue
2.428

@<SCITEGIC>MOL_PROPERTY
Pdih
SciTegic.value.DoubleValue
3.616

@<SCITEGIC>MOL_PROPERTY
Idih
SciTegic.value.DoubleValue
0.002

@<SCITEGIC>MOL_PROPERTY
Tether
SciTegic.value.DoubleValue
0.000

@<TRIPOS>MOLECULE
guest-6_confgen4.mol2 : confsearch ligand conformer 752
          13          12           1
SMALL
USER_CHARGES
 
@<TRIPOS>ATOM
       1    C1      19.545125   17.371933   22.576796 C.2        1 MOL1         0.6021
       2    O1      20.410283   16.538607   22.395204 O.co2      1 MOL1        -0.6904
       3    O2      18.824652   17.386981   23.554953 O.co2      1 MOL1        -0.6904
       4    C2      19.325789   18.435955   21.504195 C.3        1 MOL1        -0.2102
       5    H1      18.249017   18.478788   21.301431 H          1 MOL1         0.0687
       6    H2      19.809759   18.105276   20.576989 H          1 MOL1         0.0687
       7    C3      19.832929   19.847226   21.897208 C.3        1 MOL1        -0.1974
       8    H3      19.502085   20.572080   21.140901 H          1 MOL1         0.0689
       9    H4      19.373628   20.151372   22.848239 H          1 MOL1         0.0689
      10    C4      21.369674   19.910120   22.017155 C.3        1 MOL1        -0.2987
      11    H5      21.849002   19.630988   21.069673 H          1 MOL1         0.0700
      12    H6      21.696198   20.925554   22.276716 H          1 MOL1         0.0700
      13    H7      21.732870   19.228295   22.797558 H          1 MOL1         0.0700
@<TRIPOS>BOND
    1     1     2    1
    2     1     3    2
    3     1     4    1
    4     4     5    1
    5     4     6    1
    6     4     7    1
    7     7     8    1
    8     7     9    1
    9     7    10    1
   10    10    11    1
   11    10    12    1
   12    10    13    1
@<TRIPOS>SUBSTRUCTURE
       1 MOL1            1 RESIDUE      1      MOL     
@<SCITEGIC>MOL_PROPERTY
VConf Rank
SciTegic.value.IntegerValue
752

@<SCITEGIC>MOL_PROPERTY
Conf_Id
SciTegic.value.IntegerValue
36

@<SCITEGIC>MOL_PROPERTY
Delta U+W
SciTegic.value.DoubleValue
0.272

@<SCITEGIC>MOL_PROPERTY
U+W
SciTegic.value.DoubleValue
-58.060

@<SCITEGIC>MOL_PROPERTY
Grad RMS
SciTegic.value.DoubleValue
0.000000

@<SCITEGIC>MOL_PROPERTY
U
SciTegic.value.DoubleValue
9.781

@<SCITEGIC>MOL_PROPERTY
W
SciTegic.value.DoubleValue
-67.841

@<SCITEGIC>MOL_PROPERTY
W(PB)
SciTegic.value.DoubleValue
-69.537

@<SCITEGIC>MOL_PROPERTY
W(SA)
SciTegic.value.DoubleValue
1.696

@<SCITEGIC>MOL_PROPERTY
Valence
SciTegic.value.DoubleValue
6.123

@<SCITEGIC>MOL_PROPERTY
Coulomb
SciTegic.value.DoubleValue
3.449

@<SCITEGIC>MOL_PROPERTY
VdW
SciTegic.value.DoubleValue
0.209

@<SCITEGIC>MOL_PROPERTY
VdW6
SciTegic.value.DoubleValue
-3.762

@<SCITEGIC>MOL_PROPERTY
VdW12
SciTegic.value.DoubleValue
3.972

@<SCITEGIC>MOL_PROPERTY
Bond
SciTegic.value.DoubleValue
0.078

@<SCITEGIC>MOL_PROPERTY
Angle
SciTegic.value.DoubleValue
2.428

@<SCITEGIC>MOL_PROPERTY
Pdih
SciTegic.value.DoubleValue
3.616

@<SCITEGIC>MOL_PROPERTY
Idih
SciTegic.value.DoubleValue
0.002

@<SCITEGIC>MOL_PROPERTY
Tether
SciTegic.value.DoubleValue
0.000

@<TRIPOS>MOLECULE
guest-6_confgen4.mol2 : confsearch ligand conformer 753
          13          12           1
SMALL
USER_CHARGES
 
@<TRIPOS>ATOM
       1    C1      18.238709   19.907959   21.084546 C.2        1 MOL1         0.6021
       2    O1      17.872873   20.501087   22.080383 O.co2      1 MOL1        -0.6904
       3    O2      17.627000   19.936157   20.035826 O.co2      1 MOL1        -0.6904
       4    C2      19.524134   19.079127   21.121994 C.3        1 MOL1        -0.2102
       5    H1      20.186470   19.466005   20.338429 H          1 MOL1         0.0687
       6    H2      19.260540   18.052673   20.840484 H          1 MOL1         0.0687
       7    C3      20.271177   19.072597   22.481346 C.3        1 MOL1        -0.1974
       8    H3      20.531845   20.102387   22.763020 H          1 MOL1         0.0689
       9    H4      19.604748   18.687384   23.265717 H          1 MOL1         0.0689
      10    C4      21.550672   18.213861   22.423884 C.3        1 MOL1        -0.2987
      11    H5      22.247863   18.597705   21.667503 H          1 MOL1         0.0700
      12    H6      22.065050   18.221354   23.393737 H          1 MOL1         0.0700
      13    H7      21.313311   17.171349   22.174182 H          1 MOL1         0.0700
@<TRIPOS>BOND
    1     1     2    1
    2     1     3    2
    3     1     4    1
    4     4     5    1
    5     4     6    1
    6     4     7    1
    7     7     8    1
    8     7     9    1
    9     7    10    1
   10    10    11    1
   11    10    12    1
   12    10    13    1
@<TRIPOS>SUBSTRUCTURE
       1 MOL1            1 RESIDUE      1      MOL     
@<SCITEGIC>MOL_PROPERTY
VConf Rank
SciTegic.value.IntegerValue
753

@<SCITEGIC>MOL_PROPERTY
Conf_Id
SciTegic.value.IntegerValue
0

@<SCITEGIC>MOL_PROPERTY
Delta U+W
SciTegic.value.DoubleValue
0.000

@<SCITEGIC>MOL_PROPERTY
U+W
SciTegic.value.DoubleValue
-58.332

@<SCITEGIC>MOL_PROPERTY
Grad RMS
SciTegic.value.DoubleValue
0.000000

@<SCITEGIC>MOL_PROPERTY
U
SciTegic.value.DoubleValue
8.390

@<SCITEGIC>MOL_PROPERTY
W
SciTegic.value.DoubleValue
-66.722

@<SCITEGIC>MOL_PROPERTY
W(PB)
SciTegic.value.DoubleValue
-68.455

@<SCITEGIC>MOL_PROPERTY
W(SA)
SciTegic.value.DoubleValue
1.733

@<SCITEGIC>MOL_PROPERTY
Valence
SciTegic.value.DoubleValue
6.333

@<SCITEGIC>MOL_PROPERTY
Coulomb
SciTegic.value.DoubleValue
1.215

@<SCITEGIC>MOL_PROPERTY
VdW
SciTegic.value.DoubleValue
0.842

@<SCITEGIC>MOL_PROPERTY
VdW6
SciTegic.value.DoubleValue
-3.344

@<SCITEGIC>MOL_PROPERTY
VdW12
SciTegic.value.DoubleValue
4.186

@<SCITEGIC>MOL_PROPERTY
Bond
SciTegic.value.DoubleValue
0.091

@<SCITEGIC>MOL_PROPERTY
Angle
SciTegic.value.DoubleValue
2.713

@<SCITEGIC>MOL_PROPERTY
Pdih
SciTegic.value.DoubleValue
3.529

@<SCITEGIC>MOL_PROPERTY
Idih
SciTegic.value.DoubleValue
0.000

@<SCITEGIC>MOL_PROPERTY
Tether
SciTegic.value.DoubleValue
0.000

@<TRIPOS>MOLECULE
guest-6_confgen4.mol2 : confsearch ligand conformer 754
          13          12           1
SMALL
USER_CHARGES
 
@<TRIPOS>ATOM
       1    C1      19.650573   20.808061   22.935528 C.2        1 MOL1         0.6021
       2    O1      19.613640   20.684773   24.143335 O.co2      1 MOL1        -0.6904
       3    O2      19.108596   21.715304   22.336753 O.co2      1 MOL1        -0.6904
       4    C2      20.402003   19.756793   22.125783 C.3        1 MOL1        -0.2102
       5    H1      21.243040   19.396724   22.730784 H          1 MOL1         0.0687
       6    H2      20.826568   20.246571   21.240977 H          1 MOL1         0.0687
       7    C3      19.506113   18.569023   21.698665 C.3        1 MOL1        -0.1974
       8    H3      19.078703   18.092561   22.592044 H          1 MOL1         0.0689
       9    H4      18.662239   18.942551   21.101860 H          1 MOL1         0.0689
      10    C4      20.294486   17.524930   20.882805 C.3        1 MOL1        -0.2987
      11    H5      19.643117   16.691344   20.589351 H          1 MOL1         0.0700
      12    H6      20.706987   17.971016   19.968253 H          1 MOL1         0.0700
      13    H7      21.126610   17.114487   21.469884 H          1 MOL1         0.0700
@<TRIPOS>BOND
    1     1     2    1
    2     1     3    2
    3     1     4    1
    4     4     5    1
    5     4     6    1
    6     4     7    1
    7     7     8    1
    8     7     9    1
    9     7    10    1
   10    10    11    1
   11    10    12    1
   12    10    13    1
@<TRIPOS>SUBSTRUCTURE
       1 MOL1            1 RESIDUE      1      MOL     
@<SCITEGIC>MOL_PROPERTY
VConf Rank
SciTegic.value.IntegerValue
754

@<SCITEGIC>MOL_PROPERTY
Conf_Id
SciTegic.value.IntegerValue
1

@<SCITEGIC>MOL_PROPERTY
Delta U+W
SciTegic.value.DoubleValue
-1.339

@<SCITEGIC>MOL_PROPERTY
U+W
SciTegic.value.DoubleValue
-59.672

@<SCITEGIC>MOL_PROPERTY
Grad RMS
SciTegic.value.DoubleValue
0.000000

@<SCITEGIC>MOL_PROPERTY
U
SciTegic.value.DoubleValue
7.389

@<SCITEGIC>MOL_PROPERTY
W
SciTegic.value.DoubleValue
-67.061

@<SCITEGIC>MOL_PROPERTY
W(PB)
SciTegic.value.DoubleValue
-68.767

@<SCITEGIC>MOL_PROPERTY
W(SA)
SciTegic.value.DoubleValue
1.707

@<SCITEGIC>MOL_PROPERTY
Valence
SciTegic.value.DoubleValue
5.822

@<SCITEGIC>MOL_PROPERTY
Coulomb
SciTegic.value.DoubleValue
1.255

@<SCITEGIC>MOL_PROPERTY
VdW
SciTegic.value.DoubleValue
0.312

@<SCITEGIC>MOL_PROPERTY
VdW6
SciTegic.value.DoubleValue
-3.061

@<SCITEGIC>MOL_PROPERTY
VdW12
SciTegic.value.DoubleValue
3.372

@<SCITEGIC>MOL_PROPERTY
Bond
SciTegic.value.DoubleValue
0.059

@<SCITEGIC>MOL_PROPERTY
Angle
SciTegic.value.DoubleValue
2.241

@<SCITEGIC>MOL_PROPERTY
Pdih
SciTegic.value.DoubleValue
3.522

@<SCITEGIC>MOL_PROPERTY
Idih
SciTegic.value.DoubleValue
0.000

@<SCITEGIC>MOL_PROPERTY
Tether
SciTegic.value.DoubleValue
0.000

@<TRIPOS>MOLECULE
guest-6_confgen4.mol2 : confsearch ligand conformer 755
          13          12           1
SMALL
USER_CHARGES
 
@<TRIPOS>ATOM
       1    C1      19.094663   17.939063   20.952679 C.2        1 MOL1         0.6021
       2    O1      18.629174   16.945916   21.475247 O.co2      1 MOL1        -0.6904
       3    O2      18.476895   18.638362   20.174703 O.co2      1 MOL1        -0.6904
       4    C2      20.543770   18.304889   21.264110 C.3        1 MOL1        -0.2102
       5    H1      20.902650   19.002548   20.497452 H          1 MOL1         0.0687
       6    H2      21.140588   17.390430   21.164311 H          1 MOL1         0.0687
       7    C3      20.756629   18.907882   22.676353 C.3        1 MOL1        -0.1974
       8    H3      20.356454   18.219752   23.434151 H          1 MOL1         0.0689
       9    H4      21.834141   18.998793   22.870201 H          1 MOL1         0.0689
      10    C4      20.097970   20.294224   22.831773 C.3        1 MOL1        -0.2987
      11    H5      19.011040   20.233126   22.687977 H          1 MOL1         0.0700
      12    H6      20.283986   20.700669   23.834417 H          1 MOL1         0.0700
      13    H7      20.500224   21.004353   22.097402 H          1 MOL1         0.0700
@<TRIPOS>BOND
    1     1     2    1
    2     1     3    2
    3     1     4    1
    4     4     5    1
    5     4     6    1
    6     4     7    1
    7     7     8    1
    8     7     9    1
    9     7    10    1
   10    10    11    1
   11    10    12    1
   12    10    13    1
@<TRIPOS>SUBSTRUCTURE
       1 MOL1            1 RESIDUE      1      MOL     
@<SCITEGIC>MOL_PROPERTY
VConf Rank
SciTegic.value.IntegerValue
755

@<SCITEGIC>MOL_PROPERTY
Conf_Id
SciTegic.value.IntegerValue
4

@<SCITEGIC>MOL_PROPERTY
Delta U+W
SciTegic.value.DoubleValue
0.281

@<SCITEGIC>MOL_PROPERTY
U+W
SciTegic.value.DoubleValue
-58.051

@<SCITEGIC>MOL_PROPERTY
Grad RMS
SciTegic.value.DoubleValue
0.000000

@<SCITEGIC>MOL_PROPERTY
U
SciTegic.value.DoubleValue
9.781

@<SCITEGIC>MOL_PROPERTY
W
SciTegic.value.DoubleValue
-67.832

@<SCITEGIC>MOL_PROPERTY
W(PB)
SciTegic.value.DoubleValue
-69.535

@<SCITEGIC>MOL_PROPERTY
W(SA)
SciTegic.value.DoubleValue
1.703

@<SCITEGIC>MOL_PROPERTY
Valence
SciTegic.value.DoubleValue
6.123

@<SCITEGIC>MOL_PROPERTY
Coulomb
SciTegic.value.DoubleValue
3.449

@<SCITEGIC>MOL_PROPERTY
VdW
SciTegic.value.DoubleValue
0.209

@<SCITEGIC>MOL_PROPERTY
VdW6
SciTegic.value.DoubleValue
-3.762

@<SCITEGIC>MOL_PROPERTY
VdW12
SciTegic.value.DoubleValue
3.972

@<SCITEGIC>MOL_PROPERTY
Bond
SciTegic.value.DoubleValue
0.078

@<SCITEGIC>MOL_PROPERTY
Angle
SciTegic.value.DoubleValue
2.428

@<SCITEGIC>MOL_PROPERTY
Pdih
SciTegic.value.DoubleValue
3.616

@<SCITEGIC>MOL_PROPERTY
Idih
SciTegic.value.DoubleValue
0.002

@<SCITEGIC>MOL_PROPERTY
Tether
SciTegic.value.DoubleValue
0.000

@<TRIPOS>MOLECULE
guest-6_confgen4.mol2 : confsearch ligand conformer 756
          13          12           1
SMALL
USER_CHARGES
 
@<TRIPOS>ATOM
       1    C1      20.947057   20.530781   22.278318 C.2        1 MOL1         0.6021
       2    O1      20.919170   20.799165   23.462842 O.co2      1 MOL1        -0.6904
       3    O2      21.898777   20.765967   21.560673 O.co2      1 MOL1        -0.6904
       4    C2      19.709048   19.897357   21.648373 C.3        1 MOL1        -0.2102
       5    H1      19.486861   20.455658   20.731139 H          1 MOL1         0.0687
       6    H2      18.856874   20.044801   22.323167 H          1 MOL1         0.0687
       7    C3      19.868279   18.392794   21.310332 C.3        1 MOL1        -0.1974
       8    H3      18.997100   18.060255   20.729525 H          1 MOL1         0.0689
       9    H4      20.748713   18.251428   20.667857 H          1 MOL1         0.0689
      10    C4      19.997651   17.514677   22.572117 C.3        1 MOL1        -0.2987
      11    H5      19.116826   17.624023   23.218323 H          1 MOL1         0.0700
      12    H6      20.088790   16.455446   22.298586 H          1 MOL1         0.0700
      13    H7      20.885865   17.790820   23.155766 H          1 MOL1         0.0700
@<TRIPOS>BOND
    1     1     2    1
    2     1     3    2
    3     1     4    1
    4     4     5    1
    5     4     6    1
    6     4     7    1
    7     7     8    1
    8     7     9    1
    9     7    10    1
   10    10    11    1
   11    10    12    1
   12    10    13    1
@<TRIPOS>SUBSTRUCTURE
       1 MOL1            1 RESIDUE      1      MOL     
@<SCITEGIC>MOL_PROPERTY
VConf Rank
SciTegic.value.IntegerValue
756

@<SCITEGIC>MOL_PROPERTY
Conf_Id
SciTegic.value.IntegerValue
36

@<SCITEGIC>MOL_PROPERTY
Delta U+W
SciTegic.value.DoubleValue
0.272

@<SCITEGIC>MOL_PROPERTY
U+W
SciTegic.value.DoubleValue
-58.060

@<SCITEGIC>MOL_PROPERTY
Grad RMS
SciTegic.value.DoubleValue
0.000000

@<SCITEGIC>MOL_PROPERTY
U
SciTegic.value.DoubleValue
9.781

@<SCITEGIC>MOL_PROPERTY
W
SciTegic.value.DoubleValue
-67.841

@<SCITEGIC>MOL_PROPERTY
W(PB)
SciTegic.value.DoubleValue
-69.537

@<SCITEGIC>MOL_PROPERTY
W(SA)
SciTegic.value.DoubleValue
1.696

@<SCITEGIC>MOL_PROPERTY
Valence
SciTegic.value.DoubleValue
6.123

@<SCITEGIC>MOL_PROPERTY
Coulomb
SciTegic.value.DoubleValue
3.449

@<SCITEGIC>MOL_PROPERTY
VdW
SciTegic.value.DoubleValue
0.209

@<SCITEGIC>MOL_PROPERTY
VdW6
SciTegic.value.DoubleValue
-3.762

@<SCITEGIC>MOL_PROPERTY
VdW12
SciTegic.value.DoubleValue
3.972

@<SCITEGIC>MOL_PROPERTY
Bond
SciTegic.value.DoubleValue
0.078

@<SCITEGIC>MOL_PROPERTY
Angle
SciTegic.value.DoubleValue
2.428

@<SCITEGIC>MOL_PROPERTY
Pdih
SciTegic.value.DoubleValue
3.616

@<SCITEGIC>MOL_PROPERTY
Idih
SciTegic.value.DoubleValue
0.002

@<SCITEGIC>MOL_PROPERTY
Tether
SciTegic.value.DoubleValue
0.000

@<TRIPOS>MOLECULE
guest-6_confgen4.mol2 : confsearch ligand conformer 757
          13          12           1
SMALL
USER_CHARGES
 
@<TRIPOS>ATOM
       1    C1      20.937724   17.091952   22.079247 C.2        1 MOL1         0.6021
       2    O1      21.576531   17.295760   23.093011 O.co2      1 MOL1        -0.6904
       3    O2      20.938332   16.024272   21.500581 O.co2      1 MOL1        -0.6904
       4    C2      20.084405   18.211451   21.479873 C.3        1 MOL1        -0.2102
       5    H1      19.053591   17.842226   21.421281 H          1 MOL1         0.0687
       6    H2      20.427031   18.369245   20.450288 H          1 MOL1         0.0687
       7    C3      20.114586   19.556148   22.252425 C.3        1 MOL1        -0.1974
       8    H3      19.773659   19.395281   23.284727 H          1 MOL1         0.0689
       9    H4      21.148808   19.922916   22.312607 H          1 MOL1         0.0689
      10    C4      19.227960   20.621358   21.576366 C.3        1 MOL1        -0.2987
      11    H5      18.181760   20.291181   21.531969 H          1 MOL1         0.0700
      12    H6      19.262074   21.564847   22.136654 H          1 MOL1         0.0700
      13    H7      19.567930   20.823006   20.552021 H          1 MOL1         0.0700
@<TRIPOS>BOND
    1     1     2    1
    2     1     3    2
    3     1     4    1
    4     4     5    1
    5     4     6    1
    6     4     7    1
    7     7     8    1
    8     7     9    1
    9     7    10    1
   10    10    11    1
   11    10    12    1
   12    10    13    1
@<TRIPOS>SUBSTRUCTURE
       1 MOL1            1 RESIDUE      1      MOL     
@<SCITEGIC>MOL_PROPERTY
VConf Rank
SciTegic.value.IntegerValue
757

@<SCITEGIC>MOL_PROPERTY
Conf_Id
SciTegic.value.IntegerValue
0

@<SCITEGIC>MOL_PROPERTY
Delta U+W
SciTegic.value.DoubleValue
0.000

@<SCITEGIC>MOL_PROPERTY
U+W
SciTegic.value.DoubleValue
-58.332

@<SCITEGIC>MOL_PROPERTY
Grad RMS
SciTegic.value.DoubleValue
0.000000

@<SCITEGIC>MOL_PROPERTY
U
SciTegic.value.DoubleValue
8.390

@<SCITEGIC>MOL_PROPERTY
W
SciTegic.value.DoubleValue
-66.722

@<SCITEGIC>MOL_PROPERTY
W(PB)
SciTegic.value.DoubleValue
-68.455

@<SCITEGIC>MOL_PROPERTY
W(SA)
SciTegic.value.DoubleValue
1.733

@<SCITEGIC>MOL_PROPERTY
Valence
SciTegic.value.DoubleValue
6.333

@<SCITEGIC>MOL_PROPERTY
Coulomb
SciTegic.value.DoubleValue
1.215

@<SCITEGIC>MOL_PROPERTY
VdW
SciTegic.value.DoubleValue
0.842

@<SCITEGIC>MOL_PROPERTY
VdW6
SciTegic.value.DoubleValue
-3.344

@<SCITEGIC>MOL_PROPERTY
VdW12
SciTegic.value.DoubleValue
4.186

@<SCITEGIC>MOL_PROPERTY
Bond
SciTegic.value.DoubleValue
0.091

@<SCITEGIC>MOL_PROPERTY
Angle
SciTegic.value.DoubleValue
2.713

@<SCITEGIC>MOL_PROPERTY
Pdih
SciTegic.value.DoubleValue
3.529

@<SCITEGIC>MOL_PROPERTY
Idih
SciTegic.value.DoubleValue
0.000

@<SCITEGIC>MOL_PROPERTY
Tether
SciTegic.value.DoubleValue
0.000

@<TRIPOS>MOLECULE
guest-6_confgen4.mol2 : confsearch ligand conformer 758
          13          12           1
SMALL
USER_CHARGES
 
@<TRIPOS>ATOM
       1    C1      18.900181   20.017442   20.309674 C.2        1 MOL1         0.6021
       2    O1      19.029814   21.223736   20.251275 O.co2      1 MOL1        -0.6904
       3    O2      17.928588   19.425595   19.884134 O.co2      1 MOL1        -0.6904
       4    C2      20.008396   19.203979   20.969702 C.3        1 MOL1        -0.2102
       5    H1      20.963011   19.708920   20.777962 H          1 MOL1         0.0687
       6    H2      20.054884   18.226071   20.475178 H          1 MOL1         0.0687
       7    C3      19.798842   19.021386   22.492395 C.3        1 MOL1        -0.1974
       8    H3      19.743921   20.006960   22.975560 H          1 MOL1         0.0689
       9    H4      18.835699   18.523725   22.672706 H          1 MOL1         0.0689
      10    C4      20.934746   18.195834   23.129167 C.3        1 MOL1        -0.2987
      11    H5      20.768723   18.077215   24.207883 H          1 MOL1         0.0700
      12    H6      20.990350   17.194319   22.682590 H          1 MOL1         0.0700
      13    H7      21.905520   18.688955   22.987798 H          1 MOL1         0.0700
@<TRIPOS>BOND
    1     1     2    1
    2     1     3    2
    3     1     4    1
    4     4     5    1
    5     4     6    1
    6     4     7    1
    7     7     8    1
    8     7     9    1
    9     7    10    1
   10    10    11    1
   11    10    12    1
   12    10    13    1
@<TRIPOS>SUBSTRUCTURE
       1 MOL1            1 RESIDUE      1      MOL     
@<SCITEGIC>MOL_PROPERTY
VConf Rank
SciTegic.value.IntegerValue
758

@<SCITEGIC>MOL_PROPERTY
Conf_Id
SciTegic.value.IntegerValue
1

@<SCITEGIC>MOL_PROPERTY
Delta U+W
SciTegic.value.DoubleValue
-1.339

@<SCITEGIC>MOL_PROPERTY
U+W
SciTegic.value.DoubleValue
-59.672

@<SCITEGIC>MOL_PROPERTY
Grad RMS
SciTegic.value.DoubleValue
0.000000

@<SCITEGIC>MOL_PROPERTY
U
SciTegic.value.DoubleValue
7.389

@<SCITEGIC>MOL_PROPERTY
W
SciTegic.value.DoubleValue
-67.061

@<SCITEGIC>MOL_PROPERTY
W(PB)
SciTegic.value.DoubleValue
-68.767

@<SCITEGIC>MOL_PROPERTY
W(SA)
SciTegic.value.DoubleValue
1.707

@<SCITEGIC>MOL_PROPERTY
Valence
SciTegic.value.DoubleValue
5.822

@<SCITEGIC>MOL_PROPERTY
Coulomb
SciTegic.value.DoubleValue
1.255

@<SCITEGIC>MOL_PROPERTY
VdW
SciTegic.value.DoubleValue
0.312

@<SCITEGIC>MOL_PROPERTY
VdW6
SciTegic.value.DoubleValue
-3.061

@<SCITEGIC>MOL_PROPERTY
VdW12
SciTegic.value.DoubleValue
3.372

@<SCITEGIC>MOL_PROPERTY
Bond
SciTegic.value.DoubleValue
0.059

@<SCITEGIC>MOL_PROPERTY
Angle
SciTegic.value.DoubleValue
2.241

@<SCITEGIC>MOL_PROPERTY
Pdih
SciTegic.value.DoubleValue
3.522

@<SCITEGIC>MOL_PROPERTY
Idih
SciTegic.value.DoubleValue
0.000

@<SCITEGIC>MOL_PROPERTY
Tether
SciTegic.value.DoubleValue
0.000

@<TRIPOS>MOLECULE
guest-6_confgen4.mol2 : confsearch ligand conformer 759
          13          12           1
SMALL
USER_CHARGES
 
@<TRIPOS>ATOM
       1    C1      21.112124   19.800476   23.239274 C.2        1 MOL1         0.6021
       2    O1      21.492192   19.113925   24.166795 O.co2      1 MOL1        -0.6904
       3    O2      21.799341   20.651329   22.710420 O.co2      1 MOL1        -0.6904
       4    C2      19.683379   19.606363   22.737543 C.3        1 MOL1        -0.2102
       5    H1      19.396270   20.484443   22.146078 H          1 MOL1         0.0687
       6    H2      19.027786   19.588439   23.616329 H          1 MOL1         0.0687
       7    C3      19.471655   18.312707   21.909916 C.3        1 MOL1        -0.1974
       8    H3      19.800862   17.443200   22.496006 H          1 MOL1         0.0689
       9    H4      18.397833   18.177874   21.721237 H          1 MOL1         0.0689
      10    C4      20.219994   18.345552   20.561272 C.3        1 MOL1        -0.2987
      11    H5      21.303812   18.435157   20.713382 H          1 MOL1         0.0700
      12    H6      20.033382   17.425163   19.992804 H          1 MOL1         0.0700
      13    H7      19.889554   19.195378   19.949719 H          1 MOL1         0.0700
@<TRIPOS>BOND
    1     1     2    1
    2     1     3    2
    3     1     4    1
    4     4     5    1
    5     4     6    1
    6     4     7    1
    7     7     8    1
    8     7     9    1
    9     7    10    1
   10    10    11    1
   11    10    12    1
   12    10    13    1
@<TRIPOS>SUBSTRUCTURE
       1 MOL1            1 RESIDUE      1      MOL     
@<SCITEGIC>MOL_PROPERTY
VConf Rank
SciTegic.value.IntegerValue
759

@<SCITEGIC>MOL_PROPERTY
Conf_Id
SciTegic.value.IntegerValue
4

@<SCITEGIC>MOL_PROPERTY
Delta U+W
SciTegic.value.DoubleValue
0.281

@<SCITEGIC>MOL_PROPERTY
U+W
SciTegic.value.DoubleValue
-58.051

@<SCITEGIC>MOL_PROPERTY
Grad RMS
SciTegic.value.DoubleValue
0.000000

@<SCITEGIC>MOL_PROPERTY
U
SciTegic.value.DoubleValue
9.781

@<SCITEGIC>MOL_PROPERTY
W
SciTegic.value.DoubleValue
-67.832

@<SCITEGIC>MOL_PROPERTY
W(PB)
SciTegic.value.DoubleValue
-69.535

@<SCITEGIC>MOL_PROPERTY
W(SA)
SciTegic.value.DoubleValue
1.703

@<SCITEGIC>MOL_PROPERTY
Valence
SciTegic.value.DoubleValue
6.123

@<SCITEGIC>MOL_PROPERTY
Coulomb
SciTegic.value.DoubleValue
3.449

@<SCITEGIC>MOL_PROPERTY
VdW
SciTegic.value.DoubleValue
0.209

@<SCITEGIC>MOL_PROPERTY
VdW6
SciTegic.value.DoubleValue
-3.762

@<SCITEGIC>MOL_PROPERTY
VdW12
SciTegic.value.DoubleValue
3.972

@<SCITEGIC>MOL_PROPERTY
Bond
SciTegic.value.DoubleValue
0.078

@<SCITEGIC>MOL_PROPERTY
Angle
SciTegic.value.DoubleValue
2.428

@<SCITEGIC>MOL_PROPERTY
Pdih
SciTegic.value.DoubleValue
3.616

@<SCITEGIC>MOL_PROPERTY
Idih
SciTegic.value.DoubleValue
0.002

@<SCITEGIC>MOL_PROPERTY
Tether
SciTegic.value.DoubleValue
0.000

@<TRIPOS>MOLECULE
guest-6_confgen4.mol2 : confsearch ligand conformer 760
          13          12           1
SMALL
USER_CHARGES
 
@<TRIPOS>ATOM
       1    C1      19.523866   20.082586   20.725262 C.2        1 MOL1         0.6021
       2    O1      19.375855   19.472349   19.685257 O.co2      1 MOL1        -0.6904
       3    O2      18.775429   20.964763   21.096346 O.co2      1 MOL1        -0.6904
       4    C2      20.732936   19.750044   21.596060 C.3        1 MOL1        -0.2102
       5    H1      21.212363   20.698574   21.865928 H          1 MOL1         0.0687
       6    H2      21.457301   19.189542   20.992388 H          1 MOL1         0.0687
       7    C3      20.388638   18.961226   22.885464 C.3        1 MOL1        -0.1974
       8    H3      21.284042   18.898426   23.518851 H          1 MOL1         0.0689
       9    H4      19.631930   19.511460   23.462142 H          1 MOL1         0.0689
      10    C4      19.881260   17.535167   22.587385 C.3        1 MOL1        -0.2987
      11    H5      20.632269   16.959901   22.030208 H          1 MOL1         0.0700
      12    H6      19.665768   16.998337   23.520376 H          1 MOL1         0.0700
      13    H7      18.959354   17.560801   21.991349 H          1 MOL1         0.0700
@<TRIPOS>BOND
    1     1     2    1
    2     1     3    2
    3     1     4    1
    4     4     5    1
    5     4     6    1
    6     4     7    1
    7     7     8    1
    8     7     9    1
    9     7    10    1
   10    10    11    1
   11    10    12    1
   12    10    13    1
@<TRIPOS>SUBSTRUCTURE
       1 MOL1            1 RESIDUE      1      MOL     
@<SCITEGIC>MOL_PROPERTY
VConf Rank
SciTegic.value.IntegerValue
760

@<SCITEGIC>MOL_PROPERTY
Conf_Id
SciTegic.value.IntegerValue
36

@<SCITEGIC>MOL_PROPERTY
Delta U+W
SciTegic.value.DoubleValue
0.272

@<SCITEGIC>MOL_PROPERTY
U+W
SciTegic.value.DoubleValue
-58.060

@<SCITEGIC>MOL_PROPERTY
Grad RMS
SciTegic.value.DoubleValue
0.000000

@<SCITEGIC>MOL_PROPERTY
U
SciTegic.value.DoubleValue
9.781

@<SCITEGIC>MOL_PROPERTY
W
SciTegic.value.DoubleValue
-67.841

@<SCITEGIC>MOL_PROPERTY
W(PB)
SciTegic.value.DoubleValue
-69.537

@<SCITEGIC>MOL_PROPERTY
W(SA)
SciTegic.value.DoubleValue
1.696

@<SCITEGIC>MOL_PROPERTY
Valence
SciTegic.value.DoubleValue
6.123

@<SCITEGIC>MOL_PROPERTY
Coulomb
SciTegic.value.DoubleValue
3.449

@<SCITEGIC>MOL_PROPERTY
VdW
SciTegic.value.DoubleValue
0.209

@<SCITEGIC>MOL_PROPERTY
VdW6
SciTegic.value.DoubleValue
-3.762

@<SCITEGIC>MOL_PROPERTY
VdW12
SciTegic.value.DoubleValue
3.972

@<SCITEGIC>MOL_PROPERTY
Bond
SciTegic.value.DoubleValue
0.078

@<SCITEGIC>MOL_PROPERTY
Angle
SciTegic.value.DoubleValue
2.428

@<SCITEGIC>MOL_PROPERTY
Pdih
SciTegic.value.DoubleValue
3.616

@<SCITEGIC>MOL_PROPERTY
Idih
SciTegic.value.DoubleValue
0.002

@<SCITEGIC>MOL_PROPERTY
Tether
SciTegic.value.DoubleValue
0.000

@<TRIPOS>MOLECULE
guest-6_confgen4.mol2 : confsearch ligand conformer 761
          13          12           1
SMALL
USER_CHARGES
 
@<TRIPOS>ATOM
       1    C1      20.586016   17.040366   22.443071 C.2        1 MOL1         0.6021
       2    O1      21.027500   16.602406   21.398747 O.co2      1 MOL1        -0.6904
       3    O2      20.552646   16.393162   23.470110 O.co2      1 MOL1        -0.6904
       4    C2      20.039831   18.468399   22.498622 C.3        1 MOL1        -0.2102
       5    H1      20.603267   19.004943   23.271278 H          1 MOL1         0.0687
       6    H2      19.000673   18.408636   22.843464 H          1 MOL1         0.0687
       7    C3      20.102930   19.256328   21.164027 C.3        1 MOL1        -0.1974
       8    H3      21.144731   19.312554   20.818708 H          1 MOL1         0.0689
       9    H4      19.540224   18.715473   20.390339 H          1 MOL1         0.0689
      10    C4      19.532241   20.680761   21.316139 C.3        1 MOL1        -0.2987
      11    H5      20.098217   21.253133   22.062854 H          1 MOL1         0.0700
      12    H6      19.585282   21.222236   20.362593 H          1 MOL1         0.0700
      13    H7      18.480836   20.651245   21.631099 H          1 MOL1         0.0700
@<TRIPOS>BOND
    1     1     2    1
    2     1     3    2
    3     1     4    1
    4     4     5    1
    5     4     6    1
    6     4     7    1
    7     7     8    1
    8     7     9    1
    9     7    10    1
   10    10    11    1
   11    10    12    1
   12    10    13    1
@<TRIPOS>SUBSTRUCTURE
       1 MOL1            1 RESIDUE      1      MOL     
@<SCITEGIC>MOL_PROPERTY
VConf Rank
SciTegic.value.IntegerValue
761

@<SCITEGIC>MOL_PROPERTY
Conf_Id
SciTegic.value.IntegerValue
0

@<SCITEGIC>MOL_PROPERTY
Delta U+W
SciTegic.value.DoubleValue
0.000

@<SCITEGIC>MOL_PROPERTY
U+W
SciTegic.value.DoubleValue
-58.332

@<SCITEGIC>MOL_PROPERTY
Grad RMS
SciTegic.value.DoubleValue
0.000000

@<SCITEGIC>MOL_PROPERTY
U
SciTegic.value.DoubleValue
8.390

@<SCITEGIC>MOL_PROPERTY
W
SciTegic.value.DoubleValue
-66.722

@<SCITEGIC>MOL_PROPERTY
W(PB)
SciTegic.value.DoubleValue
-68.455

@<SCITEGIC>MOL_PROPERTY
W(SA)
SciTegic.value.DoubleValue
1.733

@<SCITEGIC>MOL_PROPERTY
Valence
SciTegic.value.DoubleValue
6.333

@<SCITEGIC>MOL_PROPERTY
Coulomb
SciTegic.value.DoubleValue
1.215

@<SCITEGIC>MOL_PROPERTY
VdW
SciTegic.value.DoubleValue
0.842

@<SCITEGIC>MOL_PROPERTY
VdW6
SciTegic.value.DoubleValue
-3.344

@<SCITEGIC>MOL_PROPERTY
VdW12
SciTegic.value.DoubleValue
4.186

@<SCITEGIC>MOL_PROPERTY
Bond
SciTegic.value.DoubleValue
0.091

@<SCITEGIC>MOL_PROPERTY
Angle
SciTegic.value.DoubleValue
2.713

@<SCITEGIC>MOL_PROPERTY
Pdih
SciTegic.value.DoubleValue
3.529

@<SCITEGIC>MOL_PROPERTY
Idih
SciTegic.value.DoubleValue
0.000

@<SCITEGIC>MOL_PROPERTY
Tether
SciTegic.value.DoubleValue
0.000

@<TRIPOS>MOLECULE
guest-6_confgen4.mol2 : confsearch ligand conformer 762
          13          12           1
SMALL
USER_CHARGES
 
@<TRIPOS>ATOM
       1    C1      19.957416   19.057068   19.720391 C.2        1 MOL1         0.6021
       2    O1      18.899808   19.359170   19.205065 O.co2      1 MOL1        -0.6904
       3    O2      20.805248   18.385140   19.168073 O.co2      1 MOL1        -0.6904
       4    C2      20.227374   19.531086   21.144444 C.3        1 MOL1        -0.2102
       5    H1      19.734881   20.501656   21.280323 H          1 MOL1         0.0687
       6    H2      21.306222   19.698432   21.249807 H          1 MOL1         0.0687
       7    C3      19.736375   18.529753   22.217803 C.3        1 MOL1        -0.1974
       8    H3      18.657003   18.362331   22.096358 H          1 MOL1         0.0689
       9    H4      20.228730   17.559011   22.065915 H          1 MOL1         0.0689
      10    C4      20.023586   19.037625   23.644991 C.3        1 MOL1        -0.2987
      11    H5      19.668697   18.314946   24.391349 H          1 MOL1         0.0700
      12    H6      21.100575   19.184233   23.800412 H          1 MOL1         0.0700
      13    H7      19.516760   19.993686   23.831091 H          1 MOL1         0.0700
@<TRIPOS>BOND
    1     1     2    1
    2     1     3    2
    3     1     4    1
    4     4     5    1
    5     4     6    1
    6     4     7    1
    7     7     8    1
    8     7     9    1
    9     7    10    1
   10    10    11    1
   11    10    12    1
   12    10    13    1
@<TRIPOS>SUBSTRUCTURE
       1 MOL1            1 RESIDUE      1      MOL     
@<SCITEGIC>MOL_PROPERTY
VConf Rank
SciTegic.value.IntegerValue
762

@<SCITEGIC>MOL_PROPERTY
Conf_Id
SciTegic.value.IntegerValue
1

@<SCITEGIC>MOL_PROPERTY
Delta U+W
SciTegic.value.DoubleValue
-1.339

@<SCITEGIC>MOL_PROPERTY
U+W
SciTegic.value.DoubleValue
-59.672

@<SCITEGIC>MOL_PROPERTY
Grad RMS
SciTegic.value.DoubleValue
0.000000

@<SCITEGIC>MOL_PROPERTY
U
SciTegic.value.DoubleValue
7.389

@<SCITEGIC>MOL_PROPERTY
W
SciTegic.value.DoubleValue
-67.061

@<SCITEGIC>MOL_PROPERTY
W(PB)
SciTegic.value.DoubleValue
-68.767

@<SCITEGIC>MOL_PROPERTY
W(SA)
SciTegic.value.DoubleValue
1.707

@<SCITEGIC>MOL_PROPERTY
Valence
SciTegic.value.DoubleValue
5.822

@<SCITEGIC>MOL_PROPERTY
Coulomb
SciTegic.value.DoubleValue
1.255

@<SCITEGIC>MOL_PROPERTY
VdW
SciTegic.value.DoubleValue
0.312

@<SCITEGIC>MOL_PROPERTY
VdW6
SciTegic.value.DoubleValue
-3.061

@<SCITEGIC>MOL_PROPERTY
VdW12
SciTegic.value.DoubleValue
3.372

@<SCITEGIC>MOL_PROPERTY
Bond
SciTegic.value.DoubleValue
0.059

@<SCITEGIC>MOL_PROPERTY
Angle
SciTegic.value.DoubleValue
2.241

@<SCITEGIC>MOL_PROPERTY
Pdih
SciTegic.value.DoubleValue
3.522

@<SCITEGIC>MOL_PROPERTY
Idih
SciTegic.value.DoubleValue
0.000

@<SCITEGIC>MOL_PROPERTY
Tether
SciTegic.value.DoubleValue
0.000

@<TRIPOS>MOLECULE
guest-6_confgen4.mol2 : confsearch ligand conformer 763
          13          12           1
SMALL
USER_CHARGES
 
@<TRIPOS>ATOM
       1    C1      21.852214   18.768386   21.562700 C.2        1 MOL1         0.6021
       2    O1      22.533978   19.772786   21.612476 O.co2      1 MOL1        -0.6904
       3    O2      22.240625   17.676722   21.927818 O.co2      1 MOL1        -0.6904
       4    C2      20.446819   18.880082   20.976939 C.3        1 MOL1        -0.2102
       5    H1      20.097224   17.875653   20.708251 H          1 MOL1         0.0687
       6    H2      20.526244   19.448179   20.042410 H          1 MOL1         0.0687
       7    C3      19.421764   19.569314   21.913721 C.3        1 MOL1        -0.1974
       8    H3      19.800711   20.557568   22.209822 H          1 MOL1         0.0689
       9    H4      18.488272   19.741937   21.360849 H          1 MOL1         0.0689
      10    C4      19.114654   18.730740   23.171657 C.3        1 MOL1        -0.2987
      11    H5      20.020050   18.575695   23.773360 H          1 MOL1         0.0700
      12    H6      18.372262   19.236960   23.802286 H          1 MOL1         0.0700
      13    H7      18.713367   17.745986   22.898487 H          1 MOL1         0.0700
@<TRIPOS>BOND
    1     1     2    1
    2     1     3    2
    3     1     4    1
    4     4     5    1
    5     4     6    1
    6     4     7    1
    7     7     8    1
    8     7     9    1
    9     7    10    1
   10    10    11    1
   11    10    12    1
   12    10    13    1
@<TRIPOS>SUBSTRUCTURE
       1 MOL1            1 RESIDUE      1      MOL     
@<SCITEGIC>MOL_PROPERTY
VConf Rank
SciTegic.value.IntegerValue
763

@<SCITEGIC>MOL_PROPERTY
Conf_Id
SciTegic.value.IntegerValue
4

@<SCITEGIC>MOL_PROPERTY
Delta U+W
SciTegic.value.DoubleValue
0.281

@<SCITEGIC>MOL_PROPERTY
U+W
SciTegic.value.DoubleValue
-58.051

@<SCITEGIC>MOL_PROPERTY
Grad RMS
SciTegic.value.DoubleValue
0.000000

@<SCITEGIC>MOL_PROPERTY
U
SciTegic.value.DoubleValue
9.781

@<SCITEGIC>MOL_PROPERTY
W
SciTegic.value.DoubleValue
-67.832

@<SCITEGIC>MOL_PROPERTY
W(PB)
SciTegic.value.DoubleValue
-69.535

@<SCITEGIC>MOL_PROPERTY
W(SA)
SciTegic.value.DoubleValue
1.703

@<SCITEGIC>MOL_PROPERTY
Valence
SciTegic.value.DoubleValue
6.123

@<SCITEGIC>MOL_PROPERTY
Coulomb
SciTegic.value.DoubleValue
3.449

@<SCITEGIC>MOL_PROPERTY
VdW
SciTegic.value.DoubleValue
0.209

@<SCITEGIC>MOL_PROPERTY
VdW6
SciTegic.value.DoubleValue
-3.762

@<SCITEGIC>MOL_PROPERTY
VdW12
SciTegic.value.DoubleValue
3.972

@<SCITEGIC>MOL_PROPERTY
Bond
SciTegic.value.DoubleValue
0.078

@<SCITEGIC>MOL_PROPERTY
Angle
SciTegic.value.DoubleValue
2.428

@<SCITEGIC>MOL_PROPERTY
Pdih
SciTegic.value.DoubleValue
3.616

@<SCITEGIC>MOL_PROPERTY
Idih
SciTegic.value.DoubleValue
0.002

@<SCITEGIC>MOL_PROPERTY
Tether
SciTegic.value.DoubleValue
0.000

@<TRIPOS>MOLECULE
guest-6_confgen4.mol2 : confsearch ligand conformer 764
          13          12           1
SMALL
USER_CHARGES
 
@<TRIPOS>ATOM
       1    C1      20.511598   20.490793   21.138794 C.2        1 MOL1         0.6021
       2    O1      21.427958   21.051954   21.705615 O.co2      1 MOL1        -0.6904
       3    O2      20.383226   20.470936   19.930811 O.co2      1 MOL1        -0.6904
       4    C2      19.444648   19.804262   21.987922 C.3        1 MOL1        -0.2102
       5    H1      18.467548   20.125597   21.607915 H          1 MOL1         0.0687
       6    H2      19.521929   20.175682   23.017175 H          1 MOL1         0.0687
       7    C3      19.520208   18.255916   21.971995 C.3        1 MOL1        -0.1974
       8    H3      18.635367   17.847175   22.478807 H          1 MOL1         0.0689
       9    H4      19.483621   17.896629   20.933970 H          1 MOL1         0.0689
      10    C4      20.790166   17.719655   22.664497 C.3        1 MOL1        -0.2987
      11    H5      20.835380   18.049018   23.710855 H          1 MOL1         0.0700
      12    H6      20.802798   16.622018   22.653117 H          1 MOL1         0.0700
      13    H7      21.696565   18.073539   22.155544 H          1 MOL1         0.0700
@<TRIPOS>BOND
    1     1     2    1
    2     1     3    2
    3     1     4    1
    4     4     5    1
    5     4     6    1
    6     4     7    1
    7     7     8    1
    8     7     9    1
    9     7    10    1
   10    10    11    1
   11    10    12    1
   12    10    13    1
@<TRIPOS>SUBSTRUCTURE
       1 MOL1            1 RESIDUE      1      MOL     
@<SCITEGIC>MOL_PROPERTY
VConf Rank
SciTegic.value.IntegerValue
764

@<SCITEGIC>MOL_PROPERTY
Conf_Id
SciTegic.value.IntegerValue
36

@<SCITEGIC>MOL_PROPERTY
Delta U+W
SciTegic.value.DoubleValue
0.272

@<SCITEGIC>MOL_PROPERTY
U+W
SciTegic.value.DoubleValue
-58.060

@<SCITEGIC>MOL_PROPERTY
Grad RMS
SciTegic.value.DoubleValue
0.000000

@<SCITEGIC>MOL_PROPERTY
U
SciTegic.value.DoubleValue
9.781

@<SCITEGIC>MOL_PROPERTY
W
SciTegic.value.DoubleValue
-67.841

@<SCITEGIC>MOL_PROPERTY
W(PB)
SciTegic.value.DoubleValue
-69.537

@<SCITEGIC>MOL_PROPERTY
W(SA)
SciTegic.value.DoubleValue
1.696

@<SCITEGIC>MOL_PROPERTY
Valence
SciTegic.value.DoubleValue
6.123

@<SCITEGIC>MOL_PROPERTY
Coulomb
SciTegic.value.DoubleValue
3.449

@<SCITEGIC>MOL_PROPERTY
VdW
SciTegic.value.DoubleValue
0.209

@<SCITEGIC>MOL_PROPERTY
VdW6
SciTegic.value.DoubleValue
-3.762

@<SCITEGIC>MOL_PROPERTY
VdW12
SciTegic.value.DoubleValue
3.972

@<SCITEGIC>MOL_PROPERTY
Bond
SciTegic.value.DoubleValue
0.078

@<SCITEGIC>MOL_PROPERTY
Angle
SciTegic.value.DoubleValue
2.428

@<SCITEGIC>MOL_PROPERTY
Pdih
SciTegic.value.DoubleValue
3.616

@<SCITEGIC>MOL_PROPERTY
Idih
SciTegic.value.DoubleValue
0.002

@<SCITEGIC>MOL_PROPERTY
Tether
SciTegic.value.DoubleValue
0.000

@<TRIPOS>MOLECULE
guest-6_confgen4.mol2 : confsearch ligand conformer 765
          13          12           1
SMALL
USER_CHARGES
 
@<TRIPOS>ATOM
       1    C1      20.477447   21.080573   21.943637 C.2        1 MOL1         0.6021
       2    O1      20.070639   21.453428   20.860671 O.co2      1 MOL1        -0.6904
       3    O2      20.980794   21.830847   22.755133 O.co2      1 MOL1        -0.6904
       4    C2      20.364832   19.604951   22.331632 C.3        1 MOL1        -0.2102
       5    H1      19.788406   19.554060   23.263019 H          1 MOL1         0.0687
       6    H2      21.376038   19.248304   22.560984 H          1 MOL1         0.0687
       7    C3      19.715843   18.685008   21.264639 C.3        1 MOL1        -0.1974
       8    H3      18.703709   19.045833   21.034108 H          1 MOL1         0.0689
       9    H4      20.293253   18.739758   20.331176 H          1 MOL1         0.0689
      10    C4      19.645136   17.220566   21.742390 C.3        1 MOL1        -0.2987
      11    H5      19.046224   17.134645   22.658602 H          1 MOL1         0.0700
      12    H6      19.183531   16.585533   20.974985 H          1 MOL1         0.0700
      13    H7      20.648539   16.826139   21.950074 H          1 MOL1         0.0700
@<TRIPOS>BOND
    1     1     2    1
    2     1     3    2
    3     1     4    1
    4     4     5    1
    5     4     6    1
    6     4     7    1
    7     7     8    1
    8     7     9    1
    9     7    10    1
   10    10    11    1
   11    10    12    1
   12    10    13    1
@<TRIPOS>SUBSTRUCTURE
       1 MOL1            1 RESIDUE      1      MOL     
@<SCITEGIC>MOL_PROPERTY
VConf Rank
SciTegic.value.IntegerValue
765

@<SCITEGIC>MOL_PROPERTY
Conf_Id
SciTegic.value.IntegerValue
0

@<SCITEGIC>MOL_PROPERTY
Delta U+W
SciTegic.value.DoubleValue
0.000

@<SCITEGIC>MOL_PROPERTY
U+W
SciTegic.value.DoubleValue
-58.332

@<SCITEGIC>MOL_PROPERTY
Grad RMS
SciTegic.value.DoubleValue
0.000000

@<SCITEGIC>MOL_PROPERTY
U
SciTegic.value.DoubleValue
8.390

@<SCITEGIC>MOL_PROPERTY
W
SciTegic.value.DoubleValue
-66.722

@<SCITEGIC>MOL_PROPERTY
W(PB)
SciTegic.value.DoubleValue
-68.455

@<SCITEGIC>MOL_PROPERTY
W(SA)
SciTegic.value.DoubleValue
1.733

@<SCITEGIC>MOL_PROPERTY
Valence
SciTegic.value.DoubleValue
6.333

@<SCITEGIC>MOL_PROPERTY
Coulomb
SciTegic.value.DoubleValue
1.215

@<SCITEGIC>MOL_PROPERTY
VdW
SciTegic.value.DoubleValue
0.842

@<SCITEGIC>MOL_PROPERTY
VdW6
SciTegic.value.DoubleValue
-3.344

@<SCITEGIC>MOL_PROPERTY
VdW12
SciTegic.value.DoubleValue
4.186

@<SCITEGIC>MOL_PROPERTY
Bond
SciTegic.value.DoubleValue
0.091

@<SCITEGIC>MOL_PROPERTY
Angle
SciTegic.value.DoubleValue
2.713

@<SCITEGIC>MOL_PROPERTY
Pdih
SciTegic.value.DoubleValue
3.529

@<SCITEGIC>MOL_PROPERTY
Idih
SciTegic.value.DoubleValue
0.000

@<SCITEGIC>MOL_PROPERTY
Tether
SciTegic.value.DoubleValue
0.000

@<TRIPOS>MOLECULE
guest-6_confgen4.mol2 : confsearch ligand conformer 766
          13          12           1
SMALL
USER_CHARGES
 
@<TRIPOS>ATOM
       1    C1      18.771783   20.086638   23.203555 C.2        1 MOL1         0.6021
       2    O1      19.049027   21.256167   23.378766 O.co2      1 MOL1        -0.6904
       3    O2      18.180625   19.407714   24.019002 O.co2      1 MOL1        -0.6904
       4    C2      19.205840   19.430280   21.897305 C.3        1 MOL1        -0.2102
       5    H1      19.179336   20.191062   21.107668 H          1 MOL1         0.0687
       6    H2      18.463183   18.666730   21.635637 H          1 MOL1         0.0687
       7    C3      20.615526   18.796274   21.978988 C.3        1 MOL1        -0.1974
       8    H3      21.349192   19.567905   22.251277 H          1 MOL1         0.0689
       9    H4      20.632865   18.043209   22.779247 H          1 MOL1         0.0689
      10    C4      21.024472   18.141918   20.644120 C.3        1 MOL1        -0.2987
      11    H5      22.025716   17.698339   20.721639 H          1 MOL1         0.0700
      12    H6      20.321627   17.345751   20.365408 H          1 MOL1         0.0700
      13    H7      21.043483   18.882151   19.833410 H          1 MOL1         0.0700
@<TRIPOS>BOND
    1     1     2    1
    2     1     3    2
    3     1     4    1
    4     4     5    1
    5     4     6    1
    6     4     7    1
    7     7     8    1
    8     7     9    1
    9     7    10    1
   10    10    11    1
   11    10    12    1
   12    10    13    1
@<TRIPOS>SUBSTRUCTURE
       1 MOL1            1 RESIDUE      1      MOL     
@<SCITEGIC>MOL_PROPERTY
VConf Rank
SciTegic.value.IntegerValue
766

@<SCITEGIC>MOL_PROPERTY
Conf_Id
SciTegic.value.IntegerValue
1

@<SCITEGIC>MOL_PROPERTY
Delta U+W
SciTegic.value.DoubleValue
-1.339

@<SCITEGIC>MOL_PROPERTY
U+W
SciTegic.value.DoubleValue
-59.672

@<SCITEGIC>MOL_PROPERTY
Grad RMS
SciTegic.value.DoubleValue
0.000000

@<SCITEGIC>MOL_PROPERTY
U
SciTegic.value.DoubleValue
7.389

@<SCITEGIC>MOL_PROPERTY
W
SciTegic.value.DoubleValue
-67.061

@<SCITEGIC>MOL_PROPERTY
W(PB)
SciTegic.value.DoubleValue
-68.767

@<SCITEGIC>MOL_PROPERTY
W(SA)
SciTegic.value.DoubleValue
1.707

@<SCITEGIC>MOL_PROPERTY
Valence
SciTegic.value.DoubleValue
5.822

@<SCITEGIC>MOL_PROPERTY
Coulomb
SciTegic.value.DoubleValue
1.255

@<SCITEGIC>MOL_PROPERTY
VdW
SciTegic.value.DoubleValue
0.312

@<SCITEGIC>MOL_PROPERTY
VdW6
SciTegic.value.DoubleValue
-3.061

@<SCITEGIC>MOL_PROPERTY
VdW12
SciTegic.value.DoubleValue
3.372

@<SCITEGIC>MOL_PROPERTY
Bond
SciTegic.value.DoubleValue
0.059

@<SCITEGIC>MOL_PROPERTY
Angle
SciTegic.value.DoubleValue
2.241

@<SCITEGIC>MOL_PROPERTY
Pdih
SciTegic.value.DoubleValue
3.522

@<SCITEGIC>MOL_PROPERTY
Idih
SciTegic.value.DoubleValue
0.000

@<SCITEGIC>MOL_PROPERTY
Tether
SciTegic.value.DoubleValue
0.000

@<TRIPOS>MOLECULE
guest-6_confgen4.mol2 : confsearch ligand conformer 767
          13          12           1
SMALL
USER_CHARGES
 
@<TRIPOS>ATOM
       1    C1      21.355409   20.266801   22.095786 C.2        1 MOL1         0.6021
       2    O1      21.069839   21.314260   21.550464 O.co2      1 MOL1        -0.6904
       3    O2      21.930110   20.203098   23.164227 O.co2      1 MOL1        -0.6904
       4    C2      21.004434   18.963878   21.381688 C.3        1 MOL1        -0.2102
       5    H1      21.594028   18.151159   21.823450 H          1 MOL1         0.0687
       6    H2      21.332636   19.063142   20.340143 H          1 MOL1         0.0687
       7    C3      19.495870   18.608276   21.415198 C.3        1 MOL1        -0.1974
       8    H3      18.911557   19.445654   21.008630 H          1 MOL1         0.0689
       9    H4      19.314254   17.747720   20.756918 H          1 MOL1         0.0689
      10    C4      19.000730   18.268932   22.836328 C.3        1 MOL1        -0.2987
      11    H5      19.126446   19.124661   23.512901 H          1 MOL1         0.0700
      12    H6      17.935720   18.003155   22.821737 H          1 MOL1         0.0700
      13    H7      19.557150   17.419274   23.253305 H          1 MOL1         0.0700
@<TRIPOS>BOND
    1     1     2    1
    2     1     3    2
    3     1     4    1
    4     4     5    1
    5     4     6    1
    6     4     7    1
    7     7     8    1
    8     7     9    1
    9     7    10    1
   10    10    11    1
   11    10    12    1
   12    10    13    1
@<TRIPOS>SUBSTRUCTURE
       1 MOL1            1 RESIDUE      1      MOL     
@<SCITEGIC>MOL_PROPERTY
VConf Rank
SciTegic.value.IntegerValue
767

@<SCITEGIC>MOL_PROPERTY
Conf_Id
SciTegic.value.IntegerValue
4

@<SCITEGIC>MOL_PROPERTY
Delta U+W
SciTegic.value.DoubleValue
0.281

@<SCITEGIC>MOL_PROPERTY
U+W
SciTegic.value.DoubleValue
-58.051

@<SCITEGIC>MOL_PROPERTY
Grad RMS
SciTegic.value.DoubleValue
0.000000

@<SCITEGIC>MOL_PROPERTY
U
SciTegic.value.DoubleValue
9.781

@<SCITEGIC>MOL_PROPERTY
W
SciTegic.value.DoubleValue
-67.832

@<SCITEGIC>MOL_PROPERTY
W(PB)
SciTegic.value.DoubleValue
-69.535

@<SCITEGIC>MOL_PROPERTY
W(SA)
SciTegic.value.DoubleValue
1.703

@<SCITEGIC>MOL_PROPERTY
Valence
SciTegic.value.DoubleValue
6.123

@<SCITEGIC>MOL_PROPERTY
Coulomb
SciTegic.value.DoubleValue
3.449

@<SCITEGIC>MOL_PROPERTY
VdW
SciTegic.value.DoubleValue
0.209

@<SCITEGIC>MOL_PROPERTY
VdW6
SciTegic.value.DoubleValue
-3.762

@<SCITEGIC>MOL_PROPERTY
VdW12
SciTegic.value.DoubleValue
3.972

@<SCITEGIC>MOL_PROPERTY
Bond
SciTegic.value.DoubleValue
0.078

@<SCITEGIC>MOL_PROPERTY
Angle
SciTegic.value.DoubleValue
2.428

@<SCITEGIC>MOL_PROPERTY
Pdih
SciTegic.value.DoubleValue
3.616

@<SCITEGIC>MOL_PROPERTY
Idih
SciTegic.value.DoubleValue
0.002

@<SCITEGIC>MOL_PROPERTY
Tether
SciTegic.value.DoubleValue
0.000

@<TRIPOS>MOLECULE
guest-6_confgen4.mol2 : confsearch ligand conformer 768
          13          12           1
SMALL
USER_CHARGES
 
@<TRIPOS>ATOM
       1    C1      20.617870   19.856341   23.470009 C.2        1 MOL1         0.6021
       2    O1      21.324304   20.794645   23.159459 O.co2      1 MOL1        -0.6904
       3    O2      19.801670   19.901351   24.368836 O.co2      1 MOL1        -0.6904
       4    C2      20.787695   18.539470   22.716528 C.3        1 MOL1        -0.2102
       5    H1      20.859678   17.741374   23.465025 H          1 MOL1         0.0687
       6    H2      21.745997   18.560816   22.183153 H          1 MOL1         0.0687
       7    C3      19.634972   18.219203   21.730629 C.3        1 MOL1        -0.1974
       8    H3      19.760554   17.196292   21.350164 H          1 MOL1         0.0689
       9    H4      18.675802   18.241121   22.266758 H          1 MOL1         0.0689
      10    C4      19.588268   19.197845   20.538990 C.3        1 MOL1        -0.2987
      11    H5      20.530303   19.175355   19.975558 H          1 MOL1         0.0700
      12    H6      18.774905   18.931673   19.851465 H          1 MOL1         0.0700
      13    H7      19.418995   20.227690   20.880444 H          1 MOL1         0.0700
@<TRIPOS>BOND
    1     1     2    1
    2     1     3    2
    3     1     4    1
    4     4     5    1
    5     4     6    1
    6     4     7    1
    7     7     8    1
    8     7     9    1
    9     7    10    1
   10    10    11    1
   11    10    12    1
   12    10    13    1
@<TRIPOS>SUBSTRUCTURE
       1 MOL1            1 RESIDUE      1      MOL     
@<SCITEGIC>MOL_PROPERTY
VConf Rank
SciTegic.value.IntegerValue
768

@<SCITEGIC>MOL_PROPERTY
Conf_Id
SciTegic.value.IntegerValue
36

@<SCITEGIC>MOL_PROPERTY
Delta U+W
SciTegic.value.DoubleValue
0.272

@<SCITEGIC>MOL_PROPERTY
U+W
SciTegic.value.DoubleValue
-58.060

@<SCITEGIC>MOL_PROPERTY
Grad RMS
SciTegic.value.DoubleValue
0.000000

@<SCITEGIC>MOL_PROPERTY
U
SciTegic.value.DoubleValue
9.781

@<SCITEGIC>MOL_PROPERTY
W
SciTegic.value.DoubleValue
-67.841

@<SCITEGIC>MOL_PROPERTY
W(PB)
SciTegic.value.DoubleValue
-69.537

@<SCITEGIC>MOL_PROPERTY
W(SA)
SciTegic.value.DoubleValue
1.696

@<SCITEGIC>MOL_PROPERTY
Valence
SciTegic.value.DoubleValue
6.123

@<SCITEGIC>MOL_PROPERTY
Coulomb
SciTegic.value.DoubleValue
3.449

@<SCITEGIC>MOL_PROPERTY
VdW
SciTegic.value.DoubleValue
0.209

@<SCITEGIC>MOL_PROPERTY
VdW6
SciTegic.value.DoubleValue
-3.762

@<SCITEGIC>MOL_PROPERTY
VdW12
SciTegic.value.DoubleValue
3.972

@<SCITEGIC>MOL_PROPERTY
Bond
SciTegic.value.DoubleValue
0.078

@<SCITEGIC>MOL_PROPERTY
Angle
SciTegic.value.DoubleValue
2.428

@<SCITEGIC>MOL_PROPERTY
Pdih
SciTegic.value.DoubleValue
3.616

@<SCITEGIC>MOL_PROPERTY
Idih
SciTegic.value.DoubleValue
0.002

@<SCITEGIC>MOL_PROPERTY
Tether
SciTegic.value.DoubleValue
0.000

@<TRIPOS>MOLECULE
guest-6_confgen4.mol2 : confsearch ligand conformer 769
          13          12           1
SMALL
USER_CHARGES
 
@<TRIPOS>ATOM
       1    C1      19.043780   19.037665   23.715072 C.2        1 MOL1         0.6021
       2    O1      18.032352   19.644710   23.422085 O.co2      1 MOL1        -0.6904
       3    O2      19.271206   18.634231   24.837709 O.co2      1 MOL1        -0.6904
       4    C2      20.097764   18.753354   22.643173 C.3        1 MOL1        -0.2102
       5    H1      20.241090   17.666937   22.604513 H          1 MOL1         0.0687
       6    H2      21.042742   19.188902   22.989077 H          1 MOL1         0.0687
       7    C3      19.764449   19.287135   21.225451 C.3        1 MOL1        -0.1974
       8    H3      18.815697   18.851720   20.881883 H          1 MOL1         0.0689
       9    H4      19.618259   20.375557   21.266931 H          1 MOL1         0.0689
      10    C4      20.880627   18.954661   20.214787 C.3        1 MOL1        -0.2987
      11    H5      21.025099   17.869409   20.131851 H          1 MOL1         0.0700
      12    H6      20.627210   19.339917   19.218486 H          1 MOL1         0.0700
      13    H7      21.834117   19.405446   20.520032 H          1 MOL1         0.0700
@<TRIPOS>BOND
    1     1     2    1
    2     1     3    2
    3     1     4    1
    4     4     5    1
    5     4     6    1
    6     4     7    1
    7     7     8    1
    8     7     9    1
    9     7    10    1
   10    10    11    1
   11    10    12    1
   12    10    13    1
@<TRIPOS>SUBSTRUCTURE
       1 MOL1            1 RESIDUE      1      MOL     
@<SCITEGIC>MOL_PROPERTY
VConf Rank
SciTegic.value.IntegerValue
769

@<SCITEGIC>MOL_PROPERTY
Conf_Id
SciTegic.value.IntegerValue
0

@<SCITEGIC>MOL_PROPERTY
Delta U+W
SciTegic.value.DoubleValue
0.000

@<SCITEGIC>MOL_PROPERTY
U+W
SciTegic.value.DoubleValue
-58.332

@<SCITEGIC>MOL_PROPERTY
Grad RMS
SciTegic.value.DoubleValue
0.000000

@<SCITEGIC>MOL_PROPERTY
U
SciTegic.value.DoubleValue
8.390

@<SCITEGIC>MOL_PROPERTY
W
SciTegic.value.DoubleValue
-66.722

@<SCITEGIC>MOL_PROPERTY
W(PB)
SciTegic.value.DoubleValue
-68.455

@<SCITEGIC>MOL_PROPERTY
W(SA)
SciTegic.value.DoubleValue
1.733

@<SCITEGIC>MOL_PROPERTY
Valence
SciTegic.value.DoubleValue
6.333

@<SCITEGIC>MOL_PROPERTY
Coulomb
SciTegic.value.DoubleValue
1.215

@<SCITEGIC>MOL_PROPERTY
VdW
SciTegic.value.DoubleValue
0.842

@<SCITEGIC>MOL_PROPERTY
VdW6
SciTegic.value.DoubleValue
-3.344

@<SCITEGIC>MOL_PROPERTY
VdW12
SciTegic.value.DoubleValue
4.186

@<SCITEGIC>MOL_PROPERTY
Bond
SciTegic.value.DoubleValue
0.091

@<SCITEGIC>MOL_PROPERTY
Angle
SciTegic.value.DoubleValue
2.713

@<SCITEGIC>MOL_PROPERTY
Pdih
SciTegic.value.DoubleValue
3.529

@<SCITEGIC>MOL_PROPERTY
Idih
SciTegic.value.DoubleValue
0.000

@<SCITEGIC>MOL_PROPERTY
Tether
SciTegic.value.DoubleValue
0.000

@<TRIPOS>MOLECULE
guest-6_confgen4.mol2 : confsearch ligand conformer 770
          13          12           1
SMALL
USER_CHARGES
 
@<TRIPOS>ATOM
       1    C1      20.740536   20.335759   23.320599 C.2        1 MOL1         0.6021
       2    O1      21.192675   19.802678   24.313956 O.co2      1 MOL1        -0.6904
       3    O2      20.311266   21.471915   23.305209 O.co2      1 MOL1        -0.6904
       4    C2      20.691876   19.528700   22.027623 C.3        1 MOL1        -0.2102
       5    H1      21.549553   18.845076   22.019408 H          1 MOL1         0.0687
       6    H2      20.822712   20.221631   21.187536 H          1 MOL1         0.0687
       7    C3      19.374764   18.732812   21.861416 C.3        1 MOL1        -0.1974
       8    H3      19.249450   18.049596   22.713081 H          1 MOL1         0.0689
       9    H4      18.522497   19.426415   21.880924 H          1 MOL1         0.0689
      10    C4      19.356919   17.928423   20.546147 C.3        1 MOL1        -0.2987
      11    H5      18.416182   17.371376   20.446270 H          1 MOL1         0.0700
      12    H6      19.450871   18.593577   19.677644 H          1 MOL1         0.0700
      13    H7      20.183372   17.206180   20.516211 H          1 MOL1         0.0700
@<TRIPOS>BOND
    1     1     2    1
    2     1     3    2
    3     1     4    1
    4     4     5    1
    5     4     6    1
    6     4     7    1
    7     7     8    1
    8     7     9    1
    9     7    10    1
   10    10    11    1
   11    10    12    1
   12    10    13    1
@<TRIPOS>SUBSTRUCTURE
       1 MOL1            1 RESIDUE      1      MOL     
@<SCITEGIC>MOL_PROPERTY
VConf Rank
SciTegic.value.IntegerValue
770

@<SCITEGIC>MOL_PROPERTY
Conf_Id
SciTegic.value.IntegerValue
1

@<SCITEGIC>MOL_PROPERTY
Delta U+W
SciTegic.value.DoubleValue
-1.339

@<SCITEGIC>MOL_PROPERTY
U+W
SciTegic.value.DoubleValue
-59.672

@<SCITEGIC>MOL_PROPERTY
Grad RMS
SciTegic.value.DoubleValue
0.000000

@<SCITEGIC>MOL_PROPERTY
U
SciTegic.value.DoubleValue
7.389

@<SCITEGIC>MOL_PROPERTY
W
SciTegic.value.DoubleValue
-67.061

@<SCITEGIC>MOL_PROPERTY
W(PB)
SciTegic.value.DoubleValue
-68.767

@<SCITEGIC>MOL_PROPERTY
W(SA)
SciTegic.value.DoubleValue
1.707

@<SCITEGIC>MOL_PROPERTY
Valence
SciTegic.value.DoubleValue
5.822

@<SCITEGIC>MOL_PROPERTY
Coulomb
SciTegic.value.DoubleValue
1.255

@<SCITEGIC>MOL_PROPERTY
VdW
SciTegic.value.DoubleValue
0.312

@<SCITEGIC>MOL_PROPERTY
VdW6
SciTegic.value.DoubleValue
-3.061

@<SCITEGIC>MOL_PROPERTY
VdW12
SciTegic.value.DoubleValue
3.372

@<SCITEGIC>MOL_PROPERTY
Bond
SciTegic.value.DoubleValue
0.059

@<SCITEGIC>MOL_PROPERTY
Angle
SciTegic.value.DoubleValue
2.241

@<SCITEGIC>MOL_PROPERTY
Pdih
SciTegic.value.DoubleValue
3.522

@<SCITEGIC>MOL_PROPERTY
Idih
SciTegic.value.DoubleValue
0.000

@<SCITEGIC>MOL_PROPERTY
Tether
SciTegic.value.DoubleValue
0.000

@<TRIPOS>MOLECULE
guest-6_confgen4.mol2 : confsearch ligand conformer 771
          13          12           1
SMALL
USER_CHARGES
 
@<TRIPOS>ATOM
       1    C1      20.758950   19.810470   20.548227 C.2        1 MOL1         0.6021
       2    O1      21.214556   20.921309   20.734127 O.co2      1 MOL1        -0.6904
       3    O2      21.256184   19.000926   19.791060 O.co2      1 MOL1        -0.6904
       4    C2      19.474131   19.427427   21.278464 C.3        1 MOL1        -0.2102
       5    H1      19.030580   18.558488   20.776972 H          1 MOL1         0.0687
       6    H2      18.768519   20.257822   21.156219 H          1 MOL1         0.0687
       7    C3      19.666158   19.132069   22.788175 C.3        1 MOL1        -0.1974
       8    H3      20.148640   19.992491   23.272745 H          1 MOL1         0.0689
       9    H4      18.681046   19.015497   23.260235 H          1 MOL1         0.0689
      10    C4      20.499131   17.858075   23.039221 C.3        1 MOL1        -0.2987
      11    H5      21.508409   17.957059   22.618047 H          1 MOL1         0.0700
      12    H6      20.599253   17.667213   24.115624 H          1 MOL1         0.0700
      13    H7      20.022628   16.981163   22.581660 H          1 MOL1         0.0700
@<TRIPOS>BOND
    1     1     2    1
    2     1     3    2
    3     1     4    1
    4     4     5    1
    5     4     6    1
    6     4     7    1
    7     7     8    1
    8     7     9    1
    9     7    10    1
   10    10    11    1
   11    10    12    1
   12    10    13    1
@<TRIPOS>SUBSTRUCTURE
       1 MOL1            1 RESIDUE      1      MOL     
@<SCITEGIC>MOL_PROPERTY
VConf Rank
SciTegic.value.IntegerValue
771

@<SCITEGIC>MOL_PROPERTY
Conf_Id
SciTegic.value.IntegerValue
4

@<SCITEGIC>MOL_PROPERTY
Delta U+W
SciTegic.value.DoubleValue
0.281

@<SCITEGIC>MOL_PROPERTY
U+W
SciTegic.value.DoubleValue
-58.051

@<SCITEGIC>MOL_PROPERTY
Grad RMS
SciTegic.value.DoubleValue
0.000000

@<SCITEGIC>MOL_PROPERTY
U
SciTegic.value.DoubleValue
9.781

@<SCITEGIC>MOL_PROPERTY
W
SciTegic.value.DoubleValue
-67.832

@<SCITEGIC>MOL_PROPERTY
W(PB)
SciTegic.value.DoubleValue
-69.535

@<SCITEGIC>MOL_PROPERTY
W(SA)
SciTegic.value.DoubleValue
1.703

@<SCITEGIC>MOL_PROPERTY
Valence
SciTegic.value.DoubleValue
6.123

@<SCITEGIC>MOL_PROPERTY
Coulomb
SciTegic.value.DoubleValue
3.449

@<SCITEGIC>MOL_PROPERTY
VdW
SciTegic.value.DoubleValue
0.209

@<SCITEGIC>MOL_PROPERTY
VdW6
SciTegic.value.DoubleValue
-3.762

@<SCITEGIC>MOL_PROPERTY
VdW12
SciTegic.value.DoubleValue
3.972

@<SCITEGIC>MOL_PROPERTY
Bond
SciTegic.value.DoubleValue
0.078

@<SCITEGIC>MOL_PROPERTY
Angle
SciTegic.value.DoubleValue
2.428

@<SCITEGIC>MOL_PROPERTY
Pdih
SciTegic.value.DoubleValue
3.616

@<SCITEGIC>MOL_PROPERTY
Idih
SciTegic.value.DoubleValue
0.002

@<SCITEGIC>MOL_PROPERTY
Tether
SciTegic.value.DoubleValue
0.000

@<TRIPOS>MOLECULE
guest-6_confgen4.mol2 : confsearch ligand conformer 772
          13          12           1
SMALL
USER_CHARGES
 
@<TRIPOS>ATOM
       1    C1      19.612076   20.223816   23.170835 C.2        1 MOL1         0.6021
       2    O1      19.616448   21.311905   22.630513 O.co2      1 MOL1        -0.6904
       3    O2      18.779442   19.885501   23.988368 O.co2      1 MOL1        -0.6904
       4    C2      20.730879   19.241429   22.833312 C.3        1 MOL1        -0.2102
       5    H1      21.124215   18.855487   23.781321 H          1 MOL1         0.0687
       6    H2      21.548492   19.791861   22.351834 H          1 MOL1         0.0687
       7    C3      20.286033   18.055887   21.938919 C.3        1 MOL1        -0.1974
       8    H3      21.105898   17.327675   21.872583 H          1 MOL1         0.0689
       9    H4      19.439956   17.536663   22.410599 H          1 MOL1         0.0689
      10    C4      19.894181   18.504500   20.515851 C.3        1 MOL1        -0.2987
      11    H5      20.733757   19.006714   20.017568 H          1 MOL1         0.0700
      12    H6      19.603819   17.640493   19.904068 H          1 MOL1         0.0700
      13    H7      19.045813   19.201245   20.541246 H          1 MOL1         0.0700
@<TRIPOS>BOND
    1     1     2    1
    2     1     3    2
    3     1     4    1
    4     4     5    1
    5     4     6    1
    6     4     7    1
    7     7     8    1
    8     7     9    1
    9     7    10    1
   10    10    11    1
   11    10    12    1
   12    10    13    1
@<TRIPOS>SUBSTRUCTURE
       1 MOL1            1 RESIDUE      1      MOL     
@<SCITEGIC>MOL_PROPERTY
VConf Rank
SciTegic.value.IntegerValue
772

@<SCITEGIC>MOL_PROPERTY
Conf_Id
SciTegic.value.IntegerValue
36

@<SCITEGIC>MOL_PROPERTY
Delta U+W
SciTegic.value.DoubleValue
0.272

@<SCITEGIC>MOL_PROPERTY
U+W
SciTegic.value.DoubleValue
-58.060

@<SCITEGIC>MOL_PROPERTY
Grad RMS
SciTegic.value.DoubleValue
0.000000

@<SCITEGIC>MOL_PROPERTY
U
SciTegic.value.DoubleValue
9.781

@<SCITEGIC>MOL_PROPERTY
W
SciTegic.value.DoubleValue
-67.841

@<SCITEGIC>MOL_PROPERTY
W(PB)
SciTegic.value.DoubleValue
-69.537

@<SCITEGIC>MOL_PROPERTY
W(SA)
SciTegic.value.DoubleValue
1.696

@<SCITEGIC>MOL_PROPERTY
Valence
SciTegic.value.DoubleValue
6.123

@<SCITEGIC>MOL_PROPERTY
Coulomb
SciTegic.value.DoubleValue
3.449

@<SCITEGIC>MOL_PROPERTY
VdW
SciTegic.value.DoubleValue
0.209

@<SCITEGIC>MOL_PROPERTY
VdW6
SciTegic.value.DoubleValue
-3.762

@<SCITEGIC>MOL_PROPERTY
VdW12
SciTegic.value.DoubleValue
3.972

@<SCITEGIC>MOL_PROPERTY
Bond
SciTegic.value.DoubleValue
0.078

@<SCITEGIC>MOL_PROPERTY
Angle
SciTegic.value.DoubleValue
2.428

@<SCITEGIC>MOL_PROPERTY
Pdih
SciTegic.value.DoubleValue
3.616

@<SCITEGIC>MOL_PROPERTY
Idih
SciTegic.value.DoubleValue
0.002

@<SCITEGIC>MOL_PROPERTY
Tether
SciTegic.value.DoubleValue
0.000

@<TRIPOS>MOLECULE
guest-6_confgen4.mol2 : confsearch ligand conformer 773
          13          12           1
SMALL
USER_CHARGES
 
@<TRIPOS>ATOM
       1    C1      20.421719   20.498121   23.285846 C.2        1 MOL1         0.6021
       2    O1      19.478731   20.324218   24.032746 O.co2      1 MOL1        -0.6904
       3    O2      21.270054   21.345593   23.477978 O.co2      1 MOL1        -0.6904
       4    C2      20.574790   19.626014   22.038176 C.3        1 MOL1        -0.2102
       5    H1      21.554077   19.136448   22.098665 H          1 MOL1         0.0687
       6    H2      20.605084   20.296703   21.171230 H          1 MOL1         0.0687
       7    C3      19.468519   18.558075   21.834143 C.3        1 MOL1        -0.1974
       8    H3      19.437879   17.888799   22.705283 H          1 MOL1         0.0689
       9    H4      18.487701   19.050477   21.776783 H          1 MOL1         0.0689
      10    C4      19.705526   17.729758   20.555255 C.3        1 MOL1        -0.2987
      11    H5      20.667269   17.202088   20.601485 H          1 MOL1         0.0700
      12    H6      18.913530   16.980234   20.427923 H          1 MOL1         0.0700
      13    H7      19.709512   18.373116   19.665537 H          1 MOL1         0.0700
@<TRIPOS>BOND
    1     1     2    1
    2     1     3    2
    3     1     4    1
    4     4     5    1
    5     4     6    1
    6     4     7    1
    7     7     8    1
    8     7     9    1
    9     7    10    1
   10    10    11    1
   11    10    12    1
   12    10    13    1
@<TRIPOS>SUBSTRUCTURE
       1 MOL1            1 RESIDUE      1      MOL     
@<SCITEGIC>MOL_PROPERTY
VConf Rank
SciTegic.value.IntegerValue
773

@<SCITEGIC>MOL_PROPERTY
Conf_Id
SciTegic.value.IntegerValue
0

@<SCITEGIC>MOL_PROPERTY
Delta U+W
SciTegic.value.DoubleValue
0.000

@<SCITEGIC>MOL_PROPERTY
U+W
SciTegic.value.DoubleValue
-58.332

@<SCITEGIC>MOL_PROPERTY
Grad RMS
SciTegic.value.DoubleValue
0.000000

@<SCITEGIC>MOL_PROPERTY
U
SciTegic.value.DoubleValue
8.390

@<SCITEGIC>MOL_PROPERTY
W
SciTegic.value.DoubleValue
-66.722

@<SCITEGIC>MOL_PROPERTY
W(PB)
SciTegic.value.DoubleValue
-68.455

@<SCITEGIC>MOL_PROPERTY
W(SA)
SciTegic.value.DoubleValue
1.733

@<SCITEGIC>MOL_PROPERTY
Valence
SciTegic.value.DoubleValue
6.333

@<SCITEGIC>MOL_PROPERTY
Coulomb
SciTegic.value.DoubleValue
1.215

@<SCITEGIC>MOL_PROPERTY
VdW
SciTegic.value.DoubleValue
0.842

@<SCITEGIC>MOL_PROPERTY
VdW6
SciTegic.value.DoubleValue
-3.344

@<SCITEGIC>MOL_PROPERTY
VdW12
SciTegic.value.DoubleValue
4.186

@<SCITEGIC>MOL_PROPERTY
Bond
SciTegic.value.DoubleValue
0.091

@<SCITEGIC>MOL_PROPERTY
Angle
SciTegic.value.DoubleValue
2.713

@<SCITEGIC>MOL_PROPERTY
Pdih
SciTegic.value.DoubleValue
3.529

@<SCITEGIC>MOL_PROPERTY
Idih
SciTegic.value.DoubleValue
0.000

@<SCITEGIC>MOL_PROPERTY
Tether
SciTegic.value.DoubleValue
0.000

@<TRIPOS>MOLECULE
guest-6_confgen4.mol2 : confsearch ligand conformer 774
          13          12           1
SMALL
USER_CHARGES
 
@<TRIPOS>ATOM
       1    C1      19.838684   19.518193   23.883442 C.2        1 MOL1         0.6021
       2    O1      20.498229   20.466004   24.260294 O.co2      1 MOL1        -0.6904
       3    O2      19.475275   18.619943   24.615864 O.co2      1 MOL1        -0.6904
       4    C2      19.462632   19.442297   22.407527 C.3        1 MOL1        -0.2102
       5    H1      19.332624   20.465796   22.035281 H          1 MOL1         0.0687
       6    H2      18.489022   18.943440   22.328511 H          1 MOL1         0.0687
       7    C3      20.515059   18.694612   21.553588 C.3        1 MOL1        -0.1974
       8    H3      21.487869   19.197105   21.648258 H          1 MOL1         0.0689
       9    H4      20.644010   17.674441   21.941460 H          1 MOL1         0.0689
      10    C4      20.106011   18.635288   20.068175 C.3        1 MOL1        -0.2987
      11    H5      20.863757   18.101954   19.479416 H          1 MOL1         0.0700
      12    H6      19.149563   18.110362   19.944828 H          1 MOL1         0.0700
      13    H7      19.999938   19.644701   19.649380 H          1 MOL1         0.0700
@<TRIPOS>BOND
    1     1     2    1
    2     1     3    2
    3     1     4    1
    4     4     5    1
    5     4     6    1
    6     4     7    1
    7     7     8    1
    8     7     9    1
    9     7    10    1
   10    10    11    1
   11    10    12    1
   12    10    13    1
@<TRIPOS>SUBSTRUCTURE
       1 MOL1            1 RESIDUE      1      MOL     
@<SCITEGIC>MOL_PROPERTY
VConf Rank
SciTegic.value.IntegerValue
774

@<SCITEGIC>MOL_PROPERTY
Conf_Id
SciTegic.value.IntegerValue
1

@<SCITEGIC>MOL_PROPERTY
Delta U+W
SciTegic.value.DoubleValue
-1.339

@<SCITEGIC>MOL_PROPERTY
U+W
SciTegic.value.DoubleValue
-59.672

@<SCITEGIC>MOL_PROPERTY
Grad RMS
SciTegic.value.DoubleValue
0.000000

@<SCITEGIC>MOL_PROPERTY
U
SciTegic.value.DoubleValue
7.389

@<SCITEGIC>MOL_PROPERTY
W
SciTegic.value.DoubleValue
-67.061

@<SCITEGIC>MOL_PROPERTY
W(PB)
SciTegic.value.DoubleValue
-68.767

@<SCITEGIC>MOL_PROPERTY
W(SA)
SciTegic.value.DoubleValue
1.707

@<SCITEGIC>MOL_PROPERTY
Valence
SciTegic.value.DoubleValue
5.822

@<SCITEGIC>MOL_PROPERTY
Coulomb
SciTegic.value.DoubleValue
1.255

@<SCITEGIC>MOL_PROPERTY
VdW
SciTegic.value.DoubleValue
0.312

@<SCITEGIC>MOL_PROPERTY
VdW6
SciTegic.value.DoubleValue
-3.061

@<SCITEGIC>MOL_PROPERTY
VdW12
SciTegic.value.DoubleValue
3.372

@<SCITEGIC>MOL_PROPERTY
Bond
SciTegic.value.DoubleValue
0.059

@<SCITEGIC>MOL_PROPERTY
Angle
SciTegic.value.DoubleValue
2.241

@<SCITEGIC>MOL_PROPERTY
Pdih
SciTegic.value.DoubleValue
3.522

@<SCITEGIC>MOL_PROPERTY
Idih
SciTegic.value.DoubleValue
0.000

@<SCITEGIC>MOL_PROPERTY
Tether
SciTegic.value.DoubleValue
0.000

@<TRIPOS>MOLECULE
guest-6_confgen4.mol2 : confsearch ligand conformer 775
          13          12           1
SMALL
USER_CHARGES
 
@<TRIPOS>ATOM
       1    C1      20.044856   19.074066   20.210094 C.2        1 MOL1         0.6021
       2    O1      19.179080   18.410763   19.674782 O.co2      1 MOL1        -0.6904
       3    O2      20.343825   20.196776   19.855068 O.co2      1 MOL1        -0.6904
       4    C2      20.820582   18.447796   21.366279 C.3        1 MOL1        -0.2102
       5    H1      21.744912   19.018338   21.519197 H          1 MOL1         0.0687
       6    H2      21.118662   17.440326   21.052370 H          1 MOL1         0.0687
       7    C3      20.022121   18.359553   22.692179 C.3        1 MOL1        -0.1974
       8    H3      19.079234   17.822205   22.518562 H          1 MOL1         0.0689
       9    H4      20.594508   17.766108   23.418175 H          1 MOL1         0.0689
      10    C4      19.726962   19.747675   23.297098 C.3        1 MOL1        -0.2987
      11    H5      19.116771   20.353995   22.614552 H          1 MOL1         0.0700
      12    H6      19.178869   19.648805   24.243098 H          1 MOL1         0.0700
      13    H7      20.657801   20.293603   23.499323 H          1 MOL1         0.0700
@<TRIPOS>BOND
    1     1     2    1
    2     1     3    2
    3     1     4    1
    4     4     5    1
    5     4     6    1
    6     4     7    1
    7     7     8    1
    8     7     9    1
    9     7    10    1
   10    10    11    1
   11    10    12    1
   12    10    13    1
@<TRIPOS>SUBSTRUCTURE
       1 MOL1            1 RESIDUE      1      MOL     
@<SCITEGIC>MOL_PROPERTY
VConf Rank
SciTegic.value.IntegerValue
775

@<SCITEGIC>MOL_PROPERTY
Conf_Id
SciTegic.value.IntegerValue
4

@<SCITEGIC>MOL_PROPERTY
Delta U+W
SciTegic.value.DoubleValue
0.281

@<SCITEGIC>MOL_PROPERTY
U+W
SciTegic.value.DoubleValue
-58.051

@<SCITEGIC>MOL_PROPERTY
Grad RMS
SciTegic.value.DoubleValue
0.000000

@<SCITEGIC>MOL_PROPERTY
U
SciTegic.value.DoubleValue
9.781

@<SCITEGIC>MOL_PROPERTY
W
SciTegic.value.DoubleValue
-67.832

@<SCITEGIC>MOL_PROPERTY
W(PB)
SciTegic.value.DoubleValue
-69.535

@<SCITEGIC>MOL_PROPERTY
W(SA)
SciTegic.value.DoubleValue
1.703

@<SCITEGIC>MOL_PROPERTY
Valence
SciTegic.value.DoubleValue
6.123

@<SCITEGIC>MOL_PROPERTY
Coulomb
SciTegic.value.DoubleValue
3.449

@<SCITEGIC>MOL_PROPERTY
VdW
SciTegic.value.DoubleValue
0.209

@<SCITEGIC>MOL_PROPERTY
VdW6
SciTegic.value.DoubleValue
-3.762

@<SCITEGIC>MOL_PROPERTY
VdW12
SciTegic.value.DoubleValue
3.972

@<SCITEGIC>MOL_PROPERTY
Bond
SciTegic.value.DoubleValue
0.078

@<SCITEGIC>MOL_PROPERTY
Angle
SciTegic.value.DoubleValue
2.428

@<SCITEGIC>MOL_PROPERTY
Pdih
SciTegic.value.DoubleValue
3.616

@<SCITEGIC>MOL_PROPERTY
Idih
SciTegic.value.DoubleValue
0.002

@<SCITEGIC>MOL_PROPERTY
Tether
SciTegic.value.DoubleValue
0.000

@<TRIPOS>MOLECULE
guest-6_confgen4.mol2 : confsearch ligand conformer 776
          13          12           1
SMALL
USER_CHARGES
 
@<TRIPOS>ATOM
       1    C1      21.268863   18.333330   23.213771 C.2        1 MOL1         0.6021
       2    O1      21.896605   17.408771   22.737287 O.co2      1 MOL1        -0.6904
       3    O2      21.753337   19.153477   23.967920 O.co2      1 MOL1        -0.6904
       4    C2      19.784520   18.452541   22.877261 C.3        1 MOL1        -0.2102
       5    H1      19.246886   18.607906   23.820234 H          1 MOL1         0.0687
       6    H2      19.438575   17.494744   22.469542 H          1 MOL1         0.0687
       7    C3      19.446839   19.603857   21.895538 C.3        1 MOL1        -0.1974
       8    H3      18.355590   19.711626   21.828948 H          1 MOL1         0.0689
       9    H4      19.834039   20.552199   22.293839 H          1 MOL1         0.0689
      10    C4      20.016341   19.360977   20.482526 C.3        1 MOL1        -0.2987
      11    H5      19.624290   18.428183   20.056402 H          1 MOL1         0.0700
      12    H6      19.743073   20.183382   19.808678 H          1 MOL1         0.0700
      13    H7      21.112053   19.292181   20.505070 H          1 MOL1         0.0700
@<TRIPOS>BOND
    1     1     2    1
    2     1     3    2
    3     1     4    1
    4     4     5    1
    5     4     6    1
    6     4     7    1
    7     7     8    1
    8     7     9    1
    9     7    10    1
   10    10    11    1
   11    10    12    1
   12    10    13    1
@<TRIPOS>SUBSTRUCTURE
       1 MOL1            1 RESIDUE      1      MOL     
@<SCITEGIC>MOL_PROPERTY
VConf Rank
SciTegic.value.IntegerValue
776

@<SCITEGIC>MOL_PROPERTY
Conf_Id
SciTegic.value.IntegerValue
36

@<SCITEGIC>MOL_PROPERTY
Delta U+W
SciTegic.value.DoubleValue
0.272

@<SCITEGIC>MOL_PROPERTY
U+W
SciTegic.value.DoubleValue
-58.060

@<SCITEGIC>MOL_PROPERTY
Grad RMS
SciTegic.value.DoubleValue
0.000000

@<SCITEGIC>MOL_PROPERTY
U
SciTegic.value.DoubleValue
9.781

@<SCITEGIC>MOL_PROPERTY
W
SciTegic.value.DoubleValue
-67.841

@<SCITEGIC>MOL_PROPERTY
W(PB)
SciTegic.value.DoubleValue
-69.537

@<SCITEGIC>MOL_PROPERTY
W(SA)
SciTegic.value.DoubleValue
1.696

@<SCITEGIC>MOL_PROPERTY
Valence
SciTegic.value.DoubleValue
6.123

@<SCITEGIC>MOL_PROPERTY
Coulomb
SciTegic.value.DoubleValue
3.449

@<SCITEGIC>MOL_PROPERTY
VdW
SciTegic.value.DoubleValue
0.209

@<SCITEGIC>MOL_PROPERTY
VdW6
SciTegic.value.DoubleValue
-3.762

@<SCITEGIC>MOL_PROPERTY
VdW12
SciTegic.value.DoubleValue
3.972

@<SCITEGIC>MOL_PROPERTY
Bond
SciTegic.value.DoubleValue
0.078

@<SCITEGIC>MOL_PROPERTY
Angle
SciTegic.value.DoubleValue
2.428

@<SCITEGIC>MOL_PROPERTY
Pdih
SciTegic.value.DoubleValue
3.616

@<SCITEGIC>MOL_PROPERTY
Idih
SciTegic.value.DoubleValue
0.002

@<SCITEGIC>MOL_PROPERTY
Tether
SciTegic.value.DoubleValue
0.000

@<TRIPOS>MOLECULE
guest-6_confgen4.mol2 : confsearch ligand conformer 777
          13          12           1
SMALL
USER_CHARGES
 
@<TRIPOS>ATOM
       1    C1      19.511847   19.102915   19.752938 C.2        1 MOL1         0.6021
       2    O1      20.621711   19.100397   19.257433 O.co2      1 MOL1        -0.6904
       3    O2      18.493320   19.154441   19.093586 O.co2      1 MOL1        -0.6904
       4    C2      19.357633   19.039464   21.273751 C.3        1 MOL1        -0.2102
       5    H1      18.744047   18.160495   21.504541 H          1 MOL1         0.0687
       6    H2      18.782972   19.921009   21.581942 H          1 MOL1         0.0687
       7    C3      20.684759   18.974928   22.074081 C.3        1 MOL1        -0.1974
       8    H3      21.260426   18.092454   21.761666 H          1 MOL1         0.0689
       9    H4      21.299441   19.855103   21.839105 H          1 MOL1         0.0689
      10    C4      20.430891   18.913786   23.593833 C.3        1 MOL1        -0.2987
      11    H5      19.843760   18.024592   23.858662 H          1 MOL1         0.0700
      12    H6      21.380548   18.868682   24.142810 H          1 MOL1         0.0700
      13    H7      19.883038   19.801378   23.936703 H          1 MOL1         0.0700
@<TRIPOS>BOND
    1     1     2    1
    2     1     3    2
    3     1     4    1
    4     4     5    1
    5     4     6    1
    6     4     7    1
    7     7     8    1
    8     7     9    1
    9     7    10    1
   10    10    11    1
   11    10    12    1
   12    10    13    1
@<TRIPOS>SUBSTRUCTURE
       1 MOL1            1 RESIDUE      1      MOL     
@<SCITEGIC>MOL_PROPERTY
VConf Rank
SciTegic.value.IntegerValue
777

@<SCITEGIC>MOL_PROPERTY
Conf_Id
SciTegic.value.IntegerValue
0

@<SCITEGIC>MOL_PROPERTY
Delta U+W
SciTegic.value.DoubleValue
0.000

@<SCITEGIC>MOL_PROPERTY
U+W
SciTegic.value.DoubleValue
-58.332

@<SCITEGIC>MOL_PROPERTY
Grad RMS
SciTegic.value.DoubleValue
0.000000

@<SCITEGIC>MOL_PROPERTY
U
SciTegic.value.DoubleValue
8.390

@<SCITEGIC>MOL_PROPERTY
W
SciTegic.value.DoubleValue
-66.722

@<SCITEGIC>MOL_PROPERTY
W(PB)
SciTegic.value.DoubleValue
-68.455

@<SCITEGIC>MOL_PROPERTY
W(SA)
SciTegic.value.DoubleValue
1.733

@<SCITEGIC>MOL_PROPERTY
Valence
SciTegic.value.DoubleValue
6.333

@<SCITEGIC>MOL_PROPERTY
Coulomb
SciTegic.value.DoubleValue
1.215

@<SCITEGIC>MOL_PROPERTY
VdW
SciTegic.value.DoubleValue
0.842

@<SCITEGIC>MOL_PROPERTY
VdW6
SciTegic.value.DoubleValue
-3.344

@<SCITEGIC>MOL_PROPERTY
VdW12
SciTegic.value.DoubleValue
4.186

@<SCITEGIC>MOL_PROPERTY
Bond
SciTegic.value.DoubleValue
0.091

@<SCITEGIC>MOL_PROPERTY
Angle
SciTegic.value.DoubleValue
2.713

@<SCITEGIC>MOL_PROPERTY
Pdih
SciTegic.value.DoubleValue
3.529

@<SCITEGIC>MOL_PROPERTY
Idih
SciTegic.value.DoubleValue
0.000

@<SCITEGIC>MOL_PROPERTY
Tether
SciTegic.value.DoubleValue
0.000

@<TRIPOS>MOLECULE
guest-6_confgen4.mol2 : confsearch ligand conformer 778
          13          12           1
SMALL
USER_CHARGES
 
@<TRIPOS>ATOM
       1    C1      21.348319   17.435462   21.630565 C.2        1 MOL1         0.6021
       2    O1      20.985275   16.513324   20.928267 O.co2      1 MOL1        -0.6904
       3    O2      22.174298   17.321458   22.513810 O.co2      1 MOL1        -0.6904
       4    C2      20.719440   18.806045   21.403600 C.3        1 MOL1        -0.2102
       5    H1      20.488857   18.903251   20.335704 H          1 MOL1         0.0687
       6    H2      21.469409   19.569687   21.643220 H          1 MOL1         0.0687
       7    C3      19.441380   19.031520   22.247147 C.3        1 MOL1        -0.1974
       8    H3      18.701513   18.255436   22.006087 H          1 MOL1         0.0689
       9    H4      19.682275   18.922124   23.313836 H          1 MOL1         0.0689
      10    C4      18.830454   20.424557   21.995138 C.3        1 MOL1        -0.2987
      11    H5      17.926148   20.565660   22.601424 H          1 MOL1         0.0700
      12    H6      19.541811   21.218721   22.257495 H          1 MOL1         0.0700
      13    H7      18.553496   20.546892   20.939731 H          1 MOL1         0.0700
@<TRIPOS>BOND
    1     1     2    1
    2     1     3    2
    3     1     4    1
    4     4     5    1
    5     4     6    1
    6     4     7    1
    7     7     8    1
    8     7     9    1
    9     7    10    1
   10    10    11    1
   11    10    12    1
   12    10    13    1
@<TRIPOS>SUBSTRUCTURE
       1 MOL1            1 RESIDUE      1      MOL     
@<SCITEGIC>MOL_PROPERTY
VConf Rank
SciTegic.value.IntegerValue
778

@<SCITEGIC>MOL_PROPERTY
Conf_Id
SciTegic.value.IntegerValue
1

@<SCITEGIC>MOL_PROPERTY
Delta U+W
SciTegic.value.DoubleValue
-1.339

@<SCITEGIC>MOL_PROPERTY
U+W
SciTegic.value.DoubleValue
-59.672

@<SCITEGIC>MOL_PROPERTY
Grad RMS
SciTegic.value.DoubleValue
0.000000

@<SCITEGIC>MOL_PROPERTY
U
SciTegic.value.DoubleValue
7.389

@<SCITEGIC>MOL_PROPERTY
W
SciTegic.value.DoubleValue
-67.061

@<SCITEGIC>MOL_PROPERTY
W(PB)
SciTegic.value.DoubleValue
-68.767

@<SCITEGIC>MOL_PROPERTY
W(SA)
SciTegic.value.DoubleValue
1.707

@<SCITEGIC>MOL_PROPERTY
Valence
SciTegic.value.DoubleValue
5.822

@<SCITEGIC>MOL_PROPERTY
Coulomb
SciTegic.value.DoubleValue
1.255

@<SCITEGIC>MOL_PROPERTY
VdW
SciTegic.value.DoubleValue
0.312

@<SCITEGIC>MOL_PROPERTY
VdW6
SciTegic.value.DoubleValue
-3.061

@<SCITEGIC>MOL_PROPERTY
VdW12
SciTegic.value.DoubleValue
3.372

@<SCITEGIC>MOL_PROPERTY
Bond
SciTegic.value.DoubleValue
0.059

@<SCITEGIC>MOL_PROPERTY
Angle
SciTegic.value.DoubleValue
2.241

@<SCITEGIC>MOL_PROPERTY
Pdih
SciTegic.value.DoubleValue
3.522

@<SCITEGIC>MOL_PROPERTY
Idih
SciTegic.value.DoubleValue
0.000

@<SCITEGIC>MOL_PROPERTY
Tether
SciTegic.value.DoubleValue
0.000

@<TRIPOS>MOLECULE
guest-6_confgen4.mol2 : confsearch ligand conformer 779
          13          12           1
SMALL
USER_CHARGES
 
@<TRIPOS>ATOM
       1    C1      19.336702   17.776122   23.078234 C.2        1 MOL1         0.6021
       2    O1      18.492762   17.067916   22.566073 O.co2      1 MOL1        -0.6904
       3    O2      20.139540   17.375680   23.897380 O.co2      1 MOL1        -0.6904
       4    C2      19.364379   19.254262   22.697365 C.3        1 MOL1        -0.2102
       5    H1      19.939314   19.801547   23.454475 H          1 MOL1         0.0687
       6    H2      18.334099   19.625549   22.752657 H          1 MOL1         0.0687
       7    C3      19.938463   19.535037   21.284944 C.3        1 MOL1        -0.1974
       8    H3      19.382140   18.950280   20.538964 H          1 MOL1         0.0689
       9    H4      19.781951   20.593708   21.036761 H          1 MOL1         0.0689
      10    C4      21.443390   19.211038   21.184223 C.3        1 MOL1        -0.2987
      11    H5      21.632393   18.147810   21.383352 H          1 MOL1         0.0700
      12    H6      21.821814   19.439223   20.179324 H          1 MOL1         0.0700
      13    H7      22.021237   19.801838   21.907023 H          1 MOL1         0.0700
@<TRIPOS>BOND
    1     1     2    1
    2     1     3    2
    3     1     4    1
    4     4     5    1
    5     4     6    1
    6     4     7    1
    7     7     8    1
    8     7     9    1
    9     7    10    1
   10    10    11    1
   11    10    12    1
   12    10    13    1
@<TRIPOS>SUBSTRUCTURE
       1 MOL1            1 RESIDUE      1      MOL     
@<SCITEGIC>MOL_PROPERTY
VConf Rank
SciTegic.value.IntegerValue
779

@<SCITEGIC>MOL_PROPERTY
Conf_Id
SciTegic.value.IntegerValue
4

@<SCITEGIC>MOL_PROPERTY
Delta U+W
SciTegic.value.DoubleValue
0.281

@<SCITEGIC>MOL_PROPERTY
U+W
SciTegic.value.DoubleValue
-58.051

@<SCITEGIC>MOL_PROPERTY
Grad RMS
SciTegic.value.DoubleValue
0.000000

@<SCITEGIC>MOL_PROPERTY
U
SciTegic.value.DoubleValue
9.781

@<SCITEGIC>MOL_PROPERTY
W
SciTegic.value.DoubleValue
-67.832

@<SCITEGIC>MOL_PROPERTY
W(PB)
SciTegic.value.DoubleValue
-69.535

@<SCITEGIC>MOL_PROPERTY
W(SA)
SciTegic.value.DoubleValue
1.703

@<SCITEGIC>MOL_PROPERTY
Valence
SciTegic.value.DoubleValue
6.123

@<SCITEGIC>MOL_PROPERTY
Coulomb
SciTegic.value.DoubleValue
3.449

@<SCITEGIC>MOL_PROPERTY
VdW
SciTegic.value.DoubleValue
0.209

@<SCITEGIC>MOL_PROPERTY
VdW6
SciTegic.value.DoubleValue
-3.762

@<SCITEGIC>MOL_PROPERTY
VdW12
SciTegic.value.DoubleValue
3.972

@<SCITEGIC>MOL_PROPERTY
Bond
SciTegic.value.DoubleValue
0.078

@<SCITEGIC>MOL_PROPERTY
Angle
SciTegic.value.DoubleValue
2.428

@<SCITEGIC>MOL_PROPERTY
Pdih
SciTegic.value.DoubleValue
3.616

@<SCITEGIC>MOL_PROPERTY
Idih
SciTegic.value.DoubleValue
0.002

@<SCITEGIC>MOL_PROPERTY
Tether
SciTegic.value.DoubleValue
0.000

@<TRIPOS>MOLECULE
guest-6_confgen4.mol2 : confsearch ligand conformer 780
          13          12           1
SMALL
USER_CHARGES
 
@<TRIPOS>ATOM
       1    C1      18.677980   17.998506   21.549240 C.2        1 MOL1         0.6021
       2    O1      18.503222   17.124155   22.374392 O.co2      1 MOL1        -0.6904
       3    O2      17.771454   18.605415   21.014479 O.co2      1 MOL1        -0.6904
       4    C2      20.109496   18.329235   21.134383 C.3        1 MOL1        -0.2102
       5    H1      20.134901   18.354029   20.038424 H          1 MOL1         0.0687
       6    H2      20.764997   17.507447   21.447864 H          1 MOL1         0.0687
       7    C3      20.637061   19.675741   21.692893 C.3        1 MOL1        -0.1974
       8    H3      21.605557   19.903808   21.227197 H          1 MOL1         0.0689
       9    H4      19.951206   20.485947   21.408128 H          1 MOL1         0.0689
      10    C4      20.808101   19.652575   23.225908 C.3        1 MOL1        -0.2987
      11    H5      21.507806   18.863380   23.530825 H          1 MOL1         0.0700
      12    H6      21.200916   20.612376   23.585872 H          1 MOL1         0.0700
      13    H7      19.848313   19.470561   23.727410 H          1 MOL1         0.0700
@<TRIPOS>BOND
    1     1     2    1
    2     1     3    2
    3     1     4    1
    4     4     5    1
    5     4     6    1
    6     4     7    1
    7     7     8    1
    8     7     9    1
    9     7    10    1
   10    10    11    1
   11    10    12    1
   12    10    13    1
@<TRIPOS>SUBSTRUCTURE
       1 MOL1            1 RESIDUE      1      MOL     
@<SCITEGIC>MOL_PROPERTY
VConf Rank
SciTegic.value.IntegerValue
780

@<SCITEGIC>MOL_PROPERTY
Conf_Id
SciTegic.value.IntegerValue
36

@<SCITEGIC>MOL_PROPERTY
Delta U+W
SciTegic.value.DoubleValue
0.272

@<SCITEGIC>MOL_PROPERTY
U+W
SciTegic.value.DoubleValue
-58.060

@<SCITEGIC>MOL_PROPERTY
Grad RMS
SciTegic.value.DoubleValue
0.000000

@<SCITEGIC>MOL_PROPERTY
U
SciTegic.value.DoubleValue
9.781

@<SCITEGIC>MOL_PROPERTY
W
SciTegic.value.DoubleValue
-67.841

@<SCITEGIC>MOL_PROPERTY
W(PB)
SciTegic.value.DoubleValue
-69.537

@<SCITEGIC>MOL_PROPERTY
W(SA)
SciTegic.value.DoubleValue
1.696

@<SCITEGIC>MOL_PROPERTY
Valence
SciTegic.value.DoubleValue
6.123

@<SCITEGIC>MOL_PROPERTY
Coulomb
SciTegic.value.DoubleValue
3.449

@<SCITEGIC>MOL_PROPERTY
VdW
SciTegic.value.DoubleValue
0.209

@<SCITEGIC>MOL_PROPERTY
VdW6
SciTegic.value.DoubleValue
-3.762

@<SCITEGIC>MOL_PROPERTY
VdW12
SciTegic.value.DoubleValue
3.972

@<SCITEGIC>MOL_PROPERTY
Bond
SciTegic.value.DoubleValue
0.078

@<SCITEGIC>MOL_PROPERTY
Angle
SciTegic.value.DoubleValue
2.428

@<SCITEGIC>MOL_PROPERTY
Pdih
SciTegic.value.DoubleValue
3.616

@<SCITEGIC>MOL_PROPERTY
Idih
SciTegic.value.DoubleValue
0.002

@<SCITEGIC>MOL_PROPERTY
Tether
SciTegic.value.DoubleValue
0.000

@<TRIPOS>MOLECULE
guest-6_confgen4.mol2 : confsearch ligand conformer 781
          13          12           1
SMALL
USER_CHARGES
 
@<TRIPOS>ATOM
       1    C1      20.547295   17.425908   20.482098 C.2        1 MOL1         0.6021
       2    O1      19.947358   16.500787   20.993522 O.co2      1 MOL1        -0.6904
       3    O2      21.218621   17.304086   19.477470 O.co2      1 MOL1        -0.6904
       4    C2      20.473546   18.819616   21.108852 C.3        1 MOL1        -0.2102
       5    H1      20.088387   19.503371   20.343040 H          1 MOL1         0.0687
       6    H2      21.500300   19.133648   21.331331 H          1 MOL1         0.0687
       7    C3      19.605194   18.927112   22.389620 C.3        1 MOL1        -0.1974
       8    H3      18.577411   18.609212   22.165219 H          1 MOL1         0.0689
       9    H4      19.991016   18.238973   23.154709 H          1 MOL1         0.0689
      10    C4      19.590309   20.364175   22.948605 C.3        1 MOL1        -0.2987
      11    H5      19.179223   21.067769   22.212747 H          1 MOL1         0.0700
      12    H6      18.971534   20.420421   23.853707 H          1 MOL1         0.0700
      13    H7      20.604197   20.694566   23.210129 H          1 MOL1         0.0700
@<TRIPOS>BOND
    1     1     2    1
    2     1     3    2
    3     1     4    1
    4     4     5    1
    5     4     6    1
    6     4     7    1
    7     7     8    1
    8     7     9    1
    9     7    10    1
   10    10    11    1
   11    10    12    1
   12    10    13    1
@<TRIPOS>SUBSTRUCTURE
       1 MOL1            1 RESIDUE      1      MOL     
@<SCITEGIC>MOL_PROPERTY
VConf Rank
SciTegic.value.IntegerValue
781

@<SCITEGIC>MOL_PROPERTY
Conf_Id
SciTegic.value.IntegerValue
0

@<SCITEGIC>MOL_PROPERTY
Delta U+W
SciTegic.value.DoubleValue
0.000

@<SCITEGIC>MOL_PROPERTY
U+W
SciTegic.value.DoubleValue
-58.332

@<SCITEGIC>MOL_PROPERTY
Grad RMS
SciTegic.value.DoubleValue
0.000000

@<SCITEGIC>MOL_PROPERTY
U
SciTegic.value.DoubleValue
8.390

@<SCITEGIC>MOL_PROPERTY
W
SciTegic.value.DoubleValue
-66.722

@<SCITEGIC>MOL_PROPERTY
W(PB)
SciTegic.value.DoubleValue
-68.455

@<SCITEGIC>MOL_PROPERTY
W(SA)
SciTegic.value.DoubleValue
1.733

@<SCITEGIC>MOL_PROPERTY
Valence
SciTegic.value.DoubleValue
6.333

@<SCITEGIC>MOL_PROPERTY
Coulomb
SciTegic.value.DoubleValue
1.215

@<SCITEGIC>MOL_PROPERTY
VdW
SciTegic.value.DoubleValue
0.842

@<SCITEGIC>MOL_PROPERTY
VdW6
SciTegic.value.DoubleValue
-3.344

@<SCITEGIC>MOL_PROPERTY
VdW12
SciTegic.value.DoubleValue
4.186

@<SCITEGIC>MOL_PROPERTY
Bond
SciTegic.value.DoubleValue
0.091

@<SCITEGIC>MOL_PROPERTY
Angle
SciTegic.value.DoubleValue
2.713

@<SCITEGIC>MOL_PROPERTY
Pdih
SciTegic.value.DoubleValue
3.529

@<SCITEGIC>MOL_PROPERTY
Idih
SciTegic.value.DoubleValue
0.000

@<SCITEGIC>MOL_PROPERTY
Tether
SciTegic.value.DoubleValue
0.000

@<TRIPOS>MOLECULE
guest-6_confgen4.mol2 : confsearch ligand conformer 782
          13          12           1
SMALL
USER_CHARGES
 
@<TRIPOS>ATOM
       1    C1      18.099219   19.635379   22.561590 C.2        1 MOL1         0.6021
       2    O1      17.388390   20.231973   21.777907 O.co2      1 MOL1        -0.6904
       3    O2      18.000146   19.735918   23.768005 O.co2      1 MOL1        -0.6904
       4    C2      19.186909   18.725663   22.000478 C.3        1 MOL1        -0.2102
       5    H1      18.823196   18.300348   21.057166 H          1 MOL1         0.0687
       6    H2      19.327670   17.891259   22.698314 H          1 MOL1         0.0687
       7    C3      20.529847   19.460244   21.770788 C.3        1 MOL1        -0.1974
       8    H3      20.374752   20.299515   21.078407 H          1 MOL1         0.0689
       9    H4      20.879375   19.890231   22.719875 H          1 MOL1         0.0689
      10    C4      21.607285   18.514298   21.203688 C.3        1 MOL1        -0.2987
      11    H5      22.551263   19.052675   21.047748 H          1 MOL1         0.0700
      12    H6      21.801553   17.682085   21.893062 H          1 MOL1         0.0700
      13    H7      21.293069   18.094549   20.238994 H          1 MOL1         0.0700
@<TRIPOS>BOND
    1     1     2    1
    2     1     3    2
    3     1     4    1
    4     4     5    1
    5     4     6    1
    6     4     7    1
    7     7     8    1
    8     7     9    1
    9     7    10    1
   10    10    11    1
   11    10    12    1
   12    10    13    1
@<TRIPOS>SUBSTRUCTURE
       1 MOL1            1 RESIDUE      1      MOL     
@<SCITEGIC>MOL_PROPERTY
VConf Rank
SciTegic.value.IntegerValue
782

@<SCITEGIC>MOL_PROPERTY
Conf_Id
SciTegic.value.IntegerValue
1

@<SCITEGIC>MOL_PROPERTY
Delta U+W
SciTegic.value.DoubleValue
-1.339

@<SCITEGIC>MOL_PROPERTY
U+W
SciTegic.value.DoubleValue
-59.672

@<SCITEGIC>MOL_PROPERTY
Grad RMS
SciTegic.value.DoubleValue
0.000000

@<SCITEGIC>MOL_PROPERTY
U
SciTegic.value.DoubleValue
7.389

@<SCITEGIC>MOL_PROPERTY
W
SciTegic.value.DoubleValue
-67.061

@<SCITEGIC>MOL_PROPERTY
W(PB)
SciTegic.value.DoubleValue
-68.767

@<SCITEGIC>MOL_PROPERTY
W(SA)
SciTegic.value.DoubleValue
1.707

@<SCITEGIC>MOL_PROPERTY
Valence
SciTegic.value.DoubleValue
5.822

@<SCITEGIC>MOL_PROPERTY
Coulomb
SciTegic.value.DoubleValue
1.255

@<SCITEGIC>MOL_PROPERTY
VdW
SciTegic.value.DoubleValue
0.312

@<SCITEGIC>MOL_PROPERTY
VdW6
SciTegic.value.DoubleValue
-3.061

@<SCITEGIC>MOL_PROPERTY
VdW12
SciTegic.value.DoubleValue
3.372

@<SCITEGIC>MOL_PROPERTY
Bond
SciTegic.value.DoubleValue
0.059

@<SCITEGIC>MOL_PROPERTY
Angle
SciTegic.value.DoubleValue
2.241

@<SCITEGIC>MOL_PROPERTY
Pdih
SciTegic.value.DoubleValue
3.522

@<SCITEGIC>MOL_PROPERTY
Idih
SciTegic.value.DoubleValue
0.000

@<SCITEGIC>MOL_PROPERTY
Tether
SciTegic.value.DoubleValue
0.000

@<TRIPOS>MOLECULE
guest-6_confgen4.mol2 : confsearch ligand conformer 783
          13          12           1
SMALL
USER_CHARGES
 
@<TRIPOS>ATOM
       1    C1      21.208251   18.181222   20.805635 C.2        1 MOL1         0.6021
       2    O1      22.284922   18.715832   20.629365 O.co2      1 MOL1        -0.6904
       3    O2      21.058502   16.976519   20.852221 O.co2      1 MOL1        -0.6904
       4    C2      19.975295   19.071522   20.939481 C.3        1 MOL1        -0.2102
       5    H1      19.080347   18.460189   20.770282 H          1 MOL1         0.0687
       6    H2      20.013889   19.807754   20.127780 H          1 MOL1         0.0687
       7    C3      19.869214   19.808424   22.299283 C.3        1 MOL1        -0.1974
       8    H3      20.787846   20.384747   22.477862 H          1 MOL1         0.0689
       9    H4      19.045631   20.533935   22.252173 H          1 MOL1         0.0689
      10    C4      19.623028   18.842428   23.476641 C.3        1 MOL1        -0.2987
      11    H5      20.451020   18.128787   23.581392 H          1 MOL1         0.0700
      12    H6      19.533377   19.396991   24.419784 H          1 MOL1         0.0700
      13    H7      18.696863   18.271659   23.328877 H          1 MOL1         0.0700
@<TRIPOS>BOND
    1     1     2    1
    2     1     3    2
    3     1     4    1
    4     4     5    1
    5     4     6    1
    6     4     7    1
    7     7     8    1
    8     7     9    1
    9     7    10    1
   10    10    11    1
   11    10    12    1
   12    10    13    1
@<TRIPOS>SUBSTRUCTURE
       1 MOL1            1 RESIDUE      1      MOL     
@<SCITEGIC>MOL_PROPERTY
VConf Rank
SciTegic.value.IntegerValue
783

@<SCITEGIC>MOL_PROPERTY
Conf_Id
SciTegic.value.IntegerValue
4

@<SCITEGIC>MOL_PROPERTY
Delta U+W
SciTegic.value.DoubleValue
0.281

@<SCITEGIC>MOL_PROPERTY
U+W
SciTegic.value.DoubleValue
-58.051

@<SCITEGIC>MOL_PROPERTY
Grad RMS
SciTegic.value.DoubleValue
0.000000

@<SCITEGIC>MOL_PROPERTY
U
SciTegic.value.DoubleValue
9.781

@<SCITEGIC>MOL_PROPERTY
W
SciTegic.value.DoubleValue
-67.832

@<SCITEGIC>MOL_PROPERTY
W(PB)
SciTegic.value.DoubleValue
-69.535

@<SCITEGIC>MOL_PROPERTY
W(SA)
SciTegic.value.DoubleValue
1.703

@<SCITEGIC>MOL_PROPERTY
Valence
SciTegic.value.DoubleValue
6.123

@<SCITEGIC>MOL_PROPERTY
Coulomb
SciTegic.value.DoubleValue
3.449

@<SCITEGIC>MOL_PROPERTY
VdW
SciTegic.value.DoubleValue
0.209

@<SCITEGIC>MOL_PROPERTY
VdW6
SciTegic.value.DoubleValue
-3.762

@<SCITEGIC>MOL_PROPERTY
VdW12
SciTegic.value.DoubleValue
3.972

@<SCITEGIC>MOL_PROPERTY
Bond
SciTegic.value.DoubleValue
0.078

@<SCITEGIC>MOL_PROPERTY
Angle
SciTegic.value.DoubleValue
2.428

@<SCITEGIC>MOL_PROPERTY
Pdih
SciTegic.value.DoubleValue
3.616

@<SCITEGIC>MOL_PROPERTY
Idih
SciTegic.value.DoubleValue
0.002

@<SCITEGIC>MOL_PROPERTY
Tether
SciTegic.value.DoubleValue
0.000

@<TRIPOS>MOLECULE
guest-6_confgen4.mol2 : confsearch ligand conformer 784
          13          12           1
SMALL
USER_CHARGES
 
@<TRIPOS>ATOM
       1    C1      21.329491   20.173900   21.461614 C.2        1 MOL1         0.6021
       2    O1      22.187085   20.294895   22.313552 O.co2      1 MOL1        -0.6904
       3    O2      21.561051   20.204333   20.269326 O.co2      1 MOL1        -0.6904
       4    C2      19.879231   20.010763   21.909783 C.3        1 MOL1        -0.2102
       5    H1      19.275218   20.715235   21.325596 H          1 MOL1         0.0687
       6    H2      19.798925   20.319315   22.959371 H          1 MOL1         0.0687
       7    C3      19.316937   18.577267   21.730200 C.3        1 MOL1        -0.1974
       8    H3      18.237113   18.586317   21.932119 H          1 MOL1         0.0689
       9    H4      19.439961   18.262341   20.684442 H          1 MOL1         0.0689
      10    C4      19.995878   17.555321   22.665396 C.3        1 MOL1        -0.2987
      11    H5      19.865679   17.839537   23.717851 H          1 MOL1         0.0700
      12    H6      19.561865   16.556511   22.527160 H          1 MOL1         0.0700
      13    H7      21.072576   17.487442   22.460607 H          1 MOL1         0.0700
@<TRIPOS>BOND
    1     1     2    1
    2     1     3    2
    3     1     4    1
    4     4     5    1
    5     4     6    1
    6     4     7    1
    7     7     8    1
    8     7     9    1
    9     7    10    1
   10    10    11    1
   11    10    12    1
   12    10    13    1
@<TRIPOS>SUBSTRUCTURE
       1 MOL1            1 RESIDUE      1      MOL     
@<SCITEGIC>MOL_PROPERTY
VConf Rank
SciTegic.value.IntegerValue
784

@<SCITEGIC>MOL_PROPERTY
Conf_Id
SciTegic.value.IntegerValue
36

@<SCITEGIC>MOL_PROPERTY
Delta U+W
SciTegic.value.DoubleValue
0.272

@<SCITEGIC>MOL_PROPERTY
U+W
SciTegic.value.DoubleValue
-58.060

@<SCITEGIC>MOL_PROPERTY
Grad RMS
SciTegic.value.DoubleValue
0.000000

@<SCITEGIC>MOL_PROPERTY
U
SciTegic.value.DoubleValue
9.781

@<SCITEGIC>MOL_PROPERTY
W
SciTegic.value.DoubleValue
-67.841

@<SCITEGIC>MOL_PROPERTY
W(PB)
SciTegic.value.DoubleValue
-69.537

@<SCITEGIC>MOL_PROPERTY
W(SA)
SciTegic.value.DoubleValue
1.696

@<SCITEGIC>MOL_PROPERTY
Valence
SciTegic.value.DoubleValue
6.123

@<SCITEGIC>MOL_PROPERTY
Coulomb
SciTegic.value.DoubleValue
3.449

@<SCITEGIC>MOL_PROPERTY
VdW
SciTegic.value.DoubleValue
0.209

@<SCITEGIC>MOL_PROPERTY
VdW6
SciTegic.value.DoubleValue
-3.762

@<SCITEGIC>MOL_PROPERTY
VdW12
SciTegic.value.DoubleValue
3.972

@<SCITEGIC>MOL_PROPERTY
Bond
SciTegic.value.DoubleValue
0.078

@<SCITEGIC>MOL_PROPERTY
Angle
SciTegic.value.DoubleValue
2.428

@<SCITEGIC>MOL_PROPERTY
Pdih
SciTegic.value.DoubleValue
3.616

@<SCITEGIC>MOL_PROPERTY
Idih
SciTegic.value.DoubleValue
0.002

@<SCITEGIC>MOL_PROPERTY
Tether
SciTegic.value.DoubleValue
0.000

@<TRIPOS>MOLECULE
guest-6_confgen4.mol2 : confsearch ligand conformer 785
          13          12           1
SMALL
USER_CHARGES
 
@<TRIPOS>ATOM
       1    C1      18.471000   18.697258   20.389798 C.2        1 MOL1         0.6021
       2    O1      17.513994   18.587538   21.131034 O.co2      1 MOL1        -0.6904
       3    O2      18.382641   18.625987   19.180704 O.co2      1 MOL1        -0.6904
       4    C2      19.863782   18.936281   20.976063 C.3        1 MOL1        -0.2102
       5    H1      20.247933   19.865953   20.539625 H          1 MOL1         0.0687
       6    H2      20.511615   18.125135   20.622944 H          1 MOL1         0.0687
       7    C3      19.927900   19.020066   22.523585 C.3        1 MOL1        -0.1974
       8    H3      19.275792   19.831615   22.875577 H          1 MOL1         0.0689
       9    H4      19.539725   18.088679   22.959007 H          1 MOL1         0.0689
      10    C4      21.367098   19.261840   23.021671 C.3        1 MOL1        -0.2987
      11    H5      21.767226   20.204051   22.624610 H          1 MOL1         0.0700
      12    H6      21.392404   19.318105   24.117778 H          1 MOL1         0.0700
      13    H7      22.033283   18.447136   22.708656 H          1 MOL1         0.0700
@<TRIPOS>BOND
    1     1     2    1
    2     1     3    2
    3     1     4    1
    4     4     5    1
    5     4     6    1
    6     4     7    1
    7     7     8    1
    8     7     9    1
    9     7    10    1
   10    10    11    1
   11    10    12    1
   12    10    13    1
@<TRIPOS>SUBSTRUCTURE
       1 MOL1            1 RESIDUE      1      MOL     
@<SCITEGIC>MOL_PROPERTY
VConf Rank
SciTegic.value.IntegerValue
785

@<SCITEGIC>MOL_PROPERTY
Conf_Id
SciTegic.value.IntegerValue
0

@<SCITEGIC>MOL_PROPERTY
Delta U+W
SciTegic.value.DoubleValue
0.000

@<SCITEGIC>MOL_PROPERTY
U+W
SciTegic.value.DoubleValue
-58.332

@<SCITEGIC>MOL_PROPERTY
Grad RMS
SciTegic.value.DoubleValue
0.000000

@<SCITEGIC>MOL_PROPERTY
U
SciTegic.value.DoubleValue
8.390

@<SCITEGIC>MOL_PROPERTY
W
SciTegic.value.DoubleValue
-66.722

@<SCITEGIC>MOL_PROPERTY
W(PB)
SciTegic.value.DoubleValue
-68.455

@<SCITEGIC>MOL_PROPERTY
W(SA)
SciTegic.value.DoubleValue
1.733

@<SCITEGIC>MOL_PROPERTY
Valence
SciTegic.value.DoubleValue
6.333

@<SCITEGIC>MOL_PROPERTY
Coulomb
SciTegic.value.DoubleValue
1.215

@<SCITEGIC>MOL_PROPERTY
VdW
SciTegic.value.DoubleValue
0.842

@<SCITEGIC>MOL_PROPERTY
VdW6
SciTegic.value.DoubleValue
-3.344

@<SCITEGIC>MOL_PROPERTY
VdW12
SciTegic.value.DoubleValue
4.186

@<SCITEGIC>MOL_PROPERTY
Bond
SciTegic.value.DoubleValue
0.091

@<SCITEGIC>MOL_PROPERTY
Angle
SciTegic.value.DoubleValue
2.713

@<SCITEGIC>MOL_PROPERTY
Pdih
SciTegic.value.DoubleValue
3.529

@<SCITEGIC>MOL_PROPERTY
Idih
SciTegic.value.DoubleValue
0.000

@<SCITEGIC>MOL_PROPERTY
Tether
SciTegic.value.DoubleValue
0.000

@<TRIPOS>MOLECULE
guest-6_confgen4.mol2 : confsearch ligand conformer 786
          13          12           1
SMALL
USER_CHARGES
 
@<TRIPOS>ATOM
       1    C1      18.031041   18.408068   21.356445 C.2        1 MOL1         0.6021
       2    O1      17.308400   18.154061   22.299117 O.co2      1 MOL1        -0.6904
       3    O2      17.876031   17.939269   20.246689 O.co2      1 MOL1        -0.6904
       4    C2      19.207404   19.351639   21.583038 C.3        1 MOL1        -0.2102
       5    H1      18.915864   20.083611   22.346085 H          1 MOL1         0.0687
       6    H2      19.383951   19.906496   20.653531 H          1 MOL1         0.0687
       7    C3      20.497787   18.615116   22.016968 C.3        1 MOL1        -0.1974
       8    H3      20.306363   18.055167   22.943054 H          1 MOL1         0.0689
       9    H4      20.774602   17.878122   21.250133 H          1 MOL1         0.0689
      10    C4      21.666974   19.595688   22.237810 C.3        1 MOL1        -0.2987
      11    H5      22.572088   19.055420   22.544634 H          1 MOL1         0.0700
      12    H6      21.896996   20.146556   21.316295 H          1 MOL1         0.0700
      13    H7      21.425174   20.324923   23.022224 H          1 MOL1         0.0700
@<TRIPOS>BOND
    1     1     2    1
    2     1     3    2
    3     1     4    1
    4     4     5    1
    5     4     6    1
    6     4     7    1
    7     7     8    1
    8     7     9    1
    9     7    10    1
   10    10    11    1
   11    10    12    1
   12    10    13    1
@<TRIPOS>SUBSTRUCTURE
       1 MOL1            1 RESIDUE      1      MOL     
@<SCITEGIC>MOL_PROPERTY
VConf Rank
SciTegic.value.IntegerValue
786

@<SCITEGIC>MOL_PROPERTY
Conf_Id
SciTegic.value.IntegerValue
1

@<SCITEGIC>MOL_PROPERTY
Delta U+W
SciTegic.value.DoubleValue
-1.339

@<SCITEGIC>MOL_PROPERTY
U+W
SciTegic.value.DoubleValue
-59.672

@<SCITEGIC>MOL_PROPERTY
Grad RMS
SciTegic.value.DoubleValue
0.000000

@<SCITEGIC>MOL_PROPERTY
U
SciTegic.value.DoubleValue
7.389

@<SCITEGIC>MOL_PROPERTY
W
SciTegic.value.DoubleValue
-67.061

@<SCITEGIC>MOL_PROPERTY
W(PB)
SciTegic.value.DoubleValue
-68.767

@<SCITEGIC>MOL_PROPERTY
W(SA)
SciTegic.value.DoubleValue
1.707

@<SCITEGIC>MOL_PROPERTY
Valence
SciTegic.value.DoubleValue
5.822

@<SCITEGIC>MOL_PROPERTY
Coulomb
SciTegic.value.DoubleValue
1.255

@<SCITEGIC>MOL_PROPERTY
VdW
SciTegic.value.DoubleValue
0.312

@<SCITEGIC>MOL_PROPERTY
VdW6
SciTegic.value.DoubleValue
-3.061

@<SCITEGIC>MOL_PROPERTY
VdW12
SciTegic.value.DoubleValue
3.372

@<SCITEGIC>MOL_PROPERTY
Bond
SciTegic.value.DoubleValue
0.059

@<SCITEGIC>MOL_PROPERTY
Angle
SciTegic.value.DoubleValue
2.241

@<SCITEGIC>MOL_PROPERTY
Pdih
SciTegic.value.DoubleValue
3.522

@<SCITEGIC>MOL_PROPERTY
Idih
SciTegic.value.DoubleValue
0.000

@<SCITEGIC>MOL_PROPERTY
Tether
SciTegic.value.DoubleValue
0.000

@<TRIPOS>MOLECULE
guest-6_confgen4.mol2 : confsearch ligand conformer 787
          13          12           1
SMALL
USER_CHARGES
 
@<TRIPOS>ATOM
       1    C1      21.812622   19.564409   21.910746 C.2        1 MOL1         0.6021
       2    O1      22.358074   19.467138   20.829488 O.co2      1 MOL1        -0.6904
       3    O2      21.942561   20.525678   22.642171 O.co2      1 MOL1        -0.6904
       4    C2      20.947813   18.400558   22.388537 C.3        1 MOL1        -0.2102
       5    H1      20.800155   18.493873   23.471485 H          1 MOL1         0.0687
       6    H2      21.519909   17.479460   22.225227 H          1 MOL1         0.0687
       7    C3      19.578250   18.290974   21.670465 C.3        1 MOL1        -0.1974
       8    H3      19.735767   18.239669   20.583967 H          1 MOL1         0.0689
       9    H4      19.092395   17.350314   21.963686 H          1 MOL1         0.0689
      10    C4      18.639897   19.468656   22.005855 C.3        1 MOL1        -0.2987
      11    H5      19.075682   20.424209   21.685174 H          1 MOL1         0.0700
      12    H6      17.673879   19.350323   21.498013 H          1 MOL1         0.0700
      13    H7      18.451181   19.524747   23.085963 H          1 MOL1         0.0700
@<TRIPOS>BOND
    1     1     2    1
    2     1     3    2
    3     1     4    1
    4     4     5    1
    5     4     6    1
    6     4     7    1
    7     7     8    1
    8     7     9    1
    9     7    10    1
   10    10    11    1
   11    10    12    1
   12    10    13    1
@<TRIPOS>SUBSTRUCTURE
       1 MOL1            1 RESIDUE      1      MOL     
@<SCITEGIC>MOL_PROPERTY
VConf Rank
SciTegic.value.IntegerValue
787

@<SCITEGIC>MOL_PROPERTY
Conf_Id
SciTegic.value.IntegerValue
4

@<SCITEGIC>MOL_PROPERTY
Delta U+W
SciTegic.value.DoubleValue
0.281

@<SCITEGIC>MOL_PROPERTY
U+W
SciTegic.value.DoubleValue
-58.051

@<SCITEGIC>MOL_PROPERTY
Grad RMS
SciTegic.value.DoubleValue
0.000000

@<SCITEGIC>MOL_PROPERTY
U
SciTegic.value.DoubleValue
9.781

@<SCITEGIC>MOL_PROPERTY
W
SciTegic.value.DoubleValue
-67.832

@<SCITEGIC>MOL_PROPERTY
W(PB)
SciTegic.value.DoubleValue
-69.535

@<SCITEGIC>MOL_PROPERTY
W(SA)
SciTegic.value.DoubleValue
1.703

@<SCITEGIC>MOL_PROPERTY
Valence
SciTegic.value.DoubleValue
6.123

@<SCITEGIC>MOL_PROPERTY
Coulomb
SciTegic.value.DoubleValue
3.449

@<SCITEGIC>MOL_PROPERTY
VdW
SciTegic.value.DoubleValue
0.209

@<SCITEGIC>MOL_PROPERTY
VdW6
SciTegic.value.DoubleValue
-3.762

@<SCITEGIC>MOL_PROPERTY
VdW12
SciTegic.value.DoubleValue
3.972

@<SCITEGIC>MOL_PROPERTY
Bond
SciTegic.value.DoubleValue
0.078

@<SCITEGIC>MOL_PROPERTY
Angle
SciTegic.value.DoubleValue
2.428

@<SCITEGIC>MOL_PROPERTY
Pdih
SciTegic.value.DoubleValue
3.616

@<SCITEGIC>MOL_PROPERTY
Idih
SciTegic.value.DoubleValue
0.002

@<SCITEGIC>MOL_PROPERTY
Tether
SciTegic.value.DoubleValue
0.000

@<TRIPOS>MOLECULE
guest-6_confgen4.mol2 : confsearch ligand conformer 788
          13          12           1
SMALL
USER_CHARGES
 
@<TRIPOS>ATOM
       1    C1      18.674649   17.905247   21.963491 C.2        1 MOL1         0.6021
       2    O1      18.212276   17.811003   23.082970 O.co2      1 MOL1        -0.6904
       3    O2      17.992338   17.963608   20.959926 O.co2      1 MOL1        -0.6904
       4    C2      20.192917   17.915028   21.803833 C.3        1 MOL1        -0.2102
       5    H1      20.443482   17.195133   21.015572 H          1 MOL1         0.0687
       6    H2      20.646108   17.540945   22.730098 H          1 MOL1         0.0687
       7    C3      20.784101   19.301825   21.442401 C.3        1 MOL1        -0.1974
       8    H3      21.849454   19.186864   21.200167 H          1 MOL1         0.0689
       9    H4      20.294017   19.685761   20.536678 H          1 MOL1         0.0689
      10    C4      20.635357   20.323869   22.588362 C.3        1 MOL1        -0.2987
      11    H5      21.137786   19.969463   23.497951 H          1 MOL1         0.0700
      12    H6      21.080733   21.287201   22.307778 H          1 MOL1         0.0700
      13    H7      19.577791   20.497228   22.827792 H          1 MOL1         0.0700
@<TRIPOS>BOND
    1     1     2    1
    2     1     3    2
    3     1     4    1
    4     4     5    1
    5     4     6    1
    6     4     7    1
    7     7     8    1
    8     7     9    1
    9     7    10    1
   10    10    11    1
   11    10    12    1
   12    10    13    1
@<TRIPOS>SUBSTRUCTURE
       1 MOL1            1 RESIDUE      1      MOL     
@<SCITEGIC>MOL_PROPERTY
VConf Rank
SciTegic.value.IntegerValue
788

@<SCITEGIC>MOL_PROPERTY
Conf_Id
SciTegic.value.IntegerValue
36

@<SCITEGIC>MOL_PROPERTY
Delta U+W
SciTegic.value.DoubleValue
0.272

@<SCITEGIC>MOL_PROPERTY
U+W
SciTegic.value.DoubleValue
-58.060

@<SCITEGIC>MOL_PROPERTY
Grad RMS
SciTegic.value.DoubleValue
0.000000

@<SCITEGIC>MOL_PROPERTY
U
SciTegic.value.DoubleValue
9.781

@<SCITEGIC>MOL_PROPERTY
W
SciTegic.value.DoubleValue
-67.841

@<SCITEGIC>MOL_PROPERTY
W(PB)
SciTegic.value.DoubleValue
-69.537

@<SCITEGIC>MOL_PROPERTY
W(SA)
SciTegic.value.DoubleValue
1.696

@<SCITEGIC>MOL_PROPERTY
Valence
SciTegic.value.DoubleValue
6.123

@<SCITEGIC>MOL_PROPERTY
Coulomb
SciTegic.value.DoubleValue
3.449

@<SCITEGIC>MOL_PROPERTY
VdW
SciTegic.value.DoubleValue
0.209

@<SCITEGIC>MOL_PROPERTY
VdW6
SciTegic.value.DoubleValue
-3.762

@<SCITEGIC>MOL_PROPERTY
VdW12
SciTegic.value.DoubleValue
3.972

@<SCITEGIC>MOL_PROPERTY
Bond
SciTegic.value.DoubleValue
0.078

@<SCITEGIC>MOL_PROPERTY
Angle
SciTegic.value.DoubleValue
2.428

@<SCITEGIC>MOL_PROPERTY
Pdih
SciTegic.value.DoubleValue
3.616

@<SCITEGIC>MOL_PROPERTY
Idih
SciTegic.value.DoubleValue
0.002

@<SCITEGIC>MOL_PROPERTY
Tether
SciTegic.value.DoubleValue
0.000

@<TRIPOS>MOLECULE
guest-6_confgen4.mol2 : confsearch ligand conformer 789
          13          12           1
SMALL
USER_CHARGES
 
@<TRIPOS>ATOM
       1    C1      18.743398   18.769707   23.511343 C.2        1 MOL1         0.6021
       2    O1      17.696536   19.174742   23.045127 O.co2      1 MOL1        -0.6904
       3    O2      18.849627   18.376535   24.655426 O.co2      1 MOL1        -0.6904
       4    C2      20.002561   18.741721   22.642777 C.3        1 MOL1        -0.2102
       5    H1      20.367045   17.707677   22.627233 H          1 MOL1         0.0687
       6    H2      20.765430   19.342524   23.152095 H          1 MOL1         0.0687
       7    C3      19.819051   19.252890   21.189853 C.3        1 MOL1        -0.1974
       8    H3      19.052114   18.651380   20.682165 H          1 MOL1         0.0689
       9    H4      19.450913   20.288221   21.207670 H          1 MOL1         0.0689
      10    C4      21.137289   19.187724   20.392458 C.3        1 MOL1        -0.2987
      11    H5      21.510314   18.156751   20.333548 H          1 MOL1         0.0700
      12    H6      20.987788   19.553071   19.368042 H          1 MOL1         0.0700
      13    H7      21.912327   19.806701   20.863314 H          1 MOL1         0.0700
@<TRIPOS>BOND
    1     1     2    1
    2     1     3    2
    3     1     4    1
    4     4     5    1
    5     4     6    1
    6     4     7    1
    7     7     8    1
    8     7     9    1
    9     7    10    1
   10    10    11    1
   11    10    12    1
   12    10    13    1
@<TRIPOS>SUBSTRUCTURE
       1 MOL1            1 RESIDUE      1      MOL     
@<SCITEGIC>MOL_PROPERTY
VConf Rank
SciTegic.value.IntegerValue
789

@<SCITEGIC>MOL_PROPERTY
Conf_Id
SciTegic.value.IntegerValue
0

@<SCITEGIC>MOL_PROPERTY
Delta U+W
SciTegic.value.DoubleValue
0.000

@<SCITEGIC>MOL_PROPERTY
U+W
SciTegic.value.DoubleValue
-58.332

@<SCITEGIC>MOL_PROPERTY
Grad RMS
SciTegic.value.DoubleValue
0.000000

@<SCITEGIC>MOL_PROPERTY
U
SciTegic.value.DoubleValue
8.390

@<SCITEGIC>MOL_PROPERTY
W
SciTegic.value.DoubleValue
-66.722

@<SCITEGIC>MOL_PROPERTY
W(PB)
SciTegic.value.DoubleValue
-68.455

@<SCITEGIC>MOL_PROPERTY
W(SA)
SciTegic.value.DoubleValue
1.733

@<SCITEGIC>MOL_PROPERTY
Valence
SciTegic.value.DoubleValue
6.333

@<SCITEGIC>MOL_PROPERTY
Coulomb
SciTegic.value.DoubleValue
1.215

@<SCITEGIC>MOL_PROPERTY
VdW
SciTegic.value.DoubleValue
0.842

@<SCITEGIC>MOL_PROPERTY
VdW6
SciTegic.value.DoubleValue
-3.344

@<SCITEGIC>MOL_PROPERTY
VdW12
SciTegic.value.DoubleValue
4.186

@<SCITEGIC>MOL_PROPERTY
Bond
SciTegic.value.DoubleValue
0.091

@<SCITEGIC>MOL_PROPERTY
Angle
SciTegic.value.DoubleValue
2.713

@<SCITEGIC>MOL_PROPERTY
Pdih
SciTegic.value.DoubleValue
3.529

@<SCITEGIC>MOL_PROPERTY
Idih
SciTegic.value.DoubleValue
0.000

@<SCITEGIC>MOL_PROPERTY
Tether
SciTegic.value.DoubleValue
0.000

@<TRIPOS>MOLECULE
guest-6_confgen4.mol2 : confsearch ligand conformer 790
          13          12           1
SMALL
USER_CHARGES
 
@<TRIPOS>ATOM
       1    C1      20.939477   17.178247   22.137306 C.2        1 MOL1         0.6021
       2    O1      21.037936   16.462661   21.160780 O.co2      1 MOL1        -0.6904
       3    O2      20.941917   16.760913   23.278002 O.co2      1 MOL1        -0.6904
       4    C2      20.785591   18.679608   21.918832 C.3        1 MOL1        -0.2102
       5    H1      21.342005   18.951677   21.013624 H          1 MOL1         0.0687
       6    H2      21.262842   19.197632   22.759606 H          1 MOL1         0.0687
       7    C3      19.308265   19.123008   21.789395 C.3        1 MOL1        -0.1974
       8    H3      18.837978   18.590643   20.950802 H          1 MOL1         0.0689
       9    H4      18.758842   18.836763   22.697152 H          1 MOL1         0.0689
      10    C4      19.186876   20.644257   21.569491 C.3        1 MOL1        -0.2987
      11    H5      18.133172   20.939206   21.480193 H          1 MOL1         0.0700
      12    H6      19.624034   21.198774   22.410300 H          1 MOL1         0.0700
      13    H7      19.703740   20.950749   20.650540 H          1 MOL1         0.0700
@<TRIPOS>BOND
    1     1     2    1
    2     1     3    2
    3     1     4    1
    4     4     5    1
    5     4     6    1
    6     4     7    1
    7     7     8    1
    8     7     9    1
    9     7    10    1
   10    10    11    1
   11    10    12    1
   12    10    13    1
@<TRIPOS>SUBSTRUCTURE
       1 MOL1            1 RESIDUE      1      MOL     
@<SCITEGIC>MOL_PROPERTY
VConf Rank
SciTegic.value.IntegerValue
790

@<SCITEGIC>MOL_PROPERTY
Conf_Id
SciTegic.value.IntegerValue
1

@<SCITEGIC>MOL_PROPERTY
Delta U+W
SciTegic.value.DoubleValue
-1.339

@<SCITEGIC>MOL_PROPERTY
U+W
SciTegic.value.DoubleValue
-59.672

@<SCITEGIC>MOL_PROPERTY
Grad RMS
SciTegic.value.DoubleValue
0.000000

@<SCITEGIC>MOL_PROPERTY
U
SciTegic.value.DoubleValue
7.389

@<SCITEGIC>MOL_PROPERTY
W
SciTegic.value.DoubleValue
-67.061

@<SCITEGIC>MOL_PROPERTY
W(PB)
SciTegic.value.DoubleValue
-68.767

@<SCITEGIC>MOL_PROPERTY
W(SA)
SciTegic.value.DoubleValue
1.707

@<SCITEGIC>MOL_PROPERTY
Valence
SciTegic.value.DoubleValue
5.822

@<SCITEGIC>MOL_PROPERTY
Coulomb
SciTegic.value.DoubleValue
1.255

@<SCITEGIC>MOL_PROPERTY
VdW
SciTegic.value.DoubleValue
0.312

@<SCITEGIC>MOL_PROPERTY
VdW6
SciTegic.value.DoubleValue
-3.061

@<SCITEGIC>MOL_PROPERTY
VdW12
SciTegic.value.DoubleValue
3.372

@<SCITEGIC>MOL_PROPERTY
Bond
SciTegic.value.DoubleValue
0.059

@<SCITEGIC>MOL_PROPERTY
Angle
SciTegic.value.DoubleValue
2.241

@<SCITEGIC>MOL_PROPERTY
Pdih
SciTegic.value.DoubleValue
3.522

@<SCITEGIC>MOL_PROPERTY
Idih
SciTegic.value.DoubleValue
0.000

@<SCITEGIC>MOL_PROPERTY
Tether
SciTegic.value.DoubleValue
0.000

@<TRIPOS>MOLECULE
guest-6_confgen4.mol2 : confsearch ligand conformer 791
          13          12           1
SMALL
USER_CHARGES
 
@<TRIPOS>ATOM
       1    C1      19.506012   17.337623   21.584466 C.2        1 MOL1         0.6021
       2    O1      19.230852   16.618158   22.524018 O.co2      1 MOL1        -0.6904
       3    O2      18.839114   17.399760   20.570913 O.co2      1 MOL1        -0.6904
       4    C2      20.776443   18.179884   21.670071 C.3        1 MOL1        -0.2102
       5    H1      21.049365   18.507922   20.659530 H          1 MOL1         0.0687
       6    H2      21.582005   17.522204   22.017798 H          1 MOL1         0.0687
       7    C3      20.664583   19.402744   22.616346 C.3        1 MOL1        -0.1974
       8    H3      20.350690   19.067542   23.614861 H          1 MOL1         0.0689
       9    H4      21.657114   19.858706   22.734055 H          1 MOL1         0.0689
      10    C4      19.679929   20.467754   22.090856 C.3        1 MOL1        -0.2987
      11    H5      18.665077   20.057703   22.002758 H          1 MOL1         0.0700
      12    H6      19.639298   21.327035   22.772825 H          1 MOL1         0.0700
      13    H7      19.987702   20.832972   21.102279 H          1 MOL1         0.0700
@<TRIPOS>BOND
    1     1     2    1
    2     1     3    2
    3     1     4    1
    4     4     5    1
    5     4     6    1
    6     4     7    1
    7     7     8    1
    8     7     9    1
    9     7    10    1
   10    10    11    1
   11    10    12    1
   12    10    13    1
@<TRIPOS>SUBSTRUCTURE
       1 MOL1            1 RESIDUE      1      MOL     
@<SCITEGIC>MOL_PROPERTY
VConf Rank
SciTegic.value.IntegerValue
791

@<SCITEGIC>MOL_PROPERTY
Conf_Id
SciTegic.value.IntegerValue
4

@<SCITEGIC>MOL_PROPERTY
Delta U+W
SciTegic.value.DoubleValue
0.281

@<SCITEGIC>MOL_PROPERTY
U+W
SciTegic.value.DoubleValue
-58.051

@<SCITEGIC>MOL_PROPERTY
Grad RMS
SciTegic.value.DoubleValue
0.000000

@<SCITEGIC>MOL_PROPERTY
U
SciTegic.value.DoubleValue
9.781

@<SCITEGIC>MOL_PROPERTY
W
SciTegic.value.DoubleValue
-67.832

@<SCITEGIC>MOL_PROPERTY
W(PB)
SciTegic.value.DoubleValue
-69.535

@<SCITEGIC>MOL_PROPERTY
W(SA)
SciTegic.value.DoubleValue
1.703

@<SCITEGIC>MOL_PROPERTY
Valence
SciTegic.value.DoubleValue
6.123

@<SCITEGIC>MOL_PROPERTY
Coulomb
SciTegic.value.DoubleValue
3.449

@<SCITEGIC>MOL_PROPERTY
VdW
SciTegic.value.DoubleValue
0.209

@<SCITEGIC>MOL_PROPERTY
VdW6
SciTegic.value.DoubleValue
-3.762

@<SCITEGIC>MOL_PROPERTY
VdW12
SciTegic.value.DoubleValue
3.972

@<SCITEGIC>MOL_PROPERTY
Bond
SciTegic.value.DoubleValue
0.078

@<SCITEGIC>MOL_PROPERTY
Angle
SciTegic.value.DoubleValue
2.428

@<SCITEGIC>MOL_PROPERTY
Pdih
SciTegic.value.DoubleValue
3.616

@<SCITEGIC>MOL_PROPERTY
Idih
SciTegic.value.DoubleValue
0.002

@<SCITEGIC>MOL_PROPERTY
Tether
SciTegic.value.DoubleValue
0.000

@<TRIPOS>MOLECULE
guest-6_confgen4.mol2 : confsearch ligand conformer 792
          13          12           1
SMALL
USER_CHARGES
 
@<TRIPOS>ATOM
       1    C1      18.496701   19.557639   21.509179 C.2        1 MOL1         0.6021
       2    O1      17.880592   19.915873   22.493040 O.co2      1 MOL1        -0.6904
       3    O2      18.436638   20.126821   20.437488 O.co2      1 MOL1        -0.6904
       4    C2      19.364806   18.306053   21.612391 C.3        1 MOL1        -0.2102
       5    H1      19.128438   17.672067   20.749502 H          1 MOL1         0.0687
       6    H2      19.068556   17.745731   22.507691 H          1 MOL1         0.0687
       7    C3      20.888387   18.591063   21.640782 C.3        1 MOL1        -0.1974
       8    H3      21.433833   17.640625   21.563129 H          1 MOL1         0.0689
       9    H4      21.167290   19.187935   20.761078 H          1 MOL1         0.0689
      10    C4      21.328591   19.321057   22.926571 C.3        1 MOL1        -0.2987
      11    H5      21.078992   18.730762   23.817999 H          1 MOL1         0.0700
      12    H6      22.413340   19.489605   22.923642 H          1 MOL1         0.0700
      13    H7      20.834847   20.297944   23.014526 H          1 MOL1         0.0700
@<TRIPOS>BOND
    1     1     2    1
    2     1     3    2
    3     1     4    1
    4     4     5    1
    5     4     6    1
    6     4     7    1
    7     7     8    1
    8     7     9    1
    9     7    10    1
   10    10    11    1
   11    10    12    1
   12    10    13    1
@<TRIPOS>SUBSTRUCTURE
       1 MOL1            1 RESIDUE      1      MOL     
@<SCITEGIC>MOL_PROPERTY
VConf Rank
SciTegic.value.IntegerValue
792

@<SCITEGIC>MOL_PROPERTY
Conf_Id
SciTegic.value.IntegerValue
36

@<SCITEGIC>MOL_PROPERTY
Delta U+W
SciTegic.value.DoubleValue
0.272

@<SCITEGIC>MOL_PROPERTY
U+W
SciTegic.value.DoubleValue
-58.060

@<SCITEGIC>MOL_PROPERTY
Grad RMS
SciTegic.value.DoubleValue
0.000000

@<SCITEGIC>MOL_PROPERTY
U
SciTegic.value.DoubleValue
9.781

@<SCITEGIC>MOL_PROPERTY
W
SciTegic.value.DoubleValue
-67.841

@<SCITEGIC>MOL_PROPERTY
W(PB)
SciTegic.value.DoubleValue
-69.537

@<SCITEGIC>MOL_PROPERTY
W(SA)
SciTegic.value.DoubleValue
1.696

@<SCITEGIC>MOL_PROPERTY
Valence
SciTegic.value.DoubleValue
6.123

@<SCITEGIC>MOL_PROPERTY
Coulomb
SciTegic.value.DoubleValue
3.449

@<SCITEGIC>MOL_PROPERTY
VdW
SciTegic.value.DoubleValue
0.209

@<SCITEGIC>MOL_PROPERTY
VdW6
SciTegic.value.DoubleValue
-3.762

@<SCITEGIC>MOL_PROPERTY
VdW12
SciTegic.value.DoubleValue
3.972

@<SCITEGIC>MOL_PROPERTY
Bond
SciTegic.value.DoubleValue
0.078

@<SCITEGIC>MOL_PROPERTY
Angle
SciTegic.value.DoubleValue
2.428

@<SCITEGIC>MOL_PROPERTY
Pdih
SciTegic.value.DoubleValue
3.616

@<SCITEGIC>MOL_PROPERTY
Idih
SciTegic.value.DoubleValue
0.002

@<SCITEGIC>MOL_PROPERTY
Tether
SciTegic.value.DoubleValue
0.000

@<TRIPOS>MOLECULE
guest-6_confgen4.mol2 : confsearch ligand conformer 793
          13          12           1
SMALL
USER_CHARGES
 
@<TRIPOS>ATOM
       1    C1      20.793155   20.936884   21.367764 C.2        1 MOL1         0.6021
       2    O1      21.279218   20.723847   20.274290 O.co2      1 MOL1        -0.6904
       3    O2      20.829694   22.024255   21.907288 O.co2      1 MOL1        -0.6904
       4    C2      20.096948   19.804059   22.124525 C.3        1 MOL1        -0.2102
       5    H1      19.070285   20.129725   22.330053 H          1 MOL1         0.0687
       6    H2      20.599772   19.699635   23.093340 H          1 MOL1         0.0687
       7    C3      20.074812   18.434298   21.397050 C.3        1 MOL1        -0.1974
       8    H3      19.573102   18.541765   20.425199 H          1 MOL1         0.0689
       9    H4      21.104476   18.111176   21.189355 H          1 MOL1         0.0689
      10    C4      19.354757   17.357055   22.233054 C.3        1 MOL1        -0.2987
      11    H5      18.312652   17.642537   22.428096 H          1 MOL1         0.0700
      12    H6      19.349216   16.395871   21.702626 H          1 MOL1         0.0700
      13    H7      19.856304   17.208538   23.198412 H          1 MOL1         0.0700
@<TRIPOS>BOND
    1     1     2    1
    2     1     3    2
    3     1     4    1
    4     4     5    1
    5     4     6    1
    6     4     7    1
    7     7     8    1
    8     7     9    1
    9     7    10    1
   10    10    11    1
   11    10    12    1
   12    10    13    1
@<TRIPOS>SUBSTRUCTURE
       1 MOL1            1 RESIDUE      1      MOL     
@<SCITEGIC>MOL_PROPERTY
VConf Rank
SciTegic.value.IntegerValue
793

@<SCITEGIC>MOL_PROPERTY
Conf_Id
SciTegic.value.IntegerValue
0

@<SCITEGIC>MOL_PROPERTY
Delta U+W
SciTegic.value.DoubleValue
0.000

@<SCITEGIC>MOL_PROPERTY
U+W
SciTegic.value.DoubleValue
-58.332

@<SCITEGIC>MOL_PROPERTY
Grad RMS
SciTegic.value.DoubleValue
0.000000

@<SCITEGIC>MOL_PROPERTY
U
SciTegic.value.DoubleValue
8.390

@<SCITEGIC>MOL_PROPERTY
W
SciTegic.value.DoubleValue
-66.722

@<SCITEGIC>MOL_PROPERTY
W(PB)
SciTegic.value.DoubleValue
-68.455

@<SCITEGIC>MOL_PROPERTY
W(SA)
SciTegic.value.DoubleValue
1.733

@<SCITEGIC>MOL_PROPERTY
Valence
SciTegic.value.DoubleValue
6.333

@<SCITEGIC>MOL_PROPERTY
Coulomb
SciTegic.value.DoubleValue
1.215

@<SCITEGIC>MOL_PROPERTY
VdW
SciTegic.value.DoubleValue
0.842

@<SCITEGIC>MOL_PROPERTY
VdW6
SciTegic.value.DoubleValue
-3.344

@<SCITEGIC>MOL_PROPERTY
VdW12
SciTegic.value.DoubleValue
4.186

@<SCITEGIC>MOL_PROPERTY
Bond
SciTegic.value.DoubleValue
0.091

@<SCITEGIC>MOL_PROPERTY
Angle
SciTegic.value.DoubleValue
2.713

@<SCITEGIC>MOL_PROPERTY
Pdih
SciTegic.value.DoubleValue
3.529

@<SCITEGIC>MOL_PROPERTY
Idih
SciTegic.value.DoubleValue
0.000

@<SCITEGIC>MOL_PROPERTY
Tether
SciTegic.value.DoubleValue
0.000

@<TRIPOS>MOLECULE
guest-6_confgen4.mol2 : confsearch ligand conformer 794
          13          12           1
SMALL
USER_CHARGES
 
@<TRIPOS>ATOM
       1    C1      20.128857   17.467739   20.428360 C.2        1 MOL1         0.6021
       2    O1      19.144150   17.274280   19.744045 O.co2      1 MOL1        -0.6904
       3    O2      20.960988   16.614634   20.663159 O.co2      1 MOL1        -0.6904
       4    C2      20.321020   18.850863   21.041174 C.3        1 MOL1        -0.2102
       5    H1      19.899638   19.591694   20.350794 H          1 MOL1         0.0687
       6    H2      21.397915   19.047717   21.108730 H          1 MOL1         0.0687
       7    C3      19.665612   18.989810   22.436517 C.3        1 MOL1        -0.1974
       8    H3      18.589483   18.780845   22.358395 H          1 MOL1         0.0689
       9    H4      20.088130   18.236861   23.116494 H          1 MOL1         0.0689
      10    C4      19.877411   20.397799   23.028124 C.3        1 MOL1        -0.2987
      11    H5      19.406145   20.476855   24.016516 H          1 MOL1         0.0700
      12    H6      20.946751   20.618449   23.143804 H          1 MOL1         0.0700
      13    H7      19.436574   21.166589   22.379909 H          1 MOL1         0.0700
@<TRIPOS>BOND
    1     1     2    1
    2     1     3    2
    3     1     4    1
    4     4     5    1
    5     4     6    1
    6     4     7    1
    7     7     8    1
    8     7     9    1
    9     7    10    1
   10    10    11    1
   11    10    12    1
   12    10    13    1
@<TRIPOS>SUBSTRUCTURE
       1 MOL1            1 RESIDUE      1      MOL     
@<SCITEGIC>MOL_PROPERTY
VConf Rank
SciTegic.value.IntegerValue
794

@<SCITEGIC>MOL_PROPERTY
Conf_Id
SciTegic.value.IntegerValue
1

@<SCITEGIC>MOL_PROPERTY
Delta U+W
SciTegic.value.DoubleValue
-1.339

@<SCITEGIC>MOL_PROPERTY
U+W
SciTegic.value.DoubleValue
-59.672

@<SCITEGIC>MOL_PROPERTY
Grad RMS
SciTegic.value.DoubleValue
0.000000

@<SCITEGIC>MOL_PROPERTY
U
SciTegic.value.DoubleValue
7.389

@<SCITEGIC>MOL_PROPERTY
W
SciTegic.value.DoubleValue
-67.061

@<SCITEGIC>MOL_PROPERTY
W(PB)
SciTegic.value.DoubleValue
-68.767

@<SCITEGIC>MOL_PROPERTY
W(SA)
SciTegic.value.DoubleValue
1.707

@<SCITEGIC>MOL_PROPERTY
Valence
SciTegic.value.DoubleValue
5.822

@<SCITEGIC>MOL_PROPERTY
Coulomb
SciTegic.value.DoubleValue
1.255

@<SCITEGIC>MOL_PROPERTY
VdW
SciTegic.value.DoubleValue
0.312

@<SCITEGIC>MOL_PROPERTY
VdW6
SciTegic.value.DoubleValue
-3.061

@<SCITEGIC>MOL_PROPERTY
VdW12
SciTegic.value.DoubleValue
3.372

@<SCITEGIC>MOL_PROPERTY
Bond
SciTegic.value.DoubleValue
0.059

@<SCITEGIC>MOL_PROPERTY
Angle
SciTegic.value.DoubleValue
2.241

@<SCITEGIC>MOL_PROPERTY
Pdih
SciTegic.value.DoubleValue
3.522

@<SCITEGIC>MOL_PROPERTY
Idih
SciTegic.value.DoubleValue
0.000

@<SCITEGIC>MOL_PROPERTY
Tether
SciTegic.value.DoubleValue
0.000

@<TRIPOS>MOLECULE
guest-6_confgen4.mol2 : confsearch ligand conformer 795
          13          12           1
SMALL
USER_CHARGES
 
@<TRIPOS>ATOM
       1    C1      19.236936   18.116648   23.299817 C.2        1 MOL1         0.6021
       2    O1      18.475876   18.796891   23.958723 O.co2      1 MOL1        -0.6904
       3    O2      18.985994   16.981446   22.947327 O.co2      1 MOL1        -0.6904
       4    C2      20.593716   18.709107   22.927167 C.3        1 MOL1        -0.2102
       5    H1      21.264180   17.892983   22.631011 H          1 MOL1         0.0687
       6    H2      21.017449   19.152973   23.835913 H          1 MOL1         0.0687
       7    C3      20.532443   19.781863   21.809680 C.3        1 MOL1        -0.1974
       8    H3      19.826971   20.573648   22.098311 H          1 MOL1         0.0689
       9    H4      21.518060   20.257301   21.712766 H          1 MOL1         0.0689
      10    C4      20.122004   19.190317   20.445297 C.3        1 MOL1        -0.2987
      11    H5      19.119703   18.744381   20.493898 H          1 MOL1         0.0700
      12    H6      20.107566   19.971071   19.673732 H          1 MOL1         0.0700
      13    H7      20.827285   18.411380   20.127134 H          1 MOL1         0.0700
@<TRIPOS>BOND
    1     1     2    1
    2     1     3    2
    3     1     4    1
    4     4     5    1
    5     4     6    1
    6     4     7    1
    7     7     8    1
    8     7     9    1
    9     7    10    1
   10    10    11    1
   11    10    12    1
   12    10    13    1
@<TRIPOS>SUBSTRUCTURE
       1 MOL1            1 RESIDUE      1      MOL     
@<SCITEGIC>MOL_PROPERTY
VConf Rank
SciTegic.value.IntegerValue
795

@<SCITEGIC>MOL_PROPERTY
Conf_Id
SciTegic.value.IntegerValue
4

@<SCITEGIC>MOL_PROPERTY
Delta U+W
SciTegic.value.DoubleValue
0.281

@<SCITEGIC>MOL_PROPERTY
U+W
SciTegic.value.DoubleValue
-58.051

@<SCITEGIC>MOL_PROPERTY
Grad RMS
SciTegic.value.DoubleValue
0.000000

@<SCITEGIC>MOL_PROPERTY
U
SciTegic.value.DoubleValue
9.781

@<SCITEGIC>MOL_PROPERTY
W
SciTegic.value.DoubleValue
-67.832

@<SCITEGIC>MOL_PROPERTY
W(PB)
SciTegic.value.DoubleValue
-69.535

@<SCITEGIC>MOL_PROPERTY
W(SA)
SciTegic.value.DoubleValue
1.703

@<SCITEGIC>MOL_PROPERTY
Valence
SciTegic.value.DoubleValue
6.123

@<SCITEGIC>MOL_PROPERTY
Coulomb
SciTegic.value.DoubleValue
3.449

@<SCITEGIC>MOL_PROPERTY
VdW
SciTegic.value.DoubleValue
0.209

@<SCITEGIC>MOL_PROPERTY
VdW6
SciTegic.value.DoubleValue
-3.762

@<SCITEGIC>MOL_PROPERTY
VdW12
SciTegic.value.DoubleValue
3.972

@<SCITEGIC>MOL_PROPERTY
Bond
SciTegic.value.DoubleValue
0.078

@<SCITEGIC>MOL_PROPERTY
Angle
SciTegic.value.DoubleValue
2.428

@<SCITEGIC>MOL_PROPERTY
Pdih
SciTegic.value.DoubleValue
3.616

@<SCITEGIC>MOL_PROPERTY
Idih
SciTegic.value.DoubleValue
0.002

@<SCITEGIC>MOL_PROPERTY
Tether
SciTegic.value.DoubleValue
0.000

@<TRIPOS>MOLECULE
guest-6_confgen4.mol2 : confsearch ligand conformer 796
          13          12           1
SMALL
USER_CHARGES
 
@<TRIPOS>ATOM
       1    C1      18.700913   19.554379   21.068486 C.2        1 MOL1         0.6021
       2    O1      19.036279   20.477939   20.354013 O.co2      1 MOL1        -0.6904
       3    O2      17.894270   18.709004   20.735672 O.co2      1 MOL1        -0.6904
       4    C2      19.295846   19.469399   22.471895 C.3        1 MOL1        -0.2102
       5    H1      18.466204   19.302665   23.169232 H          1 MOL1         0.0687
       6    H2      19.733757   20.442132   22.727456 H          1 MOL1         0.0687
       7    C3      20.350291   18.346575   22.647255 C.3        1 MOL1        -0.1974
       8    H3      20.610244   18.259937   23.711111 H          1 MOL1         0.0689
       9    H4      19.914163   17.382762   22.349298 H          1 MOL1         0.0689
      10    C4      21.634710   18.610726   21.834594 C.3        1 MOL1        -0.2987
      11    H5      22.099463   19.559707   22.132641 H          1 MOL1         0.0700
      12    H6      22.366571   17.808636   21.996237 H          1 MOL1         0.0700
      13    H7      21.418301   18.659313   20.759126 H          1 MOL1         0.0700
@<TRIPOS>BOND
    1     1     2    1
    2     1     3    2
    3     1     4    1
    4     4     5    1
    5     4     6    1
    6     4     7    1
    7     7     8    1
    8     7     9    1
    9     7    10    1
   10    10    11    1
   11    10    12    1
   12    10    13    1
@<TRIPOS>SUBSTRUCTURE
       1 MOL1            1 RESIDUE      1      MOL     
@<SCITEGIC>MOL_PROPERTY
VConf Rank
SciTegic.value.IntegerValue
796

@<SCITEGIC>MOL_PROPERTY
Conf_Id
SciTegic.value.IntegerValue
36

@<SCITEGIC>MOL_PROPERTY
Delta U+W
SciTegic.value.DoubleValue
0.272

@<SCITEGIC>MOL_PROPERTY
U+W
SciTegic.value.DoubleValue
-58.060

@<SCITEGIC>MOL_PROPERTY
Grad RMS
SciTegic.value.DoubleValue
0.000000

@<SCITEGIC>MOL_PROPERTY
U
SciTegic.value.DoubleValue
9.781

@<SCITEGIC>MOL_PROPERTY
W
SciTegic.value.DoubleValue
-67.841

@<SCITEGIC>MOL_PROPERTY
W(PB)
SciTegic.value.DoubleValue
-69.537

@<SCITEGIC>MOL_PROPERTY
W(SA)
SciTegic.value.DoubleValue
1.696

@<SCITEGIC>MOL_PROPERTY
Valence
SciTegic.value.DoubleValue
6.123

@<SCITEGIC>MOL_PROPERTY
Coulomb
SciTegic.value.DoubleValue
3.449

@<SCITEGIC>MOL_PROPERTY
VdW
SciTegic.value.DoubleValue
0.209

@<SCITEGIC>MOL_PROPERTY
VdW6
SciTegic.value.DoubleValue
-3.762

@<SCITEGIC>MOL_PROPERTY
VdW12
SciTegic.value.DoubleValue
3.972

@<SCITEGIC>MOL_PROPERTY
Bond
SciTegic.value.DoubleValue
0.078

@<SCITEGIC>MOL_PROPERTY
Angle
SciTegic.value.DoubleValue
2.428

@<SCITEGIC>MOL_PROPERTY
Pdih
SciTegic.value.DoubleValue
3.616

@<SCITEGIC>MOL_PROPERTY
Idih
SciTegic.value.DoubleValue
0.002

@<SCITEGIC>MOL_PROPERTY
Tether
SciTegic.value.DoubleValue
0.000

@<TRIPOS>MOLECULE
guest-6_confgen4.mol2 : confsearch ligand conformer 797
          13          12           1
SMALL
USER_CHARGES
 
@<TRIPOS>ATOM
       1    C1      21.695234   18.868192   23.137093 C.2        1 MOL1         0.6021
       2    O1      22.528339   18.410058   22.379876 O.co2      1 MOL1        -0.6904
       3    O2      21.928288   19.121810   24.301636 O.co2      1 MOL1        -0.6904
       4    C2      20.279235   19.148940   22.630330 C.3        1 MOL1        -0.2102
       5    H1      20.072328   20.211077   22.807512 H          1 MOL1         0.0687
       6    H2      19.586542   18.578327   23.260342 H          1 MOL1         0.0687
       7    C3      20.028216   18.809672   21.137734 C.3        1 MOL1        -0.1974
       8    H3      20.725310   19.380315   20.508304 H          1 MOL1         0.0689
       9    H4      20.239001   17.745564   20.961670 H          1 MOL1         0.0689
      10    C4      18.578185   19.124669   20.718184 C.3        1 MOL1        -0.2987
      11    H5      18.352065   20.190273   20.855594 H          1 MOL1         0.0700
      12    H6      18.419794   18.878320   19.660129 H          1 MOL1         0.0700
      13    H7      17.861855   18.542426   21.312647 H          1 MOL1         0.0700
@<TRIPOS>BOND
    1     1     2    1
    2     1     3    2
    3     1     4    1
    4     4     5    1
    5     4     6    1
    6     4     7    1
    7     7     8    1
    8     7     9    1
    9     7    10    1
   10    10    11    1
   11    10    12    1
   12    10    13    1
@<TRIPOS>SUBSTRUCTURE
       1 MOL1            1 RESIDUE      1      MOL     
@<SCITEGIC>MOL_PROPERTY
VConf Rank
SciTegic.value.IntegerValue
797

@<SCITEGIC>MOL_PROPERTY
Conf_Id
SciTegic.value.IntegerValue
0

@<SCITEGIC>MOL_PROPERTY
Delta U+W
SciTegic.value.DoubleValue
0.000

@<SCITEGIC>MOL_PROPERTY
U+W
SciTegic.value.DoubleValue
-58.332

@<SCITEGIC>MOL_PROPERTY
Grad RMS
SciTegic.value.DoubleValue
0.000000

@<SCITEGIC>MOL_PROPERTY
U
SciTegic.value.DoubleValue
8.390

@<SCITEGIC>MOL_PROPERTY
W
SciTegic.value.DoubleValue
-66.722

@<SCITEGIC>MOL_PROPERTY
W(PB)
SciTegic.value.DoubleValue
-68.455

@<SCITEGIC>MOL_PROPERTY
W(SA)
SciTegic.value.DoubleValue
1.733

@<SCITEGIC>MOL_PROPERTY
Valence
SciTegic.value.DoubleValue
6.333

@<SCITEGIC>MOL_PROPERTY
Coulomb
SciTegic.value.DoubleValue
1.215

@<SCITEGIC>MOL_PROPERTY
VdW
SciTegic.value.DoubleValue
0.842

@<SCITEGIC>MOL_PROPERTY
VdW6
SciTegic.value.DoubleValue
-3.344

@<SCITEGIC>MOL_PROPERTY
VdW12
SciTegic.value.DoubleValue
4.186

@<SCITEGIC>MOL_PROPERTY
Bond
SciTegic.value.DoubleValue
0.091

@<SCITEGIC>MOL_PROPERTY
Angle
SciTegic.value.DoubleValue
2.713

@<SCITEGIC>MOL_PROPERTY
Pdih
SciTegic.value.DoubleValue
3.529

@<SCITEGIC>MOL_PROPERTY
Idih
SciTegic.value.DoubleValue
0.000

@<SCITEGIC>MOL_PROPERTY
Tether
SciTegic.value.DoubleValue
0.000

@<TRIPOS>MOLECULE
guest-6_confgen4.mol2 : confsearch ligand conformer 798
          13          12           1
SMALL
USER_CHARGES
 
@<TRIPOS>ATOM
       1    C1      21.104415   20.441151   22.951184 C.2        1 MOL1         0.6021
       2    O1      21.445979   21.445768   22.360051 O.co2      1 MOL1        -0.6904
       3    O2      21.684552   20.005950   23.925556 O.co2      1 MOL1        -0.6904
       4    C2      19.893235   19.674562   22.430718 C.3        1 MOL1        -0.2102
       5    H1      19.192416   20.397755   21.996134 H          1 MOL1         0.0687
       6    H2      19.389146   19.210412   23.287151 H          1 MOL1         0.0687
       7    C3      20.264579   18.597164   21.383262 C.3        1 MOL1        -0.1974
       8    H3      20.777408   19.071992   20.535107 H          1 MOL1         0.0689
       9    H4      20.974064   17.884366   21.826403 H          1 MOL1         0.0689
      10    C4      19.019751   17.841006   20.877378 C.3        1 MOL1        -0.2987
      11    H5      19.302917   17.082119   20.136319 H          1 MOL1         0.0700
      12    H6      18.506172   17.332580   21.703995 H          1 MOL1         0.0700
      13    H7      18.308039   18.529311   20.402765 H          1 MOL1         0.0700
@<TRIPOS>BOND
    1     1     2    1
    2     1     3    2
    3     1     4    1
    4     4     5    1
    5     4     6    1
    6     4     7    1
    7     7     8    1
    8     7     9    1
    9     7    10    1
   10    10    11    1
   11    10    12    1
   12    10    13    1
@<TRIPOS>SUBSTRUCTURE
       1 MOL1            1 RESIDUE      1      MOL     
@<SCITEGIC>MOL_PROPERTY
VConf Rank
SciTegic.value.IntegerValue
798

@<SCITEGIC>MOL_PROPERTY
Conf_Id
SciTegic.value.IntegerValue
1

@<SCITEGIC>MOL_PROPERTY
Delta U+W
SciTegic.value.DoubleValue
-1.339

@<SCITEGIC>MOL_PROPERTY
U+W
SciTegic.value.DoubleValue
-59.672

@<SCITEGIC>MOL_PROPERTY
Grad RMS
SciTegic.value.DoubleValue
0.000000

@<SCITEGIC>MOL_PROPERTY
U
SciTegic.value.DoubleValue
7.389

@<SCITEGIC>MOL_PROPERTY
W
SciTegic.value.DoubleValue
-67.061

@<SCITEGIC>MOL_PROPERTY
W(PB)
SciTegic.value.DoubleValue
-68.767

@<SCITEGIC>MOL_PROPERTY
W(SA)
SciTegic.value.DoubleValue
1.707

@<SCITEGIC>MOL_PROPERTY
Valence
SciTegic.value.DoubleValue
5.822

@<SCITEGIC>MOL_PROPERTY
Coulomb
SciTegic.value.DoubleValue
1.255

@<SCITEGIC>MOL_PROPERTY
VdW
SciTegic.value.DoubleValue
0.312

@<SCITEGIC>MOL_PROPERTY
VdW6
SciTegic.value.DoubleValue
-3.061

@<SCITEGIC>MOL_PROPERTY
VdW12
SciTegic.value.DoubleValue
3.372

@<SCITEGIC>MOL_PROPERTY
Bond
SciTegic.value.DoubleValue
0.059

@<SCITEGIC>MOL_PROPERTY
Angle
SciTegic.value.DoubleValue
2.241

@<SCITEGIC>MOL_PROPERTY
Pdih
SciTegic.value.DoubleValue
3.522

@<SCITEGIC>MOL_PROPERTY
Idih
SciTegic.value.DoubleValue
0.000

@<SCITEGIC>MOL_PROPERTY
Tether
SciTegic.value.DoubleValue
0.000

@<TRIPOS>MOLECULE
guest-6_confgen4.mol2 : confsearch ligand conformer 799
          13          12           1
SMALL
USER_CHARGES
 
@<TRIPOS>ATOM
       1    C1      20.440787   20.434623   21.017546 C.2        1 MOL1         0.6021
       2    O1      20.791435   20.244396   19.869958 O.co2      1 MOL1        -0.6904
       3    O2      19.672023   21.316352   21.345358 O.co2      1 MOL1        -0.6904
       4    C2      21.026279   19.540005   22.107310 C.3        1 MOL1        -0.2102
       5    H1      20.875799   20.025767   23.079255 H          1 MOL1         0.0687
       6    H2      22.109224   19.490084   21.942617 H          1 MOL1         0.0687
       7    C3      20.441807   18.104340   22.131804 C.3        1 MOL1        -0.1974
       8    H3      20.560638   17.641991   21.141837 H          1 MOL1         0.0689
       9    H4      21.020097   17.492327   22.837420 H          1 MOL1         0.0689
      10    C4      18.955304   18.079029   22.543625 C.3        1 MOL1        -0.2987
      11    H5      18.339216   18.645986   21.833116 H          1 MOL1         0.0700
      12    H6      18.578712   17.048216   22.570059 H          1 MOL1         0.0700
      13    H7      18.816863   18.516893   23.540872 H          1 MOL1         0.0700
@<TRIPOS>BOND
    1     1     2    1
    2     1     3    2
    3     1     4    1
    4     4     5    1
    5     4     6    1
    6     4     7    1
    7     7     8    1
    8     7     9    1
    9     7    10    1
   10    10    11    1
   11    10    12    1
   12    10    13    1
@<TRIPOS>SUBSTRUCTURE
       1 MOL1            1 RESIDUE      1      MOL     
@<SCITEGIC>MOL_PROPERTY
VConf Rank
SciTegic.value.IntegerValue
799

@<SCITEGIC>MOL_PROPERTY
Conf_Id
SciTegic.value.IntegerValue
4

@<SCITEGIC>MOL_PROPERTY
Delta U+W
SciTegic.value.DoubleValue
0.281

@<SCITEGIC>MOL_PROPERTY
U+W
SciTegic.value.DoubleValue
-58.051

@<SCITEGIC>MOL_PROPERTY
Grad RMS
SciTegic.value.DoubleValue
0.000000

@<SCITEGIC>MOL_PROPERTY
U
SciTegic.value.DoubleValue
9.781

@<SCITEGIC>MOL_PROPERTY
W
SciTegic.value.DoubleValue
-67.832

@<SCITEGIC>MOL_PROPERTY
W(PB)
SciTegic.value.DoubleValue
-69.535

@<SCITEGIC>MOL_PROPERTY
W(SA)
SciTegic.value.DoubleValue
1.703

@<SCITEGIC>MOL_PROPERTY
Valence
SciTegic.value.DoubleValue
6.123

@<SCITEGIC>MOL_PROPERTY
Coulomb
SciTegic.value.DoubleValue
3.449

@<SCITEGIC>MOL_PROPERTY
VdW
SciTegic.value.DoubleValue
0.209

@<SCITEGIC>MOL_PROPERTY
VdW6
SciTegic.value.DoubleValue
-3.762

@<SCITEGIC>MOL_PROPERTY
VdW12
SciTegic.value.DoubleValue
3.972

@<SCITEGIC>MOL_PROPERTY
Bond
SciTegic.value.DoubleValue
0.078

@<SCITEGIC>MOL_PROPERTY
Angle
SciTegic.value.DoubleValue
2.428

@<SCITEGIC>MOL_PROPERTY
Pdih
SciTegic.value.DoubleValue
3.616

@<SCITEGIC>MOL_PROPERTY
Idih
SciTegic.value.DoubleValue
0.002

@<SCITEGIC>MOL_PROPERTY
Tether
SciTegic.value.DoubleValue
0.000

@<TRIPOS>MOLECULE
guest-6_confgen4.mol2 : confsearch ligand conformer 800
          13          12           1
SMALL
USER_CHARGES
 
@<TRIPOS>ATOM
       1    C1      21.294405   19.851108   23.018710 C.2        1 MOL1         0.6021
       2    O1      20.827812   20.015578   24.128280 O.co2      1 MOL1        -0.6904
       3    O2      22.466757   19.605852   22.814902 O.co2      1 MOL1        -0.6904
       4    C2      20.368485   19.994944   21.813427 C.3        1 MOL1        -0.2102
       5    H1      20.872263   20.647095   21.090037 H          1 MOL1         0.0687
       6    H2      19.457642   20.517619   22.130386 H          1 MOL1         0.0687
       7    C3      20.003150   18.652253   21.130018 C.3        1 MOL1        -0.1974
       8    H3      19.465413   18.859114   20.194647 H          1 MOL1         0.0689
       9    H4      20.923029   18.117957   20.853844 H          1 MOL1         0.0689
      10    C4      19.127266   17.752675   22.026409 C.3        1 MOL1        -0.2987
      11    H5      18.191536   18.259629   22.296218 H          1 MOL1         0.0700
      12    H6      18.870782   16.820637   21.506201 H          1 MOL1         0.0700
      13    H7      19.652470   17.488715   22.953939 H          1 MOL1         0.0700
@<TRIPOS>BOND
    1     1     2    1
    2     1     3    2
    3     1     4    1
    4     4     5    1
    5     4     6    1
    6     4     7    1
    7     7     8    1
    8     7     9    1
    9     7    10    1
   10    10    11    1
   11    10    12    1
   12    10    13    1
@<TRIPOS>SUBSTRUCTURE
       1 MOL1            1 RESIDUE      1      MOL     
@<SCITEGIC>MOL_PROPERTY
VConf Rank
SciTegic.value.IntegerValue
800

@<SCITEGIC>MOL_PROPERTY
Conf_Id
SciTegic.value.IntegerValue
36

@<SCITEGIC>MOL_PROPERTY
Delta U+W
SciTegic.value.DoubleValue
0.272

@<SCITEGIC>MOL_PROPERTY
U+W
SciTegic.value.DoubleValue
-58.060

@<SCITEGIC>MOL_PROPERTY
Grad RMS
SciTegic.value.DoubleValue
0.000000

@<SCITEGIC>MOL_PROPERTY
U
SciTegic.value.DoubleValue
9.781

@<SCITEGIC>MOL_PROPERTY
W
SciTegic.value.DoubleValue
-67.841

@<SCITEGIC>MOL_PROPERTY
W(PB)
SciTegic.value.DoubleValue
-69.537

@<SCITEGIC>MOL_PROPERTY
W(SA)
SciTegic.value.DoubleValue
1.696

@<SCITEGIC>MOL_PROPERTY
Valence
SciTegic.value.DoubleValue
6.123

@<SCITEGIC>MOL_PROPERTY
Coulomb
SciTegic.value.DoubleValue
3.449

@<SCITEGIC>MOL_PROPERTY
VdW
SciTegic.value.DoubleValue
0.209

@<SCITEGIC>MOL_PROPERTY
VdW6
SciTegic.value.DoubleValue
-3.762

@<SCITEGIC>MOL_PROPERTY
VdW12
SciTegic.value.DoubleValue
3.972

@<SCITEGIC>MOL_PROPERTY
Bond
SciTegic.value.DoubleValue
0.078

@<SCITEGIC>MOL_PROPERTY
Angle
SciTegic.value.DoubleValue
2.428

@<SCITEGIC>MOL_PROPERTY
Pdih
SciTegic.value.DoubleValue
3.616

@<SCITEGIC>MOL_PROPERTY
Idih
SciTegic.value.DoubleValue
0.002

@<SCITEGIC>MOL_PROPERTY
Tether
SciTegic.value.DoubleValue
0.000

@<TRIPOS>MOLECULE
guest-6_confgen4.mol2 : confsearch ligand conformer 801
          13          12           1
SMALL
USER_CHARGES
 
@<TRIPOS>ATOM
       1    C1      19.715134   17.916896   23.631467 C.2        1 MOL1         0.6021
       2    O1      18.535478   18.142110   23.818599 O.co2      1 MOL1        -0.6904
       3    O2      20.385101   17.234750   24.380211 O.co2      1 MOL1        -0.6904
       4    C2      20.416877   18.505540   22.406013 C.3        1 MOL1        -0.2102
       5    H1      20.839203   17.668879   21.836823 H          1 MOL1         0.0687
       6    H2      21.260722   19.104903   22.767990 H          1 MOL1         0.0687
       7    C3      19.522146   19.369277   21.478990 C.3        1 MOL1        -0.1974
       8    H3      18.675568   18.767649   21.119679 H          1 MOL1         0.0689
       9    H4      19.097539   20.205405   22.052012 H          1 MOL1         0.0689
      10    C4      20.312956   19.918315   20.274411 C.3        1 MOL1        -0.2987
      11    H5      20.722171   19.100189   19.667174 H          1 MOL1         0.0700
      12    H6      19.663932   20.526282   19.630671 H          1 MOL1         0.0700
      13    H7      21.147564   20.549448   20.607010 H          1 MOL1         0.0700
@<TRIPOS>BOND
    1     1     2    1
    2     1     3    2
    3     1     4    1
    4     4     5    1
    5     4     6    1
    6     4     7    1
    7     7     8    1
    8     7     9    1
    9     7    10    1
   10    10    11    1
   11    10    12    1
   12    10    13    1
@<TRIPOS>SUBSTRUCTURE
       1 MOL1            1 RESIDUE      1      MOL     
@<SCITEGIC>MOL_PROPERTY
VConf Rank
SciTegic.value.IntegerValue
801

@<SCITEGIC>MOL_PROPERTY
Conf_Id
SciTegic.value.IntegerValue
0

@<SCITEGIC>MOL_PROPERTY
Delta U+W
SciTegic.value.DoubleValue
0.000

@<SCITEGIC>MOL_PROPERTY
U+W
SciTegic.value.DoubleValue
-58.332

@<SCITEGIC>MOL_PROPERTY
Grad RMS
SciTegic.value.DoubleValue
0.000000

@<SCITEGIC>MOL_PROPERTY
U
SciTegic.value.DoubleValue
8.390

@<SCITEGIC>MOL_PROPERTY
W
SciTegic.value.DoubleValue
-66.722

@<SCITEGIC>MOL_PROPERTY
W(PB)
SciTegic.value.DoubleValue
-68.455

@<SCITEGIC>MOL_PROPERTY
W(SA)
SciTegic.value.DoubleValue
1.733

@<SCITEGIC>MOL_PROPERTY
Valence
SciTegic.value.DoubleValue
6.333

@<SCITEGIC>MOL_PROPERTY
Coulomb
SciTegic.value.DoubleValue
1.215

@<SCITEGIC>MOL_PROPERTY
VdW
SciTegic.value.DoubleValue
0.842

@<SCITEGIC>MOL_PROPERTY
VdW6
SciTegic.value.DoubleValue
-3.344

@<SCITEGIC>MOL_PROPERTY
VdW12
SciTegic.value.DoubleValue
4.186

@<SCITEGIC>MOL_PROPERTY
Bond
SciTegic.value.DoubleValue
0.091

@<SCITEGIC>MOL_PROPERTY
Angle
SciTegic.value.DoubleValue
2.713

@<SCITEGIC>MOL_PROPERTY
Pdih
SciTegic.value.DoubleValue
3.529

@<SCITEGIC>MOL_PROPERTY
Idih
SciTegic.value.DoubleValue
0.000

@<SCITEGIC>MOL_PROPERTY
Tether
SciTegic.value.DoubleValue
0.000

@<TRIPOS>MOLECULE
guest-6_confgen4.mol2 : confsearch ligand conformer 802
          13          12           1
SMALL
USER_CHARGES
 
@<TRIPOS>ATOM
       1    C1      18.422470   20.196512   21.015738 C.2        1 MOL1         0.6021
       2    O1      18.381496   21.359934   21.362337 O.co2      1 MOL1        -0.6904
       3    O2      17.453798   19.579749   20.619962 O.co2      1 MOL1        -0.6904
       4    C2      19.758106   19.465413   21.099824 C.3        1 MOL1        -0.2102
       5    H1      20.557311   20.191015   20.905422 H          1 MOL1         0.0687
       6    H2      19.792281   18.722980   20.293198 H          1 MOL1         0.0687
       7    C3      19.984915   18.776872   22.467420 C.3        1 MOL1        -0.1974
       8    H3      19.938710   19.528217   23.268148 H          1 MOL1         0.0689
       9    H4      19.173618   18.059827   22.655745 H          1 MOL1         0.0689
      10    C4      21.342341   18.047564   22.520272 C.3        1 MOL1        -0.2987
      11    H5      21.484891   17.566100   23.496557 H          1 MOL1         0.0700
      12    H6      21.400894   17.270146   21.747130 H          1 MOL1         0.0700
      13    H7      22.171843   18.749808   22.364271 H          1 MOL1         0.0700
@<TRIPOS>BOND
    1     1     2    1
    2     1     3    2
    3     1     4    1
    4     4     5    1
    5     4     6    1
    6     4     7    1
    7     7     8    1
    8     7     9    1
    9     7    10    1
   10    10    11    1
   11    10    12    1
   12    10    13    1
@<TRIPOS>SUBSTRUCTURE
       1 MOL1            1 RESIDUE      1      MOL     
@<SCITEGIC>MOL_PROPERTY
VConf Rank
SciTegic.value.IntegerValue
802

@<SCITEGIC>MOL_PROPERTY
Conf_Id
SciTegic.value.IntegerValue
1

@<SCITEGIC>MOL_PROPERTY
Delta U+W
SciTegic.value.DoubleValue
-1.339

@<SCITEGIC>MOL_PROPERTY
U+W
SciTegic.value.DoubleValue
-59.672

@<SCITEGIC>MOL_PROPERTY
Grad RMS
SciTegic.value.DoubleValue
0.000000

@<SCITEGIC>MOL_PROPERTY
U
SciTegic.value.DoubleValue
7.389

@<SCITEGIC>MOL_PROPERTY
W
SciTegic.value.DoubleValue
-67.061

@<SCITEGIC>MOL_PROPERTY
W(PB)
SciTegic.value.DoubleValue
-68.767

@<SCITEGIC>MOL_PROPERTY
W(SA)
SciTegic.value.DoubleValue
1.707

@<SCITEGIC>MOL_PROPERTY
Valence
SciTegic.value.DoubleValue
5.822

@<SCITEGIC>MOL_PROPERTY
Coulomb
SciTegic.value.DoubleValue
1.255

@<SCITEGIC>MOL_PROPERTY
VdW
SciTegic.value.DoubleValue
0.312

@<SCITEGIC>MOL_PROPERTY
VdW6
SciTegic.value.DoubleValue
-3.061

@<SCITEGIC>MOL_PROPERTY
VdW12
SciTegic.value.DoubleValue
3.372

@<SCITEGIC>MOL_PROPERTY
Bond
SciTegic.value.DoubleValue
0.059

@<SCITEGIC>MOL_PROPERTY
Angle
SciTegic.value.DoubleValue
2.241

@<SCITEGIC>MOL_PROPERTY
Pdih
SciTegic.value.DoubleValue
3.522

@<SCITEGIC>MOL_PROPERTY
Idih
SciTegic.value.DoubleValue
0.000

@<SCITEGIC>MOL_PROPERTY
Tether
SciTegic.value.DoubleValue
0.000

@<TRIPOS>MOLECULE
guest-6_confgen4.mol2 : confsearch ligand conformer 803
          13          12           1
SMALL
USER_CHARGES
 
@<TRIPOS>ATOM
       1    C1      20.646446   17.926597   23.359046 C.2        1 MOL1         0.6021
       2    O1      20.169774   18.190738   24.444915 O.co2      1 MOL1        -0.6904
       3    O2      20.818422   16.791578   22.961478 O.co2      1 MOL1        -0.6904
       4    C2      21.084450   19.083254   22.464045 C.3        1 MOL1        -0.2102
       5    H1      21.765249   18.695301   21.696391 H          1 MOL1         0.0687
       6    H2      21.667643   19.774129   23.084499 H          1 MOL1         0.0687
       7    C3      19.912612   19.850692   21.799835 C.3        1 MOL1        -0.1974
       8    H3      19.215290   20.199250   22.574543 H          1 MOL1         0.0689
       9    H4      20.305918   20.747817   21.302494 H          1 MOL1         0.0689
      10    C4      19.155580   18.992168   20.765540 C.3        1 MOL1        -0.2987
      11    H5      18.710044   18.106662   21.237985 H          1 MOL1         0.0700
      12    H6      18.346486   19.570457   20.300733 H          1 MOL1         0.0700
      13    H7      19.830270   18.651367   19.969273 H          1 MOL1         0.0700
@<TRIPOS>BOND
    1     1     2    1
    2     1     3    2
    3     1     4    1
    4     4     5    1
    5     4     6    1
    6     4     7    1
    7     7     8    1
    8     7     9    1
    9     7    10    1
   10    10    11    1
   11    10    12    1
   12    10    13    1
@<TRIPOS>SUBSTRUCTURE
       1 MOL1            1 RESIDUE      1      MOL     
@<SCITEGIC>MOL_PROPERTY
VConf Rank
SciTegic.value.IntegerValue
803

@<SCITEGIC>MOL_PROPERTY
Conf_Id
SciTegic.value.IntegerValue
4

@<SCITEGIC>MOL_PROPERTY
Delta U+W
SciTegic.value.DoubleValue
0.281

@<SCITEGIC>MOL_PROPERTY
U+W
SciTegic.value.DoubleValue
-58.051

@<SCITEGIC>MOL_PROPERTY
Grad RMS
SciTegic.value.DoubleValue
0.000000

@<SCITEGIC>MOL_PROPERTY
U
SciTegic.value.DoubleValue
9.781

@<SCITEGIC>MOL_PROPERTY
W
SciTegic.value.DoubleValue
-67.832

@<SCITEGIC>MOL_PROPERTY
W(PB)
SciTegic.value.DoubleValue
-69.535

@<SCITEGIC>MOL_PROPERTY
W(SA)
SciTegic.value.DoubleValue
1.703

@<SCITEGIC>MOL_PROPERTY
Valence
SciTegic.value.DoubleValue
6.123

@<SCITEGIC>MOL_PROPERTY
Coulomb
SciTegic.value.DoubleValue
3.449

@<SCITEGIC>MOL_PROPERTY
VdW
SciTegic.value.DoubleValue
0.209

@<SCITEGIC>MOL_PROPERTY
VdW6
SciTegic.value.DoubleValue
-3.762

@<SCITEGIC>MOL_PROPERTY
VdW12
SciTegic.value.DoubleValue
3.972

@<SCITEGIC>MOL_PROPERTY
Bond
SciTegic.value.DoubleValue
0.078

@<SCITEGIC>MOL_PROPERTY
Angle
SciTegic.value.DoubleValue
2.428

@<SCITEGIC>MOL_PROPERTY
Pdih
SciTegic.value.DoubleValue
3.616

@<SCITEGIC>MOL_PROPERTY
Idih
SciTegic.value.DoubleValue
0.002

@<SCITEGIC>MOL_PROPERTY
Tether
SciTegic.value.DoubleValue
0.000

@<TRIPOS>MOLECULE
guest-6_confgen4.mol2 : confsearch ligand conformer 804
          13          12           1
SMALL
USER_CHARGES
 
@<TRIPOS>ATOM
       1    C1      20.632607   18.200614   20.461716 C.2        1 MOL1         0.6021
       2    O1      19.654074   17.906537   19.804527 O.co2      1 MOL1        -0.6904
       3    O2      21.664062   18.620368   19.975913 O.co2      1 MOL1        -0.6904
       4    C2      20.578381   17.999333   21.974088 C.3        1 MOL1        -0.2102
       5    H1      21.492416   17.468756   22.266347 H          1 MOL1         0.0687
       6    H2      19.737601   17.335593   22.210361 H          1 MOL1         0.0687
       7    C3      20.464215   19.315209   22.785736 C.3        1 MOL1        -0.1974
       8    H3      20.583491   19.090386   23.854427 H          1 MOL1         0.0689
       9    H4      21.287682   19.989291   22.511079 H          1 MOL1         0.0689
      10    C4      19.113206   20.027582   22.568416 C.3        1 MOL1        -0.2987
      11    H5      18.276326   19.378662   22.858118 H          1 MOL1         0.0700
      12    H6      19.057360   20.943314   23.171251 H          1 MOL1         0.0700
      13    H7      18.979589   20.307529   21.515039 H          1 MOL1         0.0700
@<TRIPOS>BOND
    1     1     2    1
    2     1     3    2
    3     1     4    1
    4     4     5    1
    5     4     6    1
    6     4     7    1
    7     7     8    1
    8     7     9    1
    9     7    10    1
   10    10    11    1
   11    10    12    1
   12    10    13    1
@<TRIPOS>SUBSTRUCTURE
       1 MOL1            1 RESIDUE      1      MOL     
@<SCITEGIC>MOL_PROPERTY
VConf Rank
SciTegic.value.IntegerValue
804

@<SCITEGIC>MOL_PROPERTY
Conf_Id
SciTegic.value.IntegerValue
36

@<SCITEGIC>MOL_PROPERTY
Delta U+W
SciTegic.value.DoubleValue
0.272

@<SCITEGIC>MOL_PROPERTY
U+W
SciTegic.value.DoubleValue
-58.060

@<SCITEGIC>MOL_PROPERTY
Grad RMS
SciTegic.value.DoubleValue
0.000000

@<SCITEGIC>MOL_PROPERTY
U
SciTegic.value.DoubleValue
9.781

@<SCITEGIC>MOL_PROPERTY
W
SciTegic.value.DoubleValue
-67.841

@<SCITEGIC>MOL_PROPERTY
W(PB)
SciTegic.value.DoubleValue
-69.537

@<SCITEGIC>MOL_PROPERTY
W(SA)
SciTegic.value.DoubleValue
1.696

@<SCITEGIC>MOL_PROPERTY
Valence
SciTegic.value.DoubleValue
6.123

@<SCITEGIC>MOL_PROPERTY
Coulomb
SciTegic.value.DoubleValue
3.449

@<SCITEGIC>MOL_PROPERTY
VdW
SciTegic.value.DoubleValue
0.209

@<SCITEGIC>MOL_PROPERTY
VdW6
SciTegic.value.DoubleValue
-3.762

@<SCITEGIC>MOL_PROPERTY
VdW12
SciTegic.value.DoubleValue
3.972

@<SCITEGIC>MOL_PROPERTY
Bond
SciTegic.value.DoubleValue
0.078

@<SCITEGIC>MOL_PROPERTY
Angle
SciTegic.value.DoubleValue
2.428

@<SCITEGIC>MOL_PROPERTY
Pdih
SciTegic.value.DoubleValue
3.616

@<SCITEGIC>MOL_PROPERTY
Idih
SciTegic.value.DoubleValue
0.002

@<SCITEGIC>MOL_PROPERTY
Tether
SciTegic.value.DoubleValue
0.000

@<TRIPOS>MOLECULE
guest-6_confgen4.mol2 : confsearch ligand conformer 805
          13          12           1
SMALL
USER_CHARGES
 
@<TRIPOS>ATOM
       1    C1      20.404838   20.765519   20.686342 C.2        1 MOL1         0.6021
       2    O1      21.619799   20.744130   20.659120 O.co2      1 MOL1        -0.6904
       3    O2      19.746648   21.636814   20.154904 O.co2      1 MOL1        -0.6904
       4    C2      19.640707   19.658719   21.415574 C.3        1 MOL1        -0.2102
       5    H1      18.963440   19.194482   20.688848 H          1 MOL1         0.0687
       6    H2      19.013737   20.139517   22.175890 H          1 MOL1         0.0687
       7    C3      20.522427   18.568382   22.078668 C.3        1 MOL1        -0.1974
       8    H3      21.152017   18.089818   21.315550 H          1 MOL1         0.0689
       9    H4      21.202436   19.036026   22.804374 H          1 MOL1         0.0689
      10    C4      19.667884   17.498366   22.787652 C.3        1 MOL1        -0.2987
      11    H5      19.000564   16.993873   22.076531 H          1 MOL1         0.0700
      12    H6      20.308545   16.736298   23.250322 H          1 MOL1         0.0700
      13    H7      19.051349   17.947702   23.577276 H          1 MOL1         0.0700
@<TRIPOS>BOND
    1     1     2    1
    2     1     3    2
    3     1     4    1
    4     4     5    1
    5     4     6    1
    6     4     7    1
    7     7     8    1
    8     7     9    1
    9     7    10    1
   10    10    11    1
   11    10    12    1
   12    10    13    1
@<TRIPOS>SUBSTRUCTURE
       1 MOL1            1 RESIDUE      1      MOL     
@<SCITEGIC>MOL_PROPERTY
VConf Rank
SciTegic.value.IntegerValue
805

@<SCITEGIC>MOL_PROPERTY
Conf_Id
SciTegic.value.IntegerValue
0

@<SCITEGIC>MOL_PROPERTY
Delta U+W
SciTegic.value.DoubleValue
0.000

@<SCITEGIC>MOL_PROPERTY
U+W
SciTegic.value.DoubleValue
-58.332

@<SCITEGIC>MOL_PROPERTY
Grad RMS
SciTegic.value.DoubleValue
0.000000

@<SCITEGIC>MOL_PROPERTY
U
SciTegic.value.DoubleValue
8.390

@<SCITEGIC>MOL_PROPERTY
W
SciTegic.value.DoubleValue
-66.722

@<SCITEGIC>MOL_PROPERTY
W(PB)
SciTegic.value.DoubleValue
-68.455

@<SCITEGIC>MOL_PROPERTY
W(SA)
SciTegic.value.DoubleValue
1.733

@<SCITEGIC>MOL_PROPERTY
Valence
SciTegic.value.DoubleValue
6.333

@<SCITEGIC>MOL_PROPERTY
Coulomb
SciTegic.value.DoubleValue
1.215

@<SCITEGIC>MOL_PROPERTY
VdW
SciTegic.value.DoubleValue
0.842

@<SCITEGIC>MOL_PROPERTY
VdW6
SciTegic.value.DoubleValue
-3.344

@<SCITEGIC>MOL_PROPERTY
VdW12
SciTegic.value.DoubleValue
4.186

@<SCITEGIC>MOL_PROPERTY
Bond
SciTegic.value.DoubleValue
0.091

@<SCITEGIC>MOL_PROPERTY
Angle
SciTegic.value.DoubleValue
2.713

@<SCITEGIC>MOL_PROPERTY
Pdih
SciTegic.value.DoubleValue
3.529

@<SCITEGIC>MOL_PROPERTY
Idih
SciTegic.value.DoubleValue
0.000

@<SCITEGIC>MOL_PROPERTY
Tether
SciTegic.value.DoubleValue
0.000

@<TRIPOS>MOLECULE
guest-6_confgen4.mol2 : confsearch ligand conformer 806
          13          12           1
SMALL
USER_CHARGES
 
@<TRIPOS>ATOM
       1    C1      18.314750   18.330770   22.905915 C.2        1 MOL1         0.6021
       2    O1      17.645241   17.482313   22.351624 O.co2      1 MOL1        -0.6904
       3    O2      17.882912   19.068283   23.769021 O.co2      1 MOL1        -0.6904
       4    C2      19.770804   18.491340   22.482098 C.3        1 MOL1        -0.2102
       5    H1      20.151682   17.505495   22.188736 H          1 MOL1         0.0687
       6    H2      20.347681   18.813362   23.357617 H          1 MOL1         0.0687
       7    C3      19.954816   19.500063   21.322587 C.3        1 MOL1        -0.1974
       8    H3      19.364977   19.172711   20.454974 H          1 MOL1         0.0689
       9    H4      19.561136   20.480837   21.624119 H          1 MOL1         0.0689
      10    C4      21.436092   19.639503   20.918031 C.3        1 MOL1        -0.2987
      11    H5      21.546300   20.358178   20.095460 H          1 MOL1         0.0700
      12    H6      22.041986   19.994715   21.761993 H          1 MOL1         0.0700
      13    H7      21.844298   18.676567   20.583847 H          1 MOL1         0.0700
@<TRIPOS>BOND
    1     1     2    1
    2     1     3    2
    3     1     4    1
    4     4     5    1
    5     4     6    1
    6     4     7    1
    7     7     8    1
    8     7     9    1
    9     7    10    1
   10    10    11    1
   11    10    12    1
   12    10    13    1
@<TRIPOS>SUBSTRUCTURE
       1 MOL1            1 RESIDUE      1      MOL     
@<SCITEGIC>MOL_PROPERTY
VConf Rank
SciTegic.value.IntegerValue
806

@<SCITEGIC>MOL_PROPERTY
Conf_Id
SciTegic.value.IntegerValue
1

@<SCITEGIC>MOL_PROPERTY
Delta U+W
SciTegic.value.DoubleValue
-1.339

@<SCITEGIC>MOL_PROPERTY
U+W
SciTegic.value.DoubleValue
-59.672

@<SCITEGIC>MOL_PROPERTY
Grad RMS
SciTegic.value.DoubleValue
0.000000

@<SCITEGIC>MOL_PROPERTY
U
SciTegic.value.DoubleValue
7.389

@<SCITEGIC>MOL_PROPERTY
W
SciTegic.value.DoubleValue
-67.061

@<SCITEGIC>MOL_PROPERTY
W(PB)
SciTegic.value.DoubleValue
-68.767

@<SCITEGIC>MOL_PROPERTY
W(SA)
SciTegic.value.DoubleValue
1.707

@<SCITEGIC>MOL_PROPERTY
Valence
SciTegic.value.DoubleValue
5.822

@<SCITEGIC>MOL_PROPERTY
Coulomb
SciTegic.value.DoubleValue
1.255

@<SCITEGIC>MOL_PROPERTY
VdW
SciTegic.value.DoubleValue
0.312

@<SCITEGIC>MOL_PROPERTY
VdW6
SciTegic.value.DoubleValue
-3.061

@<SCITEGIC>MOL_PROPERTY
VdW12
SciTegic.value.DoubleValue
3.372

@<SCITEGIC>MOL_PROPERTY
Bond
SciTegic.value.DoubleValue
0.059

@<SCITEGIC>MOL_PROPERTY
Angle
SciTegic.value.DoubleValue
2.241

@<SCITEGIC>MOL_PROPERTY
Pdih
SciTegic.value.DoubleValue
3.522

@<SCITEGIC>MOL_PROPERTY
Idih
SciTegic.value.DoubleValue
0.000

@<SCITEGIC>MOL_PROPERTY
Tether
SciTegic.value.DoubleValue
0.000

@<TRIPOS>MOLECULE
guest-6_confgen4.mol2 : confsearch ligand conformer 807
          13          12           1
SMALL
USER_CHARGES
 
@<TRIPOS>ATOM
       1    C1      21.374763   19.155098   20.726419 C.2        1 MOL1         0.6021
       2    O1      22.333819   18.413726   20.808144 O.co2      1 MOL1        -0.6904
       3    O2      20.844435   19.450319   19.674041 O.co2      1 MOL1        -0.6904
       4    C2      20.832011   19.775060   22.011641 C.3        1 MOL1        -0.2102
       5    H1      20.206204   20.636873   21.749092 H          1 MOL1         0.0687
       6    H2      21.688843   20.165481   22.573599 H          1 MOL1         0.0687
       7    C3      20.035680   18.789332   22.904690 C.3        1 MOL1        -0.1974
       8    H3      20.657258   17.910754   23.127544 H          1 MOL1         0.0689
       9    H4      19.815669   19.272435   23.866500 H          1 MOL1         0.0689
      10    C4      18.712070   18.339230   22.252468 C.3        1 MOL1        -0.2987
      11    H5      18.897188   17.811577   21.307406 H          1 MOL1         0.0700
      12    H6      18.164661   17.658975   22.917819 H          1 MOL1         0.0700
      13    H7      18.065584   19.201149   22.041413 H          1 MOL1         0.0700
@<TRIPOS>BOND
    1     1     2    1
    2     1     3    2
    3     1     4    1
    4     4     5    1
    5     4     6    1
    6     4     7    1
    7     7     8    1
    8     7     9    1
    9     7    10    1
   10    10    11    1
   11    10    12    1
   12    10    13    1
@<TRIPOS>SUBSTRUCTURE
       1 MOL1            1 RESIDUE      1      MOL     
@<SCITEGIC>MOL_PROPERTY
VConf Rank
SciTegic.value.IntegerValue
807

@<SCITEGIC>MOL_PROPERTY
Conf_Id
SciTegic.value.IntegerValue
4

@<SCITEGIC>MOL_PROPERTY
Delta U+W
SciTegic.value.DoubleValue
0.281

@<SCITEGIC>MOL_PROPERTY
U+W
SciTegic.value.DoubleValue
-58.051

@<SCITEGIC>MOL_PROPERTY
Grad RMS
SciTegic.value.DoubleValue
0.000000

@<SCITEGIC>MOL_PROPERTY
U
SciTegic.value.DoubleValue
9.781

@<SCITEGIC>MOL_PROPERTY
W
SciTegic.value.DoubleValue
-67.832

@<SCITEGIC>MOL_PROPERTY
W(PB)
SciTegic.value.DoubleValue
-69.535

@<SCITEGIC>MOL_PROPERTY
W(SA)
SciTegic.value.DoubleValue
1.703

@<SCITEGIC>MOL_PROPERTY
Valence
SciTegic.value.DoubleValue
6.123

@<SCITEGIC>MOL_PROPERTY
Coulomb
SciTegic.value.DoubleValue
3.449

@<SCITEGIC>MOL_PROPERTY
VdW
SciTegic.value.DoubleValue
0.209

@<SCITEGIC>MOL_PROPERTY
VdW6
SciTegic.value.DoubleValue
-3.762

@<SCITEGIC>MOL_PROPERTY
VdW12
SciTegic.value.DoubleValue
3.972

@<SCITEGIC>MOL_PROPERTY
Bond
SciTegic.value.DoubleValue
0.078

@<SCITEGIC>MOL_PROPERTY
Angle
SciTegic.value.DoubleValue
2.428

@<SCITEGIC>MOL_PROPERTY
Pdih
SciTegic.value.DoubleValue
3.616

@<SCITEGIC>MOL_PROPERTY
Idih
SciTegic.value.DoubleValue
0.002

@<SCITEGIC>MOL_PROPERTY
Tether
SciTegic.value.DoubleValue
0.000

@<TRIPOS>MOLECULE
guest-6_confgen4.mol2 : confsearch ligand conformer 808
          13          12           1
SMALL
USER_CHARGES
 
@<TRIPOS>ATOM
       1    C1      20.951063   19.722869   20.601987 C.2        1 MOL1         0.6021
       2    O1      21.177998   18.879268   19.757745 O.co2      1 MOL1        -0.6904
       3    O2      20.624045   20.862920   20.338471 O.co2      1 MOL1        -0.6904
       4    C2      21.119626   19.343157   22.071044 C.3        1 MOL1        -0.2102
       5    H1      21.716102   20.131139   22.546110 H          1 MOL1         0.0687
       6    H2      21.709618   18.420271   22.130021 H          1 MOL1         0.0687
       7    C3      19.784186   19.173127   22.839828 C.3        1 MOL1        -0.1974
       8    H3      19.998205   19.051740   23.910497 H          1 MOL1         0.0689
       9    H4      19.183208   20.087853   22.739708 H          1 MOL1         0.0689
      10    C4      18.970237   17.958496   22.347807 C.3        1 MOL1        -0.2987
      11    H5      19.544791   17.029666   22.459850 H          1 MOL1         0.0700
      12    H6      18.042080   17.855394   22.924861 H          1 MOL1         0.0700
      13    H7      18.699853   18.067275   21.289088 H          1 MOL1         0.0700
@<TRIPOS>BOND
    1     1     2    1
    2     1     3    2
    3     1     4    1
    4     4     5    1
    5     4     6    1
    6     4     7    1
    7     7     8    1
    8     7     9    1
    9     7    10    1
   10    10    11    1
   11    10    12    1
   12    10    13    1
@<TRIPOS>SUBSTRUCTURE
       1 MOL1            1 RESIDUE      1      MOL     
@<SCITEGIC>MOL_PROPERTY
VConf Rank
SciTegic.value.IntegerValue
808

@<SCITEGIC>MOL_PROPERTY
Conf_Id
SciTegic.value.IntegerValue
36

@<SCITEGIC>MOL_PROPERTY
Delta U+W
SciTegic.value.DoubleValue
0.272

@<SCITEGIC>MOL_PROPERTY
U+W
SciTegic.value.DoubleValue
-58.060

@<SCITEGIC>MOL_PROPERTY
Grad RMS
SciTegic.value.DoubleValue
0.000000

@<SCITEGIC>MOL_PROPERTY
U
SciTegic.value.DoubleValue
9.781

@<SCITEGIC>MOL_PROPERTY
W
SciTegic.value.DoubleValue
-67.841

@<SCITEGIC>MOL_PROPERTY
W(PB)
SciTegic.value.DoubleValue
-69.537

@<SCITEGIC>MOL_PROPERTY
W(SA)
SciTegic.value.DoubleValue
1.696

@<SCITEGIC>MOL_PROPERTY
Valence
SciTegic.value.DoubleValue
6.123

@<SCITEGIC>MOL_PROPERTY
Coulomb
SciTegic.value.DoubleValue
3.449

@<SCITEGIC>MOL_PROPERTY
VdW
SciTegic.value.DoubleValue
0.209

@<SCITEGIC>MOL_PROPERTY
VdW6
SciTegic.value.DoubleValue
-3.762

@<SCITEGIC>MOL_PROPERTY
VdW12
SciTegic.value.DoubleValue
3.972

@<SCITEGIC>MOL_PROPERTY
Bond
SciTegic.value.DoubleValue
0.078

@<SCITEGIC>MOL_PROPERTY
Angle
SciTegic.value.DoubleValue
2.428

@<SCITEGIC>MOL_PROPERTY
Pdih
SciTegic.value.DoubleValue
3.616

@<SCITEGIC>MOL_PROPERTY
Idih
SciTegic.value.DoubleValue
0.002

@<SCITEGIC>MOL_PROPERTY
Tether
SciTegic.value.DoubleValue
0.000

@<TRIPOS>MOLECULE
guest-6_confgen4.mol2 : confsearch ligand conformer 809
          13          12           1
SMALL
USER_CHARGES
 
@<TRIPOS>ATOM
       1    C1      21.040625   17.478869   20.727581 C.2        1 MOL1         0.6021
       2    O1      20.104887   16.977647   20.135549 O.co2      1 MOL1        -0.6904
       3    O2      22.184321   17.088311   20.608333 O.co2      1 MOL1        -0.6904
       4    C2      20.799215   18.656772   21.673597 C.3        1 MOL1        -0.2102
       5    H1      21.421139   19.489859   21.325005 H          1 MOL1         0.0687
       6    H2      21.176916   18.366612   22.661264 H          1 MOL1         0.0687
       7    C3      19.324034   19.120774   21.794011 C.3        1 MOL1        -0.1974
       8    H3      18.946565   19.408328   20.802757 H          1 MOL1         0.0689
       9    H4      18.702021   18.283673   22.140590 H          1 MOL1         0.0689
      10    C4      19.178287   20.308858   22.766147 C.3        1 MOL1        -0.2987
      11    H5      19.767042   21.170434   22.424713 H          1 MOL1         0.0700
      12    H6      18.128750   20.622759   22.838228 H          1 MOL1         0.0700
      13    H7      19.520590   20.036750   23.773276 H          1 MOL1         0.0700
@<TRIPOS>BOND
    1     1     2    1
    2     1     3    2
    3     1     4    1
    4     4     5    1
    5     4     6    1
    6     4     7    1
    7     7     8    1
    8     7     9    1
    9     7    10    1
   10    10    11    1
   11    10    12    1
   12    10    13    1
@<TRIPOS>SUBSTRUCTURE
       1 MOL1            1 RESIDUE      1      MOL     
@<SCITEGIC>MOL_PROPERTY
VConf Rank
SciTegic.value.IntegerValue
809

@<SCITEGIC>MOL_PROPERTY
Conf_Id
SciTegic.value.IntegerValue
0

@<SCITEGIC>MOL_PROPERTY
Delta U+W
SciTegic.value.DoubleValue
0.000

@<SCITEGIC>MOL_PROPERTY
U+W
SciTegic.value.DoubleValue
-58.332

@<SCITEGIC>MOL_PROPERTY
Grad RMS
SciTegic.value.DoubleValue
0.000000

@<SCITEGIC>MOL_PROPERTY
U
SciTegic.value.DoubleValue
8.390

@<SCITEGIC>MOL_PROPERTY
W
SciTegic.value.DoubleValue
-66.722

@<SCITEGIC>MOL_PROPERTY
W(PB)
SciTegic.value.DoubleValue
-68.455

@<SCITEGIC>MOL_PROPERTY
W(SA)
SciTegic.value.DoubleValue
1.733

@<SCITEGIC>MOL_PROPERTY
Valence
SciTegic.value.DoubleValue
6.333

@<SCITEGIC>MOL_PROPERTY
Coulomb
SciTegic.value.DoubleValue
1.215

@<SCITEGIC>MOL_PROPERTY
VdW
SciTegic.value.DoubleValue
0.842

@<SCITEGIC>MOL_PROPERTY
VdW6
SciTegic.value.DoubleValue
-3.344

@<SCITEGIC>MOL_PROPERTY
VdW12
SciTegic.value.DoubleValue
4.186

@<SCITEGIC>MOL_PROPERTY
Bond
SciTegic.value.DoubleValue
0.091

@<SCITEGIC>MOL_PROPERTY
Angle
SciTegic.value.DoubleValue
2.713

@<SCITEGIC>MOL_PROPERTY
Pdih
SciTegic.value.DoubleValue
3.529

@<SCITEGIC>MOL_PROPERTY
Idih
SciTegic.value.DoubleValue
0.000

@<SCITEGIC>MOL_PROPERTY
Tether
SciTegic.value.DoubleValue
0.000

@<TRIPOS>MOLECULE
guest-6_confgen4.mol2 : confsearch ligand conformer 810
          13          12           1
SMALL
USER_CHARGES
 
@<TRIPOS>ATOM
       1    C1      20.917279   20.686142   20.889626 C.2        1 MOL1         0.6021
       2    O1      21.602929   20.429695   19.920358 O.co2      1 MOL1        -0.6904
       3    O2      21.067609   21.678017   21.574422 O.co2      1 MOL1        -0.6904
       4    C2      19.820888   19.700269   21.278831 C.3        1 MOL1        -0.2102
       5    H1      19.436474   19.237621   20.361660 H          1 MOL1         0.0687
       6    H2      18.995007   20.267070   21.725682 H          1 MOL1         0.0687
       7    C3      20.310650   18.608848   22.261064 C.3        1 MOL1        -0.1974
       8    H3      21.143907   18.054429   21.807056 H          1 MOL1         0.0689
       9    H4      20.702232   19.084062   23.171371 H          1 MOL1         0.0689
      10    C4      19.180131   17.629148   22.634433 C.3        1 MOL1        -0.2987
      11    H5      19.546251   16.863476   23.330827 H          1 MOL1         0.0700
      12    H6      18.347109   18.156454   23.117733 H          1 MOL1         0.0700
      13    H7      18.792209   17.118904   21.742960 H          1 MOL1         0.0700
@<TRIPOS>BOND
    1     1     2    1
    2     1     3    2
    3     1     4    1
    4     4     5    1
    5     4     6    1
    6     4     7    1
    7     7     8    1
    8     7     9    1
    9     7    10    1
   10    10    11    1
   11    10    12    1
   12    10    13    1
@<TRIPOS>SUBSTRUCTURE
       1 MOL1            1 RESIDUE      1      MOL     
@<SCITEGIC>MOL_PROPERTY
VConf Rank
SciTegic.value.IntegerValue
810

@<SCITEGIC>MOL_PROPERTY
Conf_Id
SciTegic.value.IntegerValue
1

@<SCITEGIC>MOL_PROPERTY
Delta U+W
SciTegic.value.DoubleValue
-1.339

@<SCITEGIC>MOL_PROPERTY
U+W
SciTegic.value.DoubleValue
-59.672

@<SCITEGIC>MOL_PROPERTY
Grad RMS
SciTegic.value.DoubleValue
0.000000

@<SCITEGIC>MOL_PROPERTY
U
SciTegic.value.DoubleValue
7.389

@<SCITEGIC>MOL_PROPERTY
W
SciTegic.value.DoubleValue
-67.061

@<SCITEGIC>MOL_PROPERTY
W(PB)
SciTegic.value.DoubleValue
-68.767

@<SCITEGIC>MOL_PROPERTY
W(SA)
SciTegic.value.DoubleValue
1.707

@<SCITEGIC>MOL_PROPERTY
Valence
SciTegic.value.DoubleValue
5.822

@<SCITEGIC>MOL_PROPERTY
Coulomb
SciTegic.value.DoubleValue
1.255

@<SCITEGIC>MOL_PROPERTY
VdW
SciTegic.value.DoubleValue
0.312

@<SCITEGIC>MOL_PROPERTY
VdW6
SciTegic.value.DoubleValue
-3.061

@<SCITEGIC>MOL_PROPERTY
VdW12
SciTegic.value.DoubleValue
3.372

@<SCITEGIC>MOL_PROPERTY
Bond
SciTegic.value.DoubleValue
0.059

@<SCITEGIC>MOL_PROPERTY
Angle
SciTegic.value.DoubleValue
2.241

@<SCITEGIC>MOL_PROPERTY
Pdih
SciTegic.value.DoubleValue
3.522

@<SCITEGIC>MOL_PROPERTY
Idih
SciTegic.value.DoubleValue
0.000

@<SCITEGIC>MOL_PROPERTY
Tether
SciTegic.value.DoubleValue
0.000

@<TRIPOS>MOLECULE
guest-6_confgen4.mol2 : confsearch ligand conformer 811
          13          12           1
SMALL
USER_CHARGES
 
@<TRIPOS>ATOM
       1    C1      20.272253   17.526291   23.051258 C.2        1 MOL1         0.6021
       2    O1      20.082940   17.711319   24.237016 O.co2      1 MOL1        -0.6904
       3    O2      19.877403   16.543936   22.455458 O.co2      1 MOL1        -0.6904
       4    C2      21.079800   18.567140   22.279747 C.3        1 MOL1        -0.2102
       5    H1      21.429808   18.116584   21.342847 H          1 MOL1         0.0687
       6    H2      21.972504   18.794932   22.874371 H          1 MOL1         0.0687
       7    C3      20.307760   19.878914   21.985569 C.3        1 MOL1        -0.1974
       8    H3      19.926298   20.299975   22.926376 H          1 MOL1         0.0689
       9    H4      21.002957   20.619593   21.567275 H          1 MOL1         0.0689
      10    C4      19.141331   19.668673   20.998063 C.3        1 MOL1        -0.2987
      11    H5      18.402184   18.965481   21.404276 H          1 MOL1         0.0700
      12    H6      18.629145   20.618481   20.796502 H          1 MOL1         0.0700
      13    H7      19.503800   19.268689   20.042018 H          1 MOL1         0.0700
@<TRIPOS>BOND
    1     1     2    1
    2     1     3    2
    3     1     4    1
    4     4     5    1
    5     4     6    1
    6     4     7    1
    7     7     8    1
    8     7     9    1
    9     7    10    1
   10    10    11    1
   11    10    12    1
   12    10    13    1
@<TRIPOS>SUBSTRUCTURE
       1 MOL1            1 RESIDUE      1      MOL     
@<SCITEGIC>MOL_PROPERTY
VConf Rank
SciTegic.value.IntegerValue
811

@<SCITEGIC>MOL_PROPERTY
Conf_Id
SciTegic.value.IntegerValue
4

@<SCITEGIC>MOL_PROPERTY
Delta U+W
SciTegic.value.DoubleValue
0.281

@<SCITEGIC>MOL_PROPERTY
U+W
SciTegic.value.DoubleValue
-58.051

@<SCITEGIC>MOL_PROPERTY
Grad RMS
SciTegic.value.DoubleValue
0.000000

@<SCITEGIC>MOL_PROPERTY
U
SciTegic.value.DoubleValue
9.781

@<SCITEGIC>MOL_PROPERTY
W
SciTegic.value.DoubleValue
-67.832

@<SCITEGIC>MOL_PROPERTY
W(PB)
SciTegic.value.DoubleValue
-69.535

@<SCITEGIC>MOL_PROPERTY
W(SA)
SciTegic.value.DoubleValue
1.703

@<SCITEGIC>MOL_PROPERTY
Valence
SciTegic.value.DoubleValue
6.123

@<SCITEGIC>MOL_PROPERTY
Coulomb
SciTegic.value.DoubleValue
3.449

@<SCITEGIC>MOL_PROPERTY
VdW
SciTegic.value.DoubleValue
0.209

@<SCITEGIC>MOL_PROPERTY
VdW6
SciTegic.value.DoubleValue
-3.762

@<SCITEGIC>MOL_PROPERTY
VdW12
SciTegic.value.DoubleValue
3.972

@<SCITEGIC>MOL_PROPERTY
Bond
SciTegic.value.DoubleValue
0.078

@<SCITEGIC>MOL_PROPERTY
Angle
SciTegic.value.DoubleValue
2.428

@<SCITEGIC>MOL_PROPERTY
Pdih
SciTegic.value.DoubleValue
3.616

@<SCITEGIC>MOL_PROPERTY
Idih
SciTegic.value.DoubleValue
0.002

@<SCITEGIC>MOL_PROPERTY
Tether
SciTegic.value.DoubleValue
0.000

@<TRIPOS>MOLECULE
guest-6_confgen4.mol2 : confsearch ligand conformer 812
          13          12           1
SMALL
USER_CHARGES
 
@<TRIPOS>ATOM
       1    C1      18.497206   19.241183   22.712509 C.2        1 MOL1         0.6021
       2    O1      17.927253   20.125417   22.104900 O.co2      1 MOL1        -0.6904
       3    O2      17.933504   18.256731   23.147469 O.co2      1 MOL1        -0.6904
       4    C2      19.993669   19.389573   22.975768 C.3        1 MOL1        -0.2102
       5    H1      20.161637   19.175497   24.038004 H          1 MOL1         0.0687
       6    H2      20.276556   20.437184   22.815227 H          1 MOL1         0.0687
       7    C3      20.884917   18.457958   22.114893 C.3        1 MOL1        -0.1974
       8    H3      21.921771   18.520520   22.472514 H          1 MOL1         0.0689
       9    H4      20.566235   17.415017   22.251411 H          1 MOL1         0.0689
      10    C4      20.845850   18.822805   20.616464 C.3        1 MOL1        -0.2987
      11    H5      21.182241   19.855369   20.455085 H          1 MOL1         0.0700
      12    H6      21.501431   18.157911   20.039207 H          1 MOL1         0.0700
      13    H7      19.828740   18.728010   20.213566 H          1 MOL1         0.0700
@<TRIPOS>BOND
    1     1     2    1
    2     1     3    2
    3     1     4    1
    4     4     5    1
    5     4     6    1
    6     4     7    1
    7     7     8    1
    8     7     9    1
    9     7    10    1
   10    10    11    1
   11    10    12    1
   12    10    13    1
@<TRIPOS>SUBSTRUCTURE
       1 MOL1            1 RESIDUE      1      MOL     
@<SCITEGIC>MOL_PROPERTY
VConf Rank
SciTegic.value.IntegerValue
812

@<SCITEGIC>MOL_PROPERTY
Conf_Id
SciTegic.value.IntegerValue
36

@<SCITEGIC>MOL_PROPERTY
Delta U+W
SciTegic.value.DoubleValue
0.272

@<SCITEGIC>MOL_PROPERTY
U+W
SciTegic.value.DoubleValue
-58.060

@<SCITEGIC>MOL_PROPERTY
Grad RMS
SciTegic.value.DoubleValue
0.000000

@<SCITEGIC>MOL_PROPERTY
U
SciTegic.value.DoubleValue
9.781

@<SCITEGIC>MOL_PROPERTY
W
SciTegic.value.DoubleValue
-67.841

@<SCITEGIC>MOL_PROPERTY
W(PB)
SciTegic.value.DoubleValue
-69.537

@<SCITEGIC>MOL_PROPERTY
W(SA)
SciTegic.value.DoubleValue
1.696

@<SCITEGIC>MOL_PROPERTY
Valence
SciTegic.value.DoubleValue
6.123

@<SCITEGIC>MOL_PROPERTY
Coulomb
SciTegic.value.DoubleValue
3.449

@<SCITEGIC>MOL_PROPERTY
VdW
SciTegic.value.DoubleValue
0.209

@<SCITEGIC>MOL_PROPERTY
VdW6
SciTegic.value.DoubleValue
-3.762

@<SCITEGIC>MOL_PROPERTY
VdW12
SciTegic.value.DoubleValue
3.972

@<SCITEGIC>MOL_PROPERTY
Bond
SciTegic.value.DoubleValue
0.078

@<SCITEGIC>MOL_PROPERTY
Angle
SciTegic.value.DoubleValue
2.428

@<SCITEGIC>MOL_PROPERTY
Pdih
SciTegic.value.DoubleValue
3.616

@<SCITEGIC>MOL_PROPERTY
Idih
SciTegic.value.DoubleValue
0.002

@<SCITEGIC>MOL_PROPERTY
Tether
SciTegic.value.DoubleValue
0.000

@<TRIPOS>MOLECULE
guest-6_confgen4.mol2 : confsearch ligand conformer 813
          13          12           1
SMALL
USER_CHARGES
 
@<TRIPOS>ATOM
       1    C1      18.720703   17.432350   21.194185 C.2        1 MOL1         0.6021
       2    O1      18.015547   18.038703   20.411611 O.co2      1 MOL1        -0.6904
       3    O2      18.578474   16.250309   21.433656 O.co2      1 MOL1        -0.6904
       4    C2      19.847216   18.163482   21.927053 C.3        1 MOL1        -0.2102
       5    H1      20.782943   17.641866   21.693240 H          1 MOL1         0.0687
       6    H2      19.672288   18.040733   23.002540 H          1 MOL1         0.0687
       7    C3      19.990877   19.670650   21.589764 C.3        1 MOL1        -0.1974
       8    H3      20.163205   19.791629   20.511144 H          1 MOL1         0.0689
       9    H4      19.051151   20.190981   21.821984 H          1 MOL1         0.0689
      10    C4      21.148384   20.321772   22.373379 C.3        1 MOL1        -0.2987
      11    H5      22.105107   19.838858   22.134636 H          1 MOL1         0.0700
      12    H6      21.234360   21.386948   22.121854 H          1 MOL1         0.0700
      13    H7      20.984137   20.241363   23.456006 H          1 MOL1         0.0700
@<TRIPOS>BOND
    1     1     2    1
    2     1     3    2
    3     1     4    1
    4     4     5    1
    5     4     6    1
    6     4     7    1
    7     7     8    1
    8     7     9    1
    9     7    10    1
   10    10    11    1
   11    10    12    1
   12    10    13    1
@<TRIPOS>SUBSTRUCTURE
       1 MOL1            1 RESIDUE      1      MOL     
@<SCITEGIC>MOL_PROPERTY
VConf Rank
SciTegic.value.IntegerValue
813

@<SCITEGIC>MOL_PROPERTY
Conf_Id
SciTegic.value.IntegerValue
0

@<SCITEGIC>MOL_PROPERTY
Delta U+W
SciTegic.value.DoubleValue
0.000

@<SCITEGIC>MOL_PROPERTY
U+W
SciTegic.value.DoubleValue
-58.332

@<SCITEGIC>MOL_PROPERTY
Grad RMS
SciTegic.value.DoubleValue
0.000000

@<SCITEGIC>MOL_PROPERTY
U
SciTegic.value.DoubleValue
8.390

@<SCITEGIC>MOL_PROPERTY
W
SciTegic.value.DoubleValue
-66.722

@<SCITEGIC>MOL_PROPERTY
W(PB)
SciTegic.value.DoubleValue
-68.455

@<SCITEGIC>MOL_PROPERTY
W(SA)
SciTegic.value.DoubleValue
1.733

@<SCITEGIC>MOL_PROPERTY
Valence
SciTegic.value.DoubleValue
6.333

@<SCITEGIC>MOL_PROPERTY
Coulomb
SciTegic.value.DoubleValue
1.215

@<SCITEGIC>MOL_PROPERTY
VdW
SciTegic.value.DoubleValue
0.842

@<SCITEGIC>MOL_PROPERTY
VdW6
SciTegic.value.DoubleValue
-3.344

@<SCITEGIC>MOL_PROPERTY
VdW12
SciTegic.value.DoubleValue
4.186

@<SCITEGIC>MOL_PROPERTY
Bond
SciTegic.value.DoubleValue
0.091

@<SCITEGIC>MOL_PROPERTY
Angle
SciTegic.value.DoubleValue
2.713

@<SCITEGIC>MOL_PROPERTY
Pdih
SciTegic.value.DoubleValue
3.529

@<SCITEGIC>MOL_PROPERTY
Idih
SciTegic.value.DoubleValue
0.000

@<SCITEGIC>MOL_PROPERTY
Tether
SciTegic.value.DoubleValue
0.000

@<TRIPOS>MOLECULE
guest-6_confgen4.mol2 : confsearch ligand conformer 814
          13          12           1
SMALL
USER_CHARGES
 
@<TRIPOS>ATOM
       1    C1      19.173024   20.722971   20.852311 C.2        1 MOL1         0.6021
       2    O1      19.209513   21.769004   21.468627 O.co2      1 MOL1        -0.6904
       3    O2      18.368944   20.490455   19.972111 O.co2      1 MOL1        -0.6904
       4    C2      20.178809   19.635965   21.216060 C.3        1 MOL1        -0.2102
       5    H1      21.106054   20.123633   21.540739 H          1 MOL1         0.0687
       6    H2      20.412885   19.069278   20.306613 H          1 MOL1         0.0687
       7    C3      19.663945   18.681603   22.320576 C.3        1 MOL1        -0.1974
       8    H3      19.423449   19.261177   23.222838 H          1 MOL1         0.0689
       9    H4      18.730234   18.206537   21.988430 H          1 MOL1         0.0689
      10    C4      20.702682   17.595523   22.665171 C.3        1 MOL1        -0.2987
      11    H5      20.319933   16.929272   23.449311 H          1 MOL1         0.0700
      12    H6      20.937349   16.982993   21.784663 H          1 MOL1         0.0700
      13    H7      21.635855   18.045727   23.028573 H          1 MOL1         0.0700
@<TRIPOS>BOND
    1     1     2    1
    2     1     3    2
    3     1     4    1
    4     4     5    1
    5     4     6    1
    6     4     7    1
    7     7     8    1
    8     7     9    1
    9     7    10    1
   10    10    11    1
   11    10    12    1
   12    10    13    1
@<TRIPOS>SUBSTRUCTURE
       1 MOL1            1 RESIDUE      1      MOL     
@<SCITEGIC>MOL_PROPERTY
VConf Rank
SciTegic.value.IntegerValue
814

@<SCITEGIC>MOL_PROPERTY
Conf_Id
SciTegic.value.IntegerValue
1

@<SCITEGIC>MOL_PROPERTY
Delta U+W
SciTegic.value.DoubleValue
-1.339

@<SCITEGIC>MOL_PROPERTY
U+W
SciTegic.value.DoubleValue
-59.672

@<SCITEGIC>MOL_PROPERTY
Grad RMS
SciTegic.value.DoubleValue
0.000000

@<SCITEGIC>MOL_PROPERTY
U
SciTegic.value.DoubleValue
7.389

@<SCITEGIC>MOL_PROPERTY
W
SciTegic.value.DoubleValue
-67.061

@<SCITEGIC>MOL_PROPERTY
W(PB)
SciTegic.value.DoubleValue
-68.767

@<SCITEGIC>MOL_PROPERTY
W(SA)
SciTegic.value.DoubleValue
1.707

@<SCITEGIC>MOL_PROPERTY
Valence
SciTegic.value.DoubleValue
5.822

@<SCITEGIC>MOL_PROPERTY
Coulomb
SciTegic.value.DoubleValue
1.255

@<SCITEGIC>MOL_PROPERTY
VdW
SciTegic.value.DoubleValue
0.312

@<SCITEGIC>MOL_PROPERTY
VdW6
SciTegic.value.DoubleValue
-3.061

@<SCITEGIC>MOL_PROPERTY
VdW12
SciTegic.value.DoubleValue
3.372

@<SCITEGIC>MOL_PROPERTY
Bond
SciTegic.value.DoubleValue
0.059

@<SCITEGIC>MOL_PROPERTY
Angle
SciTegic.value.DoubleValue
2.241

@<SCITEGIC>MOL_PROPERTY
Pdih
SciTegic.value.DoubleValue
3.522

@<SCITEGIC>MOL_PROPERTY
Idih
SciTegic.value.DoubleValue
0.000

@<SCITEGIC>MOL_PROPERTY
Tether
SciTegic.value.DoubleValue
0.000

@<TRIPOS>MOLECULE
guest-6_confgen4.mol2 : confsearch ligand conformer 815
          13          12           1
SMALL
USER_CHARGES
 
@<TRIPOS>ATOM
       1    C1      20.111075   20.078540   23.402887 C.2        1 MOL1         0.6021
       2    O1      19.067847   20.666746   23.607307 O.co2      1 MOL1        -0.6904
       3    O2      20.808067   19.624078   24.288082 O.co2      1 MOL1        -0.6904
       4    C2      20.586582   19.935843   21.959191 C.3        1 MOL1        -0.2102
       5    H1      21.654459   19.685041   21.964079 H          1 MOL1         0.0687
       6    H2      20.494838   20.920675   21.485825 H          1 MOL1         0.0687
       7    C3      19.796387   18.890220   21.131179 C.3        1 MOL1        -0.1974
       8    H3      18.723784   19.127197   21.167048 H          1 MOL1         0.0689
       9    H4      20.100210   18.961151   20.077834 H          1 MOL1         0.0689
      10    C4      20.028100   17.447652   21.626390 C.3        1 MOL1        -0.2987
      11    H5      19.693397   17.328507   22.665431 H          1 MOL1         0.0700
      12    H6      19.471099   16.732091   21.007666 H          1 MOL1         0.0700
      13    H7      21.092341   17.182269   21.577859 H          1 MOL1         0.0700
@<TRIPOS>BOND
    1     1     2    1
    2     1     3    2
    3     1     4    1
    4     4     5    1
    5     4     6    1
    6     4     7    1
    7     7     8    1
    8     7     9    1
    9     7    10    1
   10    10    11    1
   11    10    12    1
   12    10    13    1
@<TRIPOS>SUBSTRUCTURE
       1 MOL1            1 RESIDUE      1      MOL     
@<SCITEGIC>MOL_PROPERTY
VConf Rank
SciTegic.value.IntegerValue
815

@<SCITEGIC>MOL_PROPERTY
Conf_Id
SciTegic.value.IntegerValue
4

@<SCITEGIC>MOL_PROPERTY
Delta U+W
SciTegic.value.DoubleValue
0.281

@<SCITEGIC>MOL_PROPERTY
U+W
SciTegic.value.DoubleValue
-58.051

@<SCITEGIC>MOL_PROPERTY
Grad RMS
SciTegic.value.DoubleValue
0.000000

@<SCITEGIC>MOL_PROPERTY
U
SciTegic.value.DoubleValue
9.781

@<SCITEGIC>MOL_PROPERTY
W
SciTegic.value.DoubleValue
-67.832

@<SCITEGIC>MOL_PROPERTY
W(PB)
SciTegic.value.DoubleValue
-69.535

@<SCITEGIC>MOL_PROPERTY
W(SA)
SciTegic.value.DoubleValue
1.703

@<SCITEGIC>MOL_PROPERTY
Valence
SciTegic.value.DoubleValue
6.123

@<SCITEGIC>MOL_PROPERTY
Coulomb
SciTegic.value.DoubleValue
3.449

@<SCITEGIC>MOL_PROPERTY
VdW
SciTegic.value.DoubleValue
0.209

@<SCITEGIC>MOL_PROPERTY
VdW6
SciTegic.value.DoubleValue
-3.762

@<SCITEGIC>MOL_PROPERTY
VdW12
SciTegic.value.DoubleValue
3.972

@<SCITEGIC>MOL_PROPERTY
Bond
SciTegic.value.DoubleValue
0.078

@<SCITEGIC>MOL_PROPERTY
Angle
SciTegic.value.DoubleValue
2.428

@<SCITEGIC>MOL_PROPERTY
Pdih
SciTegic.value.DoubleValue
3.616

@<SCITEGIC>MOL_PROPERTY
Idih
SciTegic.value.DoubleValue
0.002

@<SCITEGIC>MOL_PROPERTY
Tether
SciTegic.value.DoubleValue
0.000

@<TRIPOS>MOLECULE
guest-6_confgen4.mol2 : confsearch ligand conformer 816
          13          12           1
SMALL
USER_CHARGES
 
@<TRIPOS>ATOM
       1    C1      19.708998   20.627272   21.457316 C.2        1 MOL1         0.6021
       2    O1      19.377847   20.605831   20.288648 O.co2      1 MOL1        -0.6904
       3    O2      19.188142   21.344956   22.287819 O.co2      1 MOL1        -0.6904
       4    C2      20.863777   19.732613   21.900930 C.3        1 MOL1        -0.2102
       5    H1      21.549195   20.352133   22.491509 H          1 MOL1         0.0687
       6    H2      21.417584   19.406889   21.011835 H          1 MOL1         0.0687
       7    C3      20.428336   18.503116   22.738823 C.3        1 MOL1        -0.1974
       8    H3      21.322241   18.005397   23.138925 H          1 MOL1         0.0689
       9    H4      19.839333   18.837837   23.604246 H          1 MOL1         0.0689
      10    C4      19.611782   17.486266   21.914698 C.3        1 MOL1        -0.2987
      11    H5      20.190913   17.121641   21.056182 H          1 MOL1         0.0700
      12    H6      19.336786   16.620568   22.531171 H          1 MOL1         0.0700
      13    H7      18.686076   17.938657   21.534914 H          1 MOL1         0.0700
@<TRIPOS>BOND
    1     1     2    1
    2     1     3    2
    3     1     4    1
    4     4     5    1
    5     4     6    1
    6     4     7    1
    7     7     8    1
    8     7     9    1
    9     7    10    1
   10    10    11    1
   11    10    12    1
   12    10    13    1
@<TRIPOS>SUBSTRUCTURE
       1 MOL1            1 RESIDUE      1      MOL     
@<SCITEGIC>MOL_PROPERTY
VConf Rank
SciTegic.value.IntegerValue
816

@<SCITEGIC>MOL_PROPERTY
Conf_Id
SciTegic.value.IntegerValue
36

@<SCITEGIC>MOL_PROPERTY
Delta U+W
SciTegic.value.DoubleValue
0.272

@<SCITEGIC>MOL_PROPERTY
U+W
SciTegic.value.DoubleValue
-58.060

@<SCITEGIC>MOL_PROPERTY
Grad RMS
SciTegic.value.DoubleValue
0.000000

@<SCITEGIC>MOL_PROPERTY
U
SciTegic.value.DoubleValue
9.781

@<SCITEGIC>MOL_PROPERTY
W
SciTegic.value.DoubleValue
-67.841

@<SCITEGIC>MOL_PROPERTY
W(PB)
SciTegic.value.DoubleValue
-69.537

@<SCITEGIC>MOL_PROPERTY
W(SA)
SciTegic.value.DoubleValue
1.696

@<SCITEGIC>MOL_PROPERTY
Valence
SciTegic.value.DoubleValue
6.123

@<SCITEGIC>MOL_PROPERTY
Coulomb
SciTegic.value.DoubleValue
3.449

@<SCITEGIC>MOL_PROPERTY
VdW
SciTegic.value.DoubleValue
0.209

@<SCITEGIC>MOL_PROPERTY
VdW6
SciTegic.value.DoubleValue
-3.762

@<SCITEGIC>MOL_PROPERTY
VdW12
SciTegic.value.DoubleValue
3.972

@<SCITEGIC>MOL_PROPERTY
Bond
SciTegic.value.DoubleValue
0.078

@<SCITEGIC>MOL_PROPERTY
Angle
SciTegic.value.DoubleValue
2.428

@<SCITEGIC>MOL_PROPERTY
Pdih
SciTegic.value.DoubleValue
3.616

@<SCITEGIC>MOL_PROPERTY
Idih
SciTegic.value.DoubleValue
0.002

@<SCITEGIC>MOL_PROPERTY
Tether
SciTegic.value.DoubleValue
0.000

@<TRIPOS>MOLECULE
guest-6_confgen4.mol2 : confsearch ligand conformer 817
          13          12           1
SMALL
USER_CHARGES
 
@<TRIPOS>ATOM
       1    C1      20.481760   17.709780   20.186760 C.2        1 MOL1         0.6021
       2    O1      21.694803   17.786302   20.187161 O.co2      1 MOL1        -0.6904
       3    O2      19.862213   17.030376   19.393434 O.co2      1 MOL1        -0.6904
       4    C2      19.669803   18.493339   21.219932 C.3        1 MOL1        -0.2102
       5    H1      19.061408   17.769943   21.775712 H          1 MOL1         0.0687
       6    H2      18.975714   19.139638   20.669590 H          1 MOL1         0.0687
       7    C3      20.503118   19.346447   22.211773 C.3        1 MOL1        -0.1974
       8    H3      21.200033   18.697339   22.760156 H          1 MOL1         0.0689
       9    H4      21.114297   20.068676   21.652667 H          1 MOL1         0.0689
      10    C4      19.602424   20.098279   23.212439 C.3        1 MOL1        -0.2987
      11    H5      19.003024   19.395712   23.806276 H          1 MOL1         0.0700
      12    H6      20.209230   20.695793   23.905274 H          1 MOL1         0.0700
      13    H7      18.916565   20.778021   22.689876 H          1 MOL1         0.0700
@<TRIPOS>BOND
    1     1     2    1
    2     1     3    2
    3     1     4    1
    4     4     5    1
    5     4     6    1
    6     4     7    1
    7     7     8    1
    8     7     9    1
    9     7    10    1
   10    10    11    1
   11    10    12    1
   12    10    13    1
@<TRIPOS>SUBSTRUCTURE
       1 MOL1            1 RESIDUE      1      MOL     
@<SCITEGIC>MOL_PROPERTY
VConf Rank
SciTegic.value.IntegerValue
817

@<SCITEGIC>MOL_PROPERTY
Conf_Id
SciTegic.value.IntegerValue
0

@<SCITEGIC>MOL_PROPERTY
Delta U+W
SciTegic.value.DoubleValue
0.000

@<SCITEGIC>MOL_PROPERTY
U+W
SciTegic.value.DoubleValue
-58.332

@<SCITEGIC>MOL_PROPERTY
Grad RMS
SciTegic.value.DoubleValue
0.000000

@<SCITEGIC>MOL_PROPERTY
U
SciTegic.value.DoubleValue
8.390

@<SCITEGIC>MOL_PROPERTY
W
SciTegic.value.DoubleValue
-66.722

@<SCITEGIC>MOL_PROPERTY
W(PB)
SciTegic.value.DoubleValue
-68.455

@<SCITEGIC>MOL_PROPERTY
W(SA)
SciTegic.value.DoubleValue
1.733

@<SCITEGIC>MOL_PROPERTY
Valence
SciTegic.value.DoubleValue
6.333

@<SCITEGIC>MOL_PROPERTY
Coulomb
SciTegic.value.DoubleValue
1.215

@<SCITEGIC>MOL_PROPERTY
VdW
SciTegic.value.DoubleValue
0.842

@<SCITEGIC>MOL_PROPERTY
VdW6
SciTegic.value.DoubleValue
-3.344

@<SCITEGIC>MOL_PROPERTY
VdW12
SciTegic.value.DoubleValue
4.186

@<SCITEGIC>MOL_PROPERTY
Bond
SciTegic.value.DoubleValue
0.091

@<SCITEGIC>MOL_PROPERTY
Angle
SciTegic.value.DoubleValue
2.713

@<SCITEGIC>MOL_PROPERTY
Pdih
SciTegic.value.DoubleValue
3.529

@<SCITEGIC>MOL_PROPERTY
Idih
SciTegic.value.DoubleValue
0.000

@<SCITEGIC>MOL_PROPERTY
Tether
SciTegic.value.DoubleValue
0.000

@<TRIPOS>MOLECULE
guest-6_confgen4.mol2 : confsearch ligand conformer 818
          13          12           1
SMALL
USER_CHARGES
 
@<TRIPOS>ATOM
       1    C1      18.959024   19.484539   23.620987 C.2        1 MOL1         0.6021
       2    O1      17.852789   19.969622   23.493311 O.co2      1 MOL1        -0.6904
       3    O2      19.647496   19.634793   24.610325 O.co2      1 MOL1        -0.6904
       4    C2      19.521499   18.657984   22.469497 C.3        1 MOL1        -0.2102
       5    H1      18.684982   18.153027   21.971223 H          1 MOL1         0.0687
       6    H2      20.164990   17.876893   22.892386 H          1 MOL1         0.0687
       7    C3      20.315827   19.507165   21.447841 C.3        1 MOL1        -0.1974
       8    H3      19.664434   20.291972   21.038468 H          1 MOL1         0.0689
       9    H4      21.144781   20.015675   21.959774 H          1 MOL1         0.0689
      10    C4      20.870523   18.643303   20.297473 C.3        1 MOL1        -0.2987
      11    H5      21.430070   19.262377   19.584091 H          1 MOL1         0.0700
      12    H6      21.548982   17.869165   20.679518 H          1 MOL1         0.0700
      13    H7      20.057277   18.147622   19.751131 H          1 MOL1         0.0700
@<TRIPOS>BOND
    1     1     2    1
    2     1     3    2
    3     1     4    1
    4     4     5    1
    5     4     6    1
    6     4     7    1
    7     7     8    1
    8     7     9    1
    9     7    10    1
   10    10    11    1
   11    10    12    1
   12    10    13    1
@<TRIPOS>SUBSTRUCTURE
       1 MOL1            1 RESIDUE      1      MOL     
@<SCITEGIC>MOL_PROPERTY
VConf Rank
SciTegic.value.IntegerValue
818

@<SCITEGIC>MOL_PROPERTY
Conf_Id
SciTegic.value.IntegerValue
1

@<SCITEGIC>MOL_PROPERTY
Delta U+W
SciTegic.value.DoubleValue
-1.339

@<SCITEGIC>MOL_PROPERTY
U+W
SciTegic.value.DoubleValue
-59.672

@<SCITEGIC>MOL_PROPERTY
Grad RMS
SciTegic.value.DoubleValue
0.000000

@<SCITEGIC>MOL_PROPERTY
U
SciTegic.value.DoubleValue
7.389

@<SCITEGIC>MOL_PROPERTY
W
SciTegic.value.DoubleValue
-67.061

@<SCITEGIC>MOL_PROPERTY
W(PB)
SciTegic.value.DoubleValue
-68.767

@<SCITEGIC>MOL_PROPERTY
W(SA)
SciTegic.value.DoubleValue
1.707

@<SCITEGIC>MOL_PROPERTY
Valence
SciTegic.value.DoubleValue
5.822

@<SCITEGIC>MOL_PROPERTY
Coulomb
SciTegic.value.DoubleValue
1.255

@<SCITEGIC>MOL_PROPERTY
VdW
SciTegic.value.DoubleValue
0.312

@<SCITEGIC>MOL_PROPERTY
VdW6
SciTegic.value.DoubleValue
-3.061

@<SCITEGIC>MOL_PROPERTY
VdW12
SciTegic.value.DoubleValue
3.372

@<SCITEGIC>MOL_PROPERTY
Bond
SciTegic.value.DoubleValue
0.059

@<SCITEGIC>MOL_PROPERTY
Angle
SciTegic.value.DoubleValue
2.241

@<SCITEGIC>MOL_PROPERTY
Pdih
SciTegic.value.DoubleValue
3.522

@<SCITEGIC>MOL_PROPERTY
Idih
SciTegic.value.DoubleValue
0.000

@<SCITEGIC>MOL_PROPERTY
Tether
SciTegic.value.DoubleValue
0.000

@<TRIPOS>MOLECULE
guest-6_confgen4.mol2 : confsearch ligand conformer 819
          13          12           1
SMALL
USER_CHARGES
 
@<TRIPOS>ATOM
       1    C1      20.581377   17.239415   21.871493 C.2        1 MOL1         0.6021
       2    O1      21.454733   16.975251   21.069268 O.co2      1 MOL1        -0.6904
       3    O2      20.494731   16.714967   22.963900 O.co2      1 MOL1        -0.6904
       4    C2      19.517731   18.257941   21.469012 C.3        1 MOL1        -0.2102
       5    H1      18.654856   18.147668   22.137273 H          1 MOL1         0.0687
       6    H2      19.174468   17.991770   20.462180 H          1 MOL1         0.0687
       7    C3      20.012132   19.727256   21.473498 C.3        1 MOL1        -0.1974
       8    H3      20.901158   19.818055   20.833724 H          1 MOL1         0.0689
       9    H4      19.237948   20.368834   21.030903 H          1 MOL1         0.0689
      10    C4      20.337528   20.236336   22.892964 C.3        1 MOL1        -0.2987
      11    H5      21.141069   19.643815   23.350204 H          1 MOL1         0.0700
      12    H6      20.665091   21.283658   22.862688 H          1 MOL1         0.0700
      13    H7      19.455362   20.175043   23.543670 H          1 MOL1         0.0700
@<TRIPOS>BOND
    1     1     2    1
    2     1     3    2
    3     1     4    1
    4     4     5    1
    5     4     6    1
    6     4     7    1
    7     7     8    1
    8     7     9    1
    9     7    10    1
   10    10    11    1
   11    10    12    1
   12    10    13    1
@<TRIPOS>SUBSTRUCTURE
       1 MOL1            1 RESIDUE      1      MOL     
@<SCITEGIC>MOL_PROPERTY
VConf Rank
SciTegic.value.IntegerValue
819

@<SCITEGIC>MOL_PROPERTY
Conf_Id
SciTegic.value.IntegerValue
4

@<SCITEGIC>MOL_PROPERTY
Delta U+W
SciTegic.value.DoubleValue
0.281

@<SCITEGIC>MOL_PROPERTY
U+W
SciTegic.value.DoubleValue
-58.051

@<SCITEGIC>MOL_PROPERTY
Grad RMS
SciTegic.value.DoubleValue
0.000000

@<SCITEGIC>MOL_PROPERTY
U
SciTegic.value.DoubleValue
9.781

@<SCITEGIC>MOL_PROPERTY
W
SciTegic.value.DoubleValue
-67.832

@<SCITEGIC>MOL_PROPERTY
W(PB)
SciTegic.value.DoubleValue
-69.535

@<SCITEGIC>MOL_PROPERTY
W(SA)
SciTegic.value.DoubleValue
1.703

@<SCITEGIC>MOL_PROPERTY
Valence
SciTegic.value.DoubleValue
6.123

@<SCITEGIC>MOL_PROPERTY
Coulomb
SciTegic.value.DoubleValue
3.449

@<SCITEGIC>MOL_PROPERTY
VdW
SciTegic.value.DoubleValue
0.209

@<SCITEGIC>MOL_PROPERTY
VdW6
SciTegic.value.DoubleValue
-3.762

@<SCITEGIC>MOL_PROPERTY
VdW12
SciTegic.value.DoubleValue
3.972

@<SCITEGIC>MOL_PROPERTY
Bond
SciTegic.value.DoubleValue
0.078

@<SCITEGIC>MOL_PROPERTY
Angle
SciTegic.value.DoubleValue
2.428

@<SCITEGIC>MOL_PROPERTY
Pdih
SciTegic.value.DoubleValue
3.616

@<SCITEGIC>MOL_PROPERTY
Idih
SciTegic.value.DoubleValue
0.002

@<SCITEGIC>MOL_PROPERTY
Tether
SciTegic.value.DoubleValue
0.000

@<TRIPOS>MOLECULE
guest-6_confgen4.mol2 : confsearch ligand conformer 820
          13          12           1
SMALL
USER_CHARGES
 
@<TRIPOS>ATOM
       1    C1      21.160249   20.046967   21.017859 C.2        1 MOL1         0.6021
       2    O1      21.095435   19.725027   19.848218 O.co2      1 MOL1        -0.6904
       3    O2      21.233667   21.200617   21.391756 O.co2      1 MOL1        -0.6904
       4    C2      21.187100   18.944514   22.073606 C.3        1 MOL1        -0.2102
       5    H1      22.010786   19.170309   22.761315 H          1 MOL1         0.0687
       6    H2      21.434806   17.994789   21.583757 H          1 MOL1         0.0687
       7    C3      19.868819   18.802952   22.876995 C.3        1 MOL1        -0.1974
       8    H3      20.026202   18.099163   23.705719 H          1 MOL1         0.0689
       9    H4      19.608178   19.770112   23.329310 H          1 MOL1         0.0689
      10    C4      18.697726   18.302443   22.006387 C.3        1 MOL1        -0.2987
      11    H5      18.928706   17.325434   21.561986 H          1 MOL1         0.0700
      12    H6      17.786376   18.194601   22.608805 H          1 MOL1         0.0700
      13    H7      18.482961   19.006249   21.191305 H          1 MOL1         0.0700
@<TRIPOS>BOND
    1     1     2    1
    2     1     3    2
    3     1     4    1
    4     4     5    1
    5     4     6    1
    6     4     7    1
    7     7     8    1
    8     7     9    1
    9     7    10    1
   10    10    11    1
   11    10    12    1
   12    10    13    1
@<TRIPOS>SUBSTRUCTURE
       1 MOL1            1 RESIDUE      1      MOL     
@<SCITEGIC>MOL_PROPERTY
VConf Rank
SciTegic.value.IntegerValue
820

@<SCITEGIC>MOL_PROPERTY
Conf_Id
SciTegic.value.IntegerValue
36

@<SCITEGIC>MOL_PROPERTY
Delta U+W
SciTegic.value.DoubleValue
0.272

@<SCITEGIC>MOL_PROPERTY
U+W
SciTegic.value.DoubleValue
-58.060

@<SCITEGIC>MOL_PROPERTY
Grad RMS
SciTegic.value.DoubleValue
0.000000

@<SCITEGIC>MOL_PROPERTY
U
SciTegic.value.DoubleValue
9.781

@<SCITEGIC>MOL_PROPERTY
W
SciTegic.value.DoubleValue
-67.841

@<SCITEGIC>MOL_PROPERTY
W(PB)
SciTegic.value.DoubleValue
-69.537

@<SCITEGIC>MOL_PROPERTY
W(SA)
SciTegic.value.DoubleValue
1.696

@<SCITEGIC>MOL_PROPERTY
Valence
SciTegic.value.DoubleValue
6.123

@<SCITEGIC>MOL_PROPERTY
Coulomb
SciTegic.value.DoubleValue
3.449

@<SCITEGIC>MOL_PROPERTY
VdW
SciTegic.value.DoubleValue
0.209

@<SCITEGIC>MOL_PROPERTY
VdW6
SciTegic.value.DoubleValue
-3.762

@<SCITEGIC>MOL_PROPERTY
VdW12
SciTegic.value.DoubleValue
3.972

@<SCITEGIC>MOL_PROPERTY
Bond
SciTegic.value.DoubleValue
0.078

@<SCITEGIC>MOL_PROPERTY
Angle
SciTegic.value.DoubleValue
2.428

@<SCITEGIC>MOL_PROPERTY
Pdih
SciTegic.value.DoubleValue
3.616

@<SCITEGIC>MOL_PROPERTY
Idih
SciTegic.value.DoubleValue
0.002

@<SCITEGIC>MOL_PROPERTY
Tether
SciTegic.value.DoubleValue
0.000

@<TRIPOS>MOLECULE
guest-6_confgen4.mol2 : confsearch ligand conformer 821
          13          12           1
SMALL
USER_CHARGES
 
@<TRIPOS>ATOM
       1    C1      18.460494   19.932794   20.707936 C.2        1 MOL1         0.6021
       2    O1      18.159085   20.829582   21.470991 O.co2      1 MOL1        -0.6904
       3    O2      17.911639   19.762228   19.638141 O.co2      1 MOL1        -0.6904
       4    C2      19.577947   18.957699   21.083660 C.3        1 MOL1        -0.2102
       5    H1      20.332809   19.002615   20.289617 H          1 MOL1         0.0687
       6    H2      19.151888   17.947545   21.063675 H          1 MOL1         0.0687
       7    C3      20.249531   19.214374   22.458087 C.3        1 MOL1        -0.1974
       8    H3      20.673290   20.228190   22.477068 H          1 MOL1         0.0689
       9    H4      19.490899   19.171898   23.252081 H          1 MOL1         0.0689
      10    C4      21.360247   18.185391   22.750216 C.3        1 MOL1        -0.2987
      11    H5      22.147617   18.229588   21.986267 H          1 MOL1         0.0700
      12    H6      21.823221   18.382934   23.725864 H          1 MOL1         0.0700
      13    H7      20.955727   17.164808   22.767447 H          1 MOL1         0.0700
@<TRIPOS>BOND
    1     1     2    1
    2     1     3    2
    3     1     4    1
    4     4     5    1
    5     4     6    1
    6     4     7    1
    7     7     8    1
    8     7     9    1
    9     7    10    1
   10    10    11    1
   11    10    12    1
   12    10    13    1
@<TRIPOS>SUBSTRUCTURE
       1 MOL1            1 RESIDUE      1      MOL     
@<SCITEGIC>MOL_PROPERTY
VConf Rank
SciTegic.value.IntegerValue
821

@<SCITEGIC>MOL_PROPERTY
Conf_Id
SciTegic.value.IntegerValue
0

@<SCITEGIC>MOL_PROPERTY
Delta U+W
SciTegic.value.DoubleValue
0.000

@<SCITEGIC>MOL_PROPERTY
U+W
SciTegic.value.DoubleValue
-58.332

@<SCITEGIC>MOL_PROPERTY
Grad RMS
SciTegic.value.DoubleValue
0.000000

@<SCITEGIC>MOL_PROPERTY
U
SciTegic.value.DoubleValue
8.390

@<SCITEGIC>MOL_PROPERTY
W
SciTegic.value.DoubleValue
-66.722

@<SCITEGIC>MOL_PROPERTY
W(PB)
SciTegic.value.DoubleValue
-68.455

@<SCITEGIC>MOL_PROPERTY
W(SA)
SciTegic.value.DoubleValue
1.733

@<SCITEGIC>MOL_PROPERTY
Valence
SciTegic.value.DoubleValue
6.333

@<SCITEGIC>MOL_PROPERTY
Coulomb
SciTegic.value.DoubleValue
1.215

@<SCITEGIC>MOL_PROPERTY
VdW
SciTegic.value.DoubleValue
0.842

@<SCITEGIC>MOL_PROPERTY
VdW6
SciTegic.value.DoubleValue
-3.344

@<SCITEGIC>MOL_PROPERTY
VdW12
SciTegic.value.DoubleValue
4.186

@<SCITEGIC>MOL_PROPERTY
Bond
SciTegic.value.DoubleValue
0.091

@<SCITEGIC>MOL_PROPERTY
Angle
SciTegic.value.DoubleValue
2.713

@<SCITEGIC>MOL_PROPERTY
Pdih
SciTegic.value.DoubleValue
3.529

@<SCITEGIC>MOL_PROPERTY
Idih
SciTegic.value.DoubleValue
0.000

@<SCITEGIC>MOL_PROPERTY
Tether
SciTegic.value.DoubleValue
0.000

@<TRIPOS>MOLECULE
guest-6_confgen4.mol2 : confsearch ligand conformer 822
          13          12           1
SMALL
USER_CHARGES
 
@<TRIPOS>ATOM
       1    C1      18.485961   19.747257   23.135437 C.2        1 MOL1         0.6021
       2    O1      17.359007   19.351049   22.915539 O.co2      1 MOL1        -0.6904
       3    O2      18.730825   20.783290   23.720277 O.co2      1 MOL1        -0.6904
       4    C2      19.656315   18.908187   22.633708 C.3        1 MOL1        -0.2102
       5    H1      19.360051   17.852760   22.670041 H          1 MOL1         0.0687
       6    H2      20.491328   19.033858   23.333692 H          1 MOL1         0.0687
       7    C3      20.101069   19.287526   21.200479 C.3        1 MOL1        -0.1974
       8    H3      19.254415   19.167350   20.510148 H          1 MOL1         0.0689
       9    H4      20.386021   20.348620   21.173958 H          1 MOL1         0.0689
      10    C4      21.284481   18.422142   20.723052 C.3        1 MOL1        -0.2987
      11    H5      21.585256   18.705584   19.705970 H          1 MOL1         0.0700
      12    H6      22.154127   18.548415   21.381329 H          1 MOL1         0.0700
      13    H7      21.013820   17.358100   20.712393 H          1 MOL1         0.0700
@<TRIPOS>BOND
    1     1     2    1
    2     1     3    2
    3     1     4    1
    4     4     5    1
    5     4     6    1
    6     4     7    1
    7     7     8    1
    8     7     9    1
    9     7    10    1
   10    10    11    1
   11    10    12    1
   12    10    13    1
@<TRIPOS>SUBSTRUCTURE
       1 MOL1            1 RESIDUE      1      MOL     
@<SCITEGIC>MOL_PROPERTY
VConf Rank
SciTegic.value.IntegerValue
822

@<SCITEGIC>MOL_PROPERTY
Conf_Id
SciTegic.value.IntegerValue
1

@<SCITEGIC>MOL_PROPERTY
Delta U+W
SciTegic.value.DoubleValue
-1.339

@<SCITEGIC>MOL_PROPERTY
U+W
SciTegic.value.DoubleValue
-59.672

@<SCITEGIC>MOL_PROPERTY
Grad RMS
SciTegic.value.DoubleValue
0.000000

@<SCITEGIC>MOL_PROPERTY
U
SciTegic.value.DoubleValue
7.389

@<SCITEGIC>MOL_PROPERTY
W
SciTegic.value.DoubleValue
-67.061

@<SCITEGIC>MOL_PROPERTY
W(PB)
SciTegic.value.DoubleValue
-68.767

@<SCITEGIC>MOL_PROPERTY
W(SA)
SciTegic.value.DoubleValue
1.707

@<SCITEGIC>MOL_PROPERTY
Valence
SciTegic.value.DoubleValue
5.822

@<SCITEGIC>MOL_PROPERTY
Coulomb
SciTegic.value.DoubleValue
1.255

@<SCITEGIC>MOL_PROPERTY
VdW
SciTegic.value.DoubleValue
0.312

@<SCITEGIC>MOL_PROPERTY
VdW6
SciTegic.value.DoubleValue
-3.061

@<SCITEGIC>MOL_PROPERTY
VdW12
SciTegic.value.DoubleValue
3.372

@<SCITEGIC>MOL_PROPERTY
Bond
SciTegic.value.DoubleValue
0.059

@<SCITEGIC>MOL_PROPERTY
Angle
SciTegic.value.DoubleValue
2.241

@<SCITEGIC>MOL_PROPERTY
Pdih
SciTegic.value.DoubleValue
3.522

@<SCITEGIC>MOL_PROPERTY
Idih
SciTegic.value.DoubleValue
0.000

@<SCITEGIC>MOL_PROPERTY
Tether
SciTegic.value.DoubleValue
0.000

@<TRIPOS>MOLECULE
guest-6_confgen4.mol2 : confsearch ligand conformer 823
          13          12           1
SMALL
USER_CHARGES
 
@<TRIPOS>ATOM
       1    C1      21.525009   20.054756   22.260994 C.2        1 MOL1         0.6021
       2    O1      22.171816   19.855878   23.270047 O.co2      1 MOL1        -0.6904
       3    O2      22.024241   20.342974   21.191601 O.co2      1 MOL1        -0.6904
       4    C2      20.003321   19.972676   22.352958 C.3        1 MOL1        -0.2102
       5    H1      19.570776   20.477650   21.480493 H          1 MOL1         0.0687
       6    H2      19.697557   20.547476   23.235284 H          1 MOL1         0.0687
       7    C3      19.451120   18.528189   22.461911 C.3        1 MOL1        -0.1974
       8    H3      19.921572   18.017966   23.314125 H          1 MOL1         0.0689
       9    H4      18.374072   18.569695   22.674325 H          1 MOL1         0.0689
      10    C4      19.679563   17.710111   21.174087 C.3        1 MOL1        -0.2987
      11    H5      20.750897   17.610276   20.954762 H          1 MOL1         0.0700
      12    H6      19.260186   16.700880   21.277395 H          1 MOL1         0.0700
      13    H7      19.198055   18.191481   20.312794 H          1 MOL1         0.0700
@<TRIPOS>BOND
    1     1     2    1
    2     1     3    2
    3     1     4    1
    4     4     5    1
    5     4     6    1
    6     4     7    1
    7     7     8    1
    8     7     9    1
    9     7    10    1
   10    10    11    1
   11    10    12    1
   12    10    13    1
@<TRIPOS>SUBSTRUCTURE
       1 MOL1            1 RESIDUE      1      MOL     
@<SCITEGIC>MOL_PROPERTY
VConf Rank
SciTegic.value.IntegerValue
823

@<SCITEGIC>MOL_PROPERTY
Conf_Id
SciTegic.value.IntegerValue
4

@<SCITEGIC>MOL_PROPERTY
Delta U+W
SciTegic.value.DoubleValue
0.281

@<SCITEGIC>MOL_PROPERTY
U+W
SciTegic.value.DoubleValue
-58.051

@<SCITEGIC>MOL_PROPERTY
Grad RMS
SciTegic.value.DoubleValue
0.000000

@<SCITEGIC>MOL_PROPERTY
U
SciTegic.value.DoubleValue
9.781

@<SCITEGIC>MOL_PROPERTY
W
SciTegic.value.DoubleValue
-67.832

@<SCITEGIC>MOL_PROPERTY
W(PB)
SciTegic.value.DoubleValue
-69.535

@<SCITEGIC>MOL_PROPERTY
W(SA)
SciTegic.value.DoubleValue
1.703

@<SCITEGIC>MOL_PROPERTY
Valence
SciTegic.value.DoubleValue
6.123

@<SCITEGIC>MOL_PROPERTY
Coulomb
SciTegic.value.DoubleValue
3.449

@<SCITEGIC>MOL_PROPERTY
VdW
SciTegic.value.DoubleValue
0.209

@<SCITEGIC>MOL_PROPERTY
VdW6
SciTegic.value.DoubleValue
-3.762

@<SCITEGIC>MOL_PROPERTY
VdW12
SciTegic.value.DoubleValue
3.972

@<SCITEGIC>MOL_PROPERTY
Bond
SciTegic.value.DoubleValue
0.078

@<SCITEGIC>MOL_PROPERTY
Angle
SciTegic.value.DoubleValue
2.428

@<SCITEGIC>MOL_PROPERTY
Pdih
SciTegic.value.DoubleValue
3.616

@<SCITEGIC>MOL_PROPERTY
Idih
SciTegic.value.DoubleValue
0.002

@<SCITEGIC>MOL_PROPERTY
Tether
SciTegic.value.DoubleValue
0.000

@<TRIPOS>MOLECULE
guest-6_confgen4.mol2 : confsearch ligand conformer 824
          13          12           1
SMALL
USER_CHARGES
 
@<TRIPOS>ATOM
       1    C1      18.972594   17.611222   22.242553 C.2        1 MOL1         0.6021
       2    O1      19.020774   17.242169   23.399006 O.co2      1 MOL1        -0.6904
       3    O2      17.944636   17.657027   21.596563 O.co2      1 MOL1        -0.6904
       4    C2      20.275787   18.004569   21.551402 C.3        1 MOL1        -0.2102
       5    H1      20.299589   17.492082   20.582290 H          1 MOL1         0.0687
       6    H2      21.116421   17.613129   22.137403 H          1 MOL1         0.0687
       7    C3      20.442419   19.530170   21.332058 C.3        1 MOL1        -0.1974
       8    H3      21.323935   19.708921   20.701305 H          1 MOL1         0.0689
       9    H4      19.575209   19.919220   20.780234 H          1 MOL1         0.0689
      10    C4      20.606052   20.302759   22.657296 C.3        1 MOL1        -0.2987
      11    H5      21.481240   19.944391   23.214979 H          1 MOL1         0.0700
      12    H6      20.741236   21.375195   22.465715 H          1 MOL1         0.0700
      13    H7      19.721120   20.182322   23.296213 H          1 MOL1         0.0700
@<TRIPOS>BOND
    1     1     2    1
    2     1     3    2
    3     1     4    1
    4     4     5    1
    5     4     6    1
    6     4     7    1
    7     7     8    1
    8     7     9    1
    9     7    10    1
   10    10    11    1
   11    10    12    1
   12    10    13    1
@<TRIPOS>SUBSTRUCTURE
       1 MOL1            1 RESIDUE      1      MOL     
@<SCITEGIC>MOL_PROPERTY
VConf Rank
SciTegic.value.IntegerValue
824

@<SCITEGIC>MOL_PROPERTY
Conf_Id
SciTegic.value.IntegerValue
36

@<SCITEGIC>MOL_PROPERTY
Delta U+W
SciTegic.value.DoubleValue
0.272

@<SCITEGIC>MOL_PROPERTY
U+W
SciTegic.value.DoubleValue
-58.060

@<SCITEGIC>MOL_PROPERTY
Grad RMS
SciTegic.value.DoubleValue
0.000000

@<SCITEGIC>MOL_PROPERTY
U
SciTegic.value.DoubleValue
9.781

@<SCITEGIC>MOL_PROPERTY
W
SciTegic.value.DoubleValue
-67.841

@<SCITEGIC>MOL_PROPERTY
W(PB)
SciTegic.value.DoubleValue
-69.537

@<SCITEGIC>MOL_PROPERTY
W(SA)
SciTegic.value.DoubleValue
1.696

@<SCITEGIC>MOL_PROPERTY
Valence
SciTegic.value.DoubleValue
6.123

@<SCITEGIC>MOL_PROPERTY
Coulomb
SciTegic.value.DoubleValue
3.449

@<SCITEGIC>MOL_PROPERTY
VdW
SciTegic.value.DoubleValue
0.209

@<SCITEGIC>MOL_PROPERTY
VdW6
SciTegic.value.DoubleValue
-3.762

@<SCITEGIC>MOL_PROPERTY
VdW12
SciTegic.value.DoubleValue
3.972

@<SCITEGIC>MOL_PROPERTY
Bond
SciTegic.value.DoubleValue
0.078

@<SCITEGIC>MOL_PROPERTY
Angle
SciTegic.value.DoubleValue
2.428

@<SCITEGIC>MOL_PROPERTY
Pdih
SciTegic.value.DoubleValue
3.616

@<SCITEGIC>MOL_PROPERTY
Idih
SciTegic.value.DoubleValue
0.002

@<SCITEGIC>MOL_PROPERTY
Tether
SciTegic.value.DoubleValue
0.000

@<TRIPOS>MOLECULE
guest-6_confgen4.mol2 : confsearch ligand conformer 825
          13          12           1
SMALL
USER_CHARGES
 
@<TRIPOS>ATOM
       1    C1      17.987491   19.054630   22.455563 C.2        1 MOL1         0.6021
       2    O1      17.767791   20.247043   22.370649 O.co2      1 MOL1        -0.6904
       3    O2      17.152572   18.252809   22.822700 O.co2      1 MOL1        -0.6904
       4    C2      19.369013   18.507821   22.090761 C.3        1 MOL1        -0.2102
       5    H1      19.227561   17.760366   21.301051 H          1 MOL1         0.0687
       6    H2      19.753637   17.976452   22.969423 H          1 MOL1         0.0687
       7    C3      20.402198   19.568017   21.627653 C.3        1 MOL1        -0.1974
       8    H3      20.013587   20.101336   20.748842 H          1 MOL1         0.0689
       9    H4      20.540257   20.317737   22.419242 H          1 MOL1         0.0689
      10    C4      21.761082   18.926109   21.282369 C.3        1 MOL1        -0.2987
      11    H5      21.654998   18.194122   20.470911 H          1 MOL1         0.0700
      12    H6      22.478342   19.690987   20.957166 H          1 MOL1         0.0700
      13    H7      22.185863   18.412216   22.154722 H          1 MOL1         0.0700
@<TRIPOS>BOND
    1     1     2    1
    2     1     3    2
    3     1     4    1
    4     4     5    1
    5     4     6    1
    6     4     7    1
    7     7     8    1
    8     7     9    1
    9     7    10    1
   10    10    11    1
   11    10    12    1
   12    10    13    1
@<TRIPOS>SUBSTRUCTURE
       1 MOL1            1 RESIDUE      1      MOL     
@<SCITEGIC>MOL_PROPERTY
VConf Rank
SciTegic.value.IntegerValue
825

@<SCITEGIC>MOL_PROPERTY
Conf_Id
SciTegic.value.IntegerValue
0

@<SCITEGIC>MOL_PROPERTY
Delta U+W
SciTegic.value.DoubleValue
0.000

@<SCITEGIC>MOL_PROPERTY
U+W
SciTegic.value.DoubleValue
-58.332

@<SCITEGIC>MOL_PROPERTY
Grad RMS
SciTegic.value.DoubleValue
0.000000

@<SCITEGIC>MOL_PROPERTY
U
SciTegic.value.DoubleValue
8.390

@<SCITEGIC>MOL_PROPERTY
W
SciTegic.value.DoubleValue
-66.722

@<SCITEGIC>MOL_PROPERTY
W(PB)
SciTegic.value.DoubleValue
-68.455

@<SCITEGIC>MOL_PROPERTY
W(SA)
SciTegic.value.DoubleValue
1.733

@<SCITEGIC>MOL_PROPERTY
Valence
SciTegic.value.DoubleValue
6.333

@<SCITEGIC>MOL_PROPERTY
Coulomb
SciTegic.value.DoubleValue
1.215

@<SCITEGIC>MOL_PROPERTY
VdW
SciTegic.value.DoubleValue
0.842

@<SCITEGIC>MOL_PROPERTY
VdW6
SciTegic.value.DoubleValue
-3.344

@<SCITEGIC>MOL_PROPERTY
VdW12
SciTegic.value.DoubleValue
4.186

@<SCITEGIC>MOL_PROPERTY
Bond
SciTegic.value.DoubleValue
0.091

@<SCITEGIC>MOL_PROPERTY
Angle
SciTegic.value.DoubleValue
2.713

@<SCITEGIC>MOL_PROPERTY
Pdih
SciTegic.value.DoubleValue
3.529

@<SCITEGIC>MOL_PROPERTY
Idih
SciTegic.value.DoubleValue
0.000

@<SCITEGIC>MOL_PROPERTY
Tether
SciTegic.value.DoubleValue
0.000

@<TRIPOS>MOLECULE
guest-6_confgen4.mol2 : confsearch ligand conformer 826
          13          12           1
SMALL
USER_CHARGES
 
@<TRIPOS>ATOM
       1    C1      18.421710   17.828330   21.100281 C.2        1 MOL1         0.6021
       2    O1      17.456641   18.415986   20.654563 O.co2      1 MOL1        -0.6904
       3    O2      18.375486   16.694963   21.534682 O.co2      1 MOL1        -0.6904
       4    C2      19.759477   18.559607   21.133623 C.3        1 MOL1        -0.2102
       5    H1      19.799226   19.238067   20.272734 H          1 MOL1         0.0687
       6    H2      20.556960   17.818806   20.998511 H          1 MOL1         0.0687
       7    C3      19.983416   19.350010   22.445478 C.3        1 MOL1        -0.1974
       8    H3      19.173765   20.081757   22.575218 H          1 MOL1         0.0689
       9    H4      19.931768   18.662217   23.301105 H          1 MOL1         0.0689
      10    C4      21.343000   20.077207   22.447820 C.3        1 MOL1        -0.2987
      11    H5      21.483486   20.631443   23.385023 H          1 MOL1         0.0700
      12    H6      22.170791   19.362649   22.349206 H          1 MOL1         0.0700
      13    H7      21.406947   20.793097   21.617779 H          1 MOL1         0.0700
@<TRIPOS>BOND
    1     1     2    1
    2     1     3    2
    3     1     4    1
    4     4     5    1
    5     4     6    1
    6     4     7    1
    7     7     8    1
    8     7     9    1
    9     7    10    1
   10    10    11    1
   11    10    12    1
   12    10    13    1
@<TRIPOS>SUBSTRUCTURE
       1 MOL1            1 RESIDUE      1      MOL     
@<SCITEGIC>MOL_PROPERTY
VConf Rank
SciTegic.value.IntegerValue
826

@<SCITEGIC>MOL_PROPERTY
Conf_Id
SciTegic.value.IntegerValue
1

@<SCITEGIC>MOL_PROPERTY
Delta U+W
SciTegic.value.DoubleValue
-1.339

@<SCITEGIC>MOL_PROPERTY
U+W
SciTegic.value.DoubleValue
-59.672

@<SCITEGIC>MOL_PROPERTY
Grad RMS
SciTegic.value.DoubleValue
0.000000

@<SCITEGIC>MOL_PROPERTY
U
SciTegic.value.DoubleValue
7.389

@<SCITEGIC>MOL_PROPERTY
W
SciTegic.value.DoubleValue
-67.061

@<SCITEGIC>MOL_PROPERTY
W(PB)
SciTegic.value.DoubleValue
-68.767

@<SCITEGIC>MOL_PROPERTY
W(SA)
SciTegic.value.DoubleValue
1.707

@<SCITEGIC>MOL_PROPERTY
Valence
SciTegic.value.DoubleValue
5.822

@<SCITEGIC>MOL_PROPERTY
Coulomb
SciTegic.value.DoubleValue
1.255

@<SCITEGIC>MOL_PROPERTY
VdW
SciTegic.value.DoubleValue
0.312

@<SCITEGIC>MOL_PROPERTY
VdW6
SciTegic.value.DoubleValue
-3.061

@<SCITEGIC>MOL_PROPERTY
VdW12
SciTegic.value.DoubleValue
3.372

@<SCITEGIC>MOL_PROPERTY
Bond
SciTegic.value.DoubleValue
0.059

@<SCITEGIC>MOL_PROPERTY
Angle
SciTegic.value.DoubleValue
2.241

@<SCITEGIC>MOL_PROPERTY
Pdih
SciTegic.value.DoubleValue
3.522

@<SCITEGIC>MOL_PROPERTY
Idih
SciTegic.value.DoubleValue
0.000

@<SCITEGIC>MOL_PROPERTY
Tether
SciTegic.value.DoubleValue
0.000

@<TRIPOS>MOLECULE
guest-6_confgen4.mol2 : confsearch ligand conformer 827
          13          12           1
SMALL
USER_CHARGES
 
@<TRIPOS>ATOM
       1    C1      19.532658   17.276725   22.011667 C.2        1 MOL1         0.6021
       2    O1      19.559202   16.711649   23.086880 O.co2      1 MOL1        -0.6904
       3    O2      18.623846   17.156710   21.214446 O.co2      1 MOL1        -0.6904
       4    C2      20.721795   18.154729   21.629842 C.3        1 MOL1        -0.2102
       5    H1      20.701340   18.322129   20.545939 H          1 MOL1         0.0687
       6    H2      21.632610   17.583240   21.844791 H          1 MOL1         0.0687
       7    C3      20.775484   19.511121   22.378613 C.3        1 MOL1        -0.1974
       8    H3      20.753836   19.333636   23.463027 H          1 MOL1         0.0689
       9    H4      21.731366   20.005951   22.158829 H          1 MOL1         0.0689
      10    C4      19.618476   20.451014   21.981295 C.3        1 MOL1        -0.2987
      11    H5      18.645618   20.005676   22.228375 H          1 MOL1         0.0700
      12    H6      19.697196   21.407874   22.513572 H          1 MOL1         0.0700
      13    H7      19.634756   20.659555   20.903502 H          1 MOL1         0.0700
@<TRIPOS>BOND
    1     1     2    1
    2     1     3    2
    3     1     4    1
    4     4     5    1
    5     4     6    1
    6     4     7    1
    7     7     8    1
    8     7     9    1
    9     7    10    1
   10    10    11    1
   11    10    12    1
   12    10    13    1
@<TRIPOS>SUBSTRUCTURE
       1 MOL1            1 RESIDUE      1      MOL     
@<SCITEGIC>MOL_PROPERTY
VConf Rank
SciTegic.value.IntegerValue
827

@<SCITEGIC>MOL_PROPERTY
Conf_Id
SciTegic.value.IntegerValue
4

@<SCITEGIC>MOL_PROPERTY
Delta U+W
SciTegic.value.DoubleValue
0.281

@<SCITEGIC>MOL_PROPERTY
U+W
SciTegic.value.DoubleValue
-58.051

@<SCITEGIC>MOL_PROPERTY
Grad RMS
SciTegic.value.DoubleValue
0.000000

@<SCITEGIC>MOL_PROPERTY
U
SciTegic.value.DoubleValue
9.781

@<SCITEGIC>MOL_PROPERTY
W
SciTegic.value.DoubleValue
-67.832

@<SCITEGIC>MOL_PROPERTY
W(PB)
SciTegic.value.DoubleValue
-69.535

@<SCITEGIC>MOL_PROPERTY
W(SA)
SciTegic.value.DoubleValue
1.703

@<SCITEGIC>MOL_PROPERTY
Valence
SciTegic.value.DoubleValue
6.123

@<SCITEGIC>MOL_PROPERTY
Coulomb
SciTegic.value.DoubleValue
3.449

@<SCITEGIC>MOL_PROPERTY
VdW
SciTegic.value.DoubleValue
0.209

@<SCITEGIC>MOL_PROPERTY
VdW6
SciTegic.value.DoubleValue
-3.762

@<SCITEGIC>MOL_PROPERTY
VdW12
SciTegic.value.DoubleValue
3.972

@<SCITEGIC>MOL_PROPERTY
Bond
SciTegic.value.DoubleValue
0.078

@<SCITEGIC>MOL_PROPERTY
Angle
SciTegic.value.DoubleValue
2.428

@<SCITEGIC>MOL_PROPERTY
Pdih
SciTegic.value.DoubleValue
3.616

@<SCITEGIC>MOL_PROPERTY
Idih
SciTegic.value.DoubleValue
0.002

@<SCITEGIC>MOL_PROPERTY
Tether
SciTegic.value.DoubleValue
0.000

@<TRIPOS>MOLECULE
guest-6_confgen4.mol2 : confsearch ligand conformer 828
          13          12           1
SMALL
USER_CHARGES
 
@<TRIPOS>ATOM
       1    C1      18.986021   17.881293   22.863227 C.2        1 MOL1         0.6021
       2    O1      18.459145   17.126066   22.070801 O.co2      1 MOL1        -0.6904
       3    O2      19.317776   17.550721   23.984279 O.co2      1 MOL1        -0.6904
       4    C2      19.211668   19.331685   22.443500 C.3        1 MOL1        -0.2102
       5    H1      18.842464   19.968523   23.256219 H          1 MOL1         0.0687
       6    H2      18.588534   19.544669   21.566216 H          1 MOL1         0.0687
       7    C3      20.691806   19.683019   22.145016 C.3        1 MOL1        -0.1974
       8    H3      20.782057   20.768343   22.000795 H          1 MOL1         0.0689
       9    H4      21.313049   19.427361   23.014853 H          1 MOL1         0.0689
      10    C4      21.228549   18.961765   20.891370 C.3        1 MOL1        -0.2987
      11    H5      20.634769   19.221077   20.005045 H          1 MOL1         0.0700
      12    H6      22.270684   19.247092   20.697363 H          1 MOL1         0.0700
      13    H7      21.194487   17.871561   21.018334 H          1 MOL1         0.0700
@<TRIPOS>BOND
    1     1     2    1
    2     1     3    2
    3     1     4    1
    4     4     5    1
    5     4     6    1
    6     4     7    1
    7     7     8    1
    8     7     9    1
    9     7    10    1
   10    10    11    1
   11    10    12    1
   12    10    13    1
@<TRIPOS>SUBSTRUCTURE
       1 MOL1            1 RESIDUE      1      MOL     
@<SCITEGIC>MOL_PROPERTY
VConf Rank
SciTegic.value.IntegerValue
828

@<SCITEGIC>MOL_PROPERTY
Conf_Id
SciTegic.value.IntegerValue
36

@<SCITEGIC>MOL_PROPERTY
Delta U+W
SciTegic.value.DoubleValue
0.272

@<SCITEGIC>MOL_PROPERTY
U+W
SciTegic.value.DoubleValue
-58.060

@<SCITEGIC>MOL_PROPERTY
Grad RMS
SciTegic.value.DoubleValue
0.000000

@<SCITEGIC>MOL_PROPERTY
U
SciTegic.value.DoubleValue
9.781

@<SCITEGIC>MOL_PROPERTY
W
SciTegic.value.DoubleValue
-67.841

@<SCITEGIC>MOL_PROPERTY
W(PB)
SciTegic.value.DoubleValue
-69.537

@<SCITEGIC>MOL_PROPERTY
W(SA)
SciTegic.value.DoubleValue
1.696

@<SCITEGIC>MOL_PROPERTY
Valence
SciTegic.value.DoubleValue
6.123

@<SCITEGIC>MOL_PROPERTY
Coulomb
SciTegic.value.DoubleValue
3.449

@<SCITEGIC>MOL_PROPERTY
VdW
SciTegic.value.DoubleValue
0.209

@<SCITEGIC>MOL_PROPERTY
VdW6
SciTegic.value.DoubleValue
-3.762

@<SCITEGIC>MOL_PROPERTY
VdW12
SciTegic.value.DoubleValue
3.972

@<SCITEGIC>MOL_PROPERTY
Bond
SciTegic.value.DoubleValue
0.078

@<SCITEGIC>MOL_PROPERTY
Angle
SciTegic.value.DoubleValue
2.428

@<SCITEGIC>MOL_PROPERTY
Pdih
SciTegic.value.DoubleValue
3.616

@<SCITEGIC>MOL_PROPERTY
Idih
SciTegic.value.DoubleValue
0.002

@<SCITEGIC>MOL_PROPERTY
Tether
SciTegic.value.DoubleValue
0.000

@<TRIPOS>MOLECULE
guest-6_confgen4.mol2 : confsearch ligand conformer 829
          13          12           1
SMALL
USER_CHARGES
 
@<TRIPOS>ATOM
       1    C1      20.248779   20.141337   23.608453 C.2        1 MOL1         0.6021
       2    O1      19.786208   21.204732   23.244381 O.co2      1 MOL1        -0.6904
       3    O2      20.679890   19.956451   24.728612 O.co2      1 MOL1        -0.6904
       4    C2      20.304752   18.962789   22.634505 C.3        1 MOL1        -0.2102
       5    H1      19.752426   18.133233   23.091791 H          1 MOL1         0.0687
       6    H2      21.352500   18.647906   22.560952 H          1 MOL1         0.0687
       7    C3      19.743372   19.245440   21.216436 C.3        1 MOL1        -0.1974
       8    H3      18.694225   19.563630   21.292601 H          1 MOL1         0.0689
       9    H4      20.296221   20.078993   20.761132 H          1 MOL1         0.0689
      10    C4      19.841214   18.003775   20.307300 C.3        1 MOL1        -0.2987
      11    H5      19.270133   17.164500   20.725639 H          1 MOL1         0.0700
      12    H6      19.439673   18.222880   19.309295 H          1 MOL1         0.0700
      13    H7      20.884997   17.683978   20.189954 H          1 MOL1         0.0700
@<TRIPOS>BOND
    1     1     2    1
    2     1     3    2
    3     1     4    1
    4     4     5    1
    5     4     6    1
    6     4     7    1
    7     7     8    1
    8     7     9    1
    9     7    10    1
   10    10    11    1
   11    10    12    1
   12    10    13    1
@<TRIPOS>SUBSTRUCTURE
       1 MOL1            1 RESIDUE      1      MOL     
@<SCITEGIC>MOL_PROPERTY
VConf Rank
SciTegic.value.IntegerValue
829

@<SCITEGIC>MOL_PROPERTY
Conf_Id
SciTegic.value.IntegerValue
0

@<SCITEGIC>MOL_PROPERTY
Delta U+W
SciTegic.value.DoubleValue
0.000

@<SCITEGIC>MOL_PROPERTY
U+W
SciTegic.value.DoubleValue
-58.332

@<SCITEGIC>MOL_PROPERTY
Grad RMS
SciTegic.value.DoubleValue
0.000000

@<SCITEGIC>MOL_PROPERTY
U
SciTegic.value.DoubleValue
8.390

@<SCITEGIC>MOL_PROPERTY
W
SciTegic.value.DoubleValue
-66.722

@<SCITEGIC>MOL_PROPERTY
W(PB)
SciTegic.value.DoubleValue
-68.455

@<SCITEGIC>MOL_PROPERTY
W(SA)
SciTegic.value.DoubleValue
1.733

@<SCITEGIC>MOL_PROPERTY
Valence
SciTegic.value.DoubleValue
6.333

@<SCITEGIC>MOL_PROPERTY
Coulomb
SciTegic.value.DoubleValue
1.215

@<SCITEGIC>MOL_PROPERTY
VdW
SciTegic.value.DoubleValue
0.842

@<SCITEGIC>MOL_PROPERTY
VdW6
SciTegic.value.DoubleValue
-3.344

@<SCITEGIC>MOL_PROPERTY
VdW12
SciTegic.value.DoubleValue
4.186

@<SCITEGIC>MOL_PROPERTY
Bond
SciTegic.value.DoubleValue
0.091

@<SCITEGIC>MOL_PROPERTY
Angle
SciTegic.value.DoubleValue
2.713

@<SCITEGIC>MOL_PROPERTY
Pdih
SciTegic.value.DoubleValue
3.529

@<SCITEGIC>MOL_PROPERTY
Idih
SciTegic.value.DoubleValue
0.000

@<SCITEGIC>MOL_PROPERTY
Tether
SciTegic.value.DoubleValue
0.000

@<TRIPOS>MOLECULE
guest-6_confgen4.mol2 : confsearch ligand conformer 830
          13          12           1
SMALL
USER_CHARGES
 
@<TRIPOS>ATOM
       1    C1      17.920857   19.420071   21.641173 C.2        1 MOL1         0.6021
       2    O1      17.200471   18.443216   21.594722 O.co2      1 MOL1        -0.6904
       3    O2      17.617495   20.500265   21.175863 O.co2      1 MOL1        -0.6904
       4    C2      19.287489   19.277707   22.302649 C.3        1 MOL1        -0.2102
       5    H1      19.200382   18.541808   23.111280 H          1 MOL1         0.0687
       6    H2      19.544273   20.238173   22.765882 H          1 MOL1         0.0687
       7    C3      20.397002   18.850949   21.311334 C.3        1 MOL1        -0.1974
       8    H3      20.124447   17.893168   20.846371 H          1 MOL1         0.0689
       9    H4      20.468486   19.589907   20.500992 H          1 MOL1         0.0689
      10    C4      21.764705   18.715878   22.010215 C.3        1 MOL1        -0.2987
      11    H5      22.537751   18.412947   21.291958 H          1 MOL1         0.0700
      12    H6      22.072997   19.669913   22.457796 H          1 MOL1         0.0700
      13    H7      21.726320   17.960135   22.805788 H          1 MOL1         0.0700
@<TRIPOS>BOND
    1     1     2    1
    2     1     3    2
    3     1     4    1
    4     4     5    1
    5     4     6    1
    6     4     7    1
    7     7     8    1
    8     7     9    1
    9     7    10    1
   10    10    11    1
   11    10    12    1
   12    10    13    1
@<TRIPOS>SUBSTRUCTURE
       1 MOL1            1 RESIDUE      1      MOL     
@<SCITEGIC>MOL_PROPERTY
VConf Rank
SciTegic.value.IntegerValue
830

@<SCITEGIC>MOL_PROPERTY
Conf_Id
SciTegic.value.IntegerValue
1

@<SCITEGIC>MOL_PROPERTY
Delta U+W
SciTegic.value.DoubleValue
-1.339

@<SCITEGIC>MOL_PROPERTY
U+W
SciTegic.value.DoubleValue
-59.672

@<SCITEGIC>MOL_PROPERTY
Grad RMS
SciTegic.value.DoubleValue
0.000000

@<SCITEGIC>MOL_PROPERTY
U
SciTegic.value.DoubleValue
7.389

@<SCITEGIC>MOL_PROPERTY
W
SciTegic.value.DoubleValue
-67.061

@<SCITEGIC>MOL_PROPERTY
W(PB)
SciTegic.value.DoubleValue
-68.767

@<SCITEGIC>MOL_PROPERTY
W(SA)
SciTegic.value.DoubleValue
1.707

@<SCITEGIC>MOL_PROPERTY
Valence
SciTegic.value.DoubleValue
5.822

@<SCITEGIC>MOL_PROPERTY
Coulomb
SciTegic.value.DoubleValue
1.255

@<SCITEGIC>MOL_PROPERTY
VdW
SciTegic.value.DoubleValue
0.312

@<SCITEGIC>MOL_PROPERTY
VdW6
SciTegic.value.DoubleValue
-3.061

@<SCITEGIC>MOL_PROPERTY
VdW12
SciTegic.value.DoubleValue
3.372

@<SCITEGIC>MOL_PROPERTY
Bond
SciTegic.value.DoubleValue
0.059

@<SCITEGIC>MOL_PROPERTY
Angle
SciTegic.value.DoubleValue
2.241

@<SCITEGIC>MOL_PROPERTY
Pdih
SciTegic.value.DoubleValue
3.522

@<SCITEGIC>MOL_PROPERTY
Idih
SciTegic.value.DoubleValue
0.000

@<SCITEGIC>MOL_PROPERTY
Tether
SciTegic.value.DoubleValue
0.000

@<TRIPOS>MOLECULE
guest-6_confgen4.mol2 : confsearch ligand conformer 831
          13          12           1
SMALL
USER_CHARGES
 
@<TRIPOS>ATOM
       1    C1      19.672215   18.715367   20.281803 C.2        1 MOL1         0.6021
       2    O1      18.519926   18.389198   20.077006 O.co2      1 MOL1        -0.6904
       3    O2      20.281287   19.498184   19.580280 O.co2      1 MOL1        -0.6904
       4    C2      20.401897   18.079311   21.462364 C.3        1 MOL1        -0.2102
       5    H1      21.481282   18.217586   21.324175 H          1 MOL1         0.0687
       6    H2      20.213058   16.999974   21.420447 H          1 MOL1         0.0687
       7    C3      19.966558   18.625489   22.846383 C.3        1 MOL1        -0.1974
       8    H3      18.878256   18.519909   22.957626 H          1 MOL1         0.0689
       9    H4      20.425248   18.013742   23.635206 H          1 MOL1         0.0689
      10    C4      20.370807   20.099879   23.052993 C.3        1 MOL1        -0.2987
      11    H5      19.893406   20.748354   22.306404 H          1 MOL1         0.0700
      12    H6      20.065923   20.448780   24.048186 H          1 MOL1         0.0700
      13    H7      21.458321   20.224236   22.967902 H          1 MOL1         0.0700
@<TRIPOS>BOND
    1     1     2    1
    2     1     3    2
    3     1     4    1
    4     4     5    1
    5     4     6    1
    6     4     7    1
    7     7     8    1
    8     7     9    1
    9     7    10    1
   10    10    11    1
   11    10    12    1
   12    10    13    1
@<TRIPOS>SUBSTRUCTURE
       1 MOL1            1 RESIDUE      1      MOL     
@<SCITEGIC>MOL_PROPERTY
VConf Rank
SciTegic.value.IntegerValue
831

@<SCITEGIC>MOL_PROPERTY
Conf_Id
SciTegic.value.IntegerValue
4

@<SCITEGIC>MOL_PROPERTY
Delta U+W
SciTegic.value.DoubleValue
0.281

@<SCITEGIC>MOL_PROPERTY
U+W
SciTegic.value.DoubleValue
-58.051

@<SCITEGIC>MOL_PROPERTY
Grad RMS
SciTegic.value.DoubleValue
0.000000

@<SCITEGIC>MOL_PROPERTY
U
SciTegic.value.DoubleValue
9.781

@<SCITEGIC>MOL_PROPERTY
W
SciTegic.value.DoubleValue
-67.832

@<SCITEGIC>MOL_PROPERTY
W(PB)
SciTegic.value.DoubleValue
-69.535

@<SCITEGIC>MOL_PROPERTY
W(SA)
SciTegic.value.DoubleValue
1.703

@<SCITEGIC>MOL_PROPERTY
Valence
SciTegic.value.DoubleValue
6.123

@<SCITEGIC>MOL_PROPERTY
Coulomb
SciTegic.value.DoubleValue
3.449

@<SCITEGIC>MOL_PROPERTY
VdW
SciTegic.value.DoubleValue
0.209

@<SCITEGIC>MOL_PROPERTY
VdW6
SciTegic.value.DoubleValue
-3.762

@<SCITEGIC>MOL_PROPERTY
VdW12
SciTegic.value.DoubleValue
3.972

@<SCITEGIC>MOL_PROPERTY
Bond
SciTegic.value.DoubleValue
0.078

@<SCITEGIC>MOL_PROPERTY
Angle
SciTegic.value.DoubleValue
2.428

@<SCITEGIC>MOL_PROPERTY
Pdih
SciTegic.value.DoubleValue
3.616

@<SCITEGIC>MOL_PROPERTY
Idih
SciTegic.value.DoubleValue
0.002

@<SCITEGIC>MOL_PROPERTY
Tether
SciTegic.value.DoubleValue
0.000

@<TRIPOS>MOLECULE
guest-6_confgen4.mol2 : confsearch ligand conformer 832
          13          12           1
SMALL
USER_CHARGES
 
@<TRIPOS>ATOM
       1    C1      21.748545   19.688806   22.167574 C.2        1 MOL1         0.6021
       2    O1      22.352070   19.584050   21.118437 O.co2      1 MOL1        -0.6904
       3    O2      21.828814   20.660782   22.892086 O.co2      1 MOL1        -0.6904
       4    C2      20.870382   18.524443   22.619033 C.3        1 MOL1        -0.2102
       5    H1      21.115478   18.317380   23.667574 H          1 MOL1         0.0687
       6    H2      21.149121   17.631371   22.046309 H          1 MOL1         0.0687
       7    C3      19.348542   18.789299   22.487921 C.3        1 MOL1        -0.1974
       8    H3      18.797815   17.970372   22.970548 H          1 MOL1         0.0689
       9    H4      19.087163   19.708519   23.030726 H          1 MOL1         0.0689
      10    C4      18.893867   18.904896   21.018283 C.3        1 MOL1        -0.2987
      11    H5      19.125815   17.986981   20.462384 H          1 MOL1         0.0700
      12    H6      17.810474   19.072295   20.960554 H          1 MOL1         0.0700
      13    H7      19.392925   19.743983   20.515589 H          1 MOL1         0.0700
@<TRIPOS>BOND
    1     1     2    1
    2     1     3    2
    3     1     4    1
    4     4     5    1
    5     4     6    1
    6     4     7    1
    7     7     8    1
    8     7     9    1
    9     7    10    1
   10    10    11    1
   11    10    12    1
   12    10    13    1
@<TRIPOS>SUBSTRUCTURE
       1 MOL1            1 RESIDUE      1      MOL     
@<SCITEGIC>MOL_PROPERTY
VConf Rank
SciTegic.value.IntegerValue
832

@<SCITEGIC>MOL_PROPERTY
Conf_Id
SciTegic.value.IntegerValue
36

@<SCITEGIC>MOL_PROPERTY
Delta U+W
SciTegic.value.DoubleValue
0.272

@<SCITEGIC>MOL_PROPERTY
U+W
SciTegic.value.DoubleValue
-58.060

@<SCITEGIC>MOL_PROPERTY
Grad RMS
SciTegic.value.DoubleValue
0.000000

@<SCITEGIC>MOL_PROPERTY
U
SciTegic.value.DoubleValue
9.781

@<SCITEGIC>MOL_PROPERTY
W
SciTegic.value.DoubleValue
-67.841

@<SCITEGIC>MOL_PROPERTY
W(PB)
SciTegic.value.DoubleValue
-69.537

@<SCITEGIC>MOL_PROPERTY
W(SA)
SciTegic.value.DoubleValue
1.696

@<SCITEGIC>MOL_PROPERTY
Valence
SciTegic.value.DoubleValue
6.123

@<SCITEGIC>MOL_PROPERTY
Coulomb
SciTegic.value.DoubleValue
3.449

@<SCITEGIC>MOL_PROPERTY
VdW
SciTegic.value.DoubleValue
0.209

@<SCITEGIC>MOL_PROPERTY
VdW6
SciTegic.value.DoubleValue
-3.762

@<SCITEGIC>MOL_PROPERTY
VdW12
SciTegic.value.DoubleValue
3.972

@<SCITEGIC>MOL_PROPERTY
Bond
SciTegic.value.DoubleValue
0.078

@<SCITEGIC>MOL_PROPERTY
Angle
SciTegic.value.DoubleValue
2.428

@<SCITEGIC>MOL_PROPERTY
Pdih
SciTegic.value.DoubleValue
3.616

@<SCITEGIC>MOL_PROPERTY
Idih
SciTegic.value.DoubleValue
0.002

@<SCITEGIC>MOL_PROPERTY
Tether
SciTegic.value.DoubleValue
0.000

@<TRIPOS>MOLECULE
guest-6_confgen4.mol2 : confsearch ligand conformer 833
          13          12           1
SMALL
USER_CHARGES
 
@<TRIPOS>ATOM
       1    C1      21.681483   17.854193   22.514609 C.2        1 MOL1         0.6021
       2    O1      22.500020   18.737862   22.677252 O.co2      1 MOL1        -0.6904
       3    O2      21.918096   16.684214   22.738124 O.co2      1 MOL1        -0.6904
       4    C2      20.280491   18.199278   22.005866 C.3        1 MOL1        -0.2102
       5    H1      19.562324   17.830398   22.747824 H          1 MOL1         0.0687
       6    H2      20.114879   17.624777   21.086704 H          1 MOL1         0.0687
       7    C3      20.024319   19.704796   21.734299 C.3        1 MOL1        -0.1974
       8    H3      20.193643   20.279049   22.655884 H          1 MOL1         0.0689
       9    H4      20.746931   20.073200   20.992770 H          1 MOL1         0.0689
      10    C4      18.590244   19.955847   21.226128 C.3        1 MOL1        -0.2987
      11    H5      17.848132   19.624038   21.964162 H          1 MOL1         0.0700
      12    H6      18.427973   21.025508   21.039711 H          1 MOL1         0.0700
      13    H7      18.405857   19.416484   20.287718 H          1 MOL1         0.0700
@<TRIPOS>BOND
    1     1     2    1
    2     1     3    2
    3     1     4    1
    4     4     5    1
    5     4     6    1
    6     4     7    1
    7     7     8    1
    8     7     9    1
    9     7    10    1
   10    10    11    1
   11    10    12    1
   12    10    13    1
@<TRIPOS>SUBSTRUCTURE
       1 MOL1            1 RESIDUE      1      MOL     
@<SCITEGIC>MOL_PROPERTY
VConf Rank
SciTegic.value.IntegerValue
833

@<SCITEGIC>MOL_PROPERTY
Conf_Id
SciTegic.value.IntegerValue
0

@<SCITEGIC>MOL_PROPERTY
Delta U+W
SciTegic.value.DoubleValue
0.000

@<SCITEGIC>MOL_PROPERTY
U+W
SciTegic.value.DoubleValue
-58.332

@<SCITEGIC>MOL_PROPERTY
Grad RMS
SciTegic.value.DoubleValue
0.000000

@<SCITEGIC>MOL_PROPERTY
U
SciTegic.value.DoubleValue
8.390

@<SCITEGIC>MOL_PROPERTY
W
SciTegic.value.DoubleValue
-66.722

@<SCITEGIC>MOL_PROPERTY
W(PB)
SciTegic.value.DoubleValue
-68.455

@<SCITEGIC>MOL_PROPERTY
W(SA)
SciTegic.value.DoubleValue
1.733

@<SCITEGIC>MOL_PROPERTY
Valence
SciTegic.value.DoubleValue
6.333

@<SCITEGIC>MOL_PROPERTY
Coulomb
SciTegic.value.DoubleValue
1.215

@<SCITEGIC>MOL_PROPERTY
VdW
SciTegic.value.DoubleValue
0.842

@<SCITEGIC>MOL_PROPERTY
VdW6
SciTegic.value.DoubleValue
-3.344

@<SCITEGIC>MOL_PROPERTY
VdW12
SciTegic.value.DoubleValue
4.186

@<SCITEGIC>MOL_PROPERTY
Bond
SciTegic.value.DoubleValue
0.091

@<SCITEGIC>MOL_PROPERTY
Angle
SciTegic.value.DoubleValue
2.713

@<SCITEGIC>MOL_PROPERTY
Pdih
SciTegic.value.DoubleValue
3.529

@<SCITEGIC>MOL_PROPERTY
Idih
SciTegic.value.DoubleValue
0.000

@<SCITEGIC>MOL_PROPERTY
Tether
SciTegic.value.DoubleValue
0.000

@<TRIPOS>MOLECULE
guest-6_confgen4.mol2 : confsearch ligand conformer 834
          13          12           1
SMALL
USER_CHARGES
 
@<TRIPOS>ATOM
       1    C1      22.066185   19.421380   21.871400 C.2        1 MOL1         0.6021
       2    O1      22.784347   18.502929   21.530736 O.co2      1 MOL1        -0.6904
       3    O2      22.429520   20.322539   22.600277 O.co2      1 MOL1        -0.6904
       4    C2      20.625257   19.433745   21.372329 C.3        1 MOL1        -0.2102
       5    H1      20.605555   18.978230   20.374764 H          1 MOL1         0.0687
       6    H2      20.312953   20.478794   21.256752 H          1 MOL1         0.0687
       7    C3      19.652103   18.688449   22.317501 C.3        1 MOL1        -0.1974
       8    H3      19.980275   17.646023   22.433572 H          1 MOL1         0.0689
       9    H4      19.687525   19.146945   23.315674 H          1 MOL1         0.0689
      10    C4      18.205298   18.718954   21.785415 C.3        1 MOL1        -0.2987
      11    H5      17.530807   18.186071   22.468320 H          1 MOL1         0.0700
      12    H6      17.843925   19.751273   21.689062 H          1 MOL1         0.0700
      13    H7      18.138925   18.238804   20.800221 H          1 MOL1         0.0700
@<TRIPOS>BOND
    1     1     2    1
    2     1     3    2
    3     1     4    1
    4     4     5    1
    5     4     6    1
    6     4     7    1
    7     7     8    1
    8     7     9    1
    9     7    10    1
   10    10    11    1
   11    10    12    1
   12    10    13    1
@<TRIPOS>SUBSTRUCTURE
       1 MOL1            1 RESIDUE      1      MOL     
@<SCITEGIC>MOL_PROPERTY
VConf Rank
SciTegic.value.IntegerValue
834

@<SCITEGIC>MOL_PROPERTY
Conf_Id
SciTegic.value.IntegerValue
1

@<SCITEGIC>MOL_PROPERTY
Delta U+W
SciTegic.value.DoubleValue
-1.339

@<SCITEGIC>MOL_PROPERTY
U+W
SciTegic.value.DoubleValue
-59.672

@<SCITEGIC>MOL_PROPERTY
Grad RMS
SciTegic.value.DoubleValue
0.000000

@<SCITEGIC>MOL_PROPERTY
U
SciTegic.value.DoubleValue
7.389

@<SCITEGIC>MOL_PROPERTY
W
SciTegic.value.DoubleValue
-67.061

@<SCITEGIC>MOL_PROPERTY
W(PB)
SciTegic.value.DoubleValue
-68.767

@<SCITEGIC>MOL_PROPERTY
W(SA)
SciTegic.value.DoubleValue
1.707

@<SCITEGIC>MOL_PROPERTY
Valence
SciTegic.value.DoubleValue
5.822

@<SCITEGIC>MOL_PROPERTY
Coulomb
SciTegic.value.DoubleValue
1.255

@<SCITEGIC>MOL_PROPERTY
VdW
SciTegic.value.DoubleValue
0.312

@<SCITEGIC>MOL_PROPERTY
VdW6
SciTegic.value.DoubleValue
-3.061

@<SCITEGIC>MOL_PROPERTY
VdW12
SciTegic.value.DoubleValue
3.372

@<SCITEGIC>MOL_PROPERTY
Bond
SciTegic.value.DoubleValue
0.059

@<SCITEGIC>MOL_PROPERTY
Angle
SciTegic.value.DoubleValue
2.241

@<SCITEGIC>MOL_PROPERTY
Pdih
SciTegic.value.DoubleValue
3.522

@<SCITEGIC>MOL_PROPERTY
Idih
SciTegic.value.DoubleValue
0.000

@<SCITEGIC>MOL_PROPERTY
Tether
SciTegic.value.DoubleValue
0.000

@<TRIPOS>MOLECULE
guest-6_confgen4.mol2 : confsearch ligand conformer 835
          13          12           1
SMALL
USER_CHARGES
 
@<TRIPOS>ATOM
       1    C1      19.389259   20.472548   21.360994 C.2        1 MOL1         0.6021
       2    O1      18.200503   20.422268   21.115170 O.co2      1 MOL1        -0.6904
       3    O2      19.927733   21.435668   21.869276 O.co2      1 MOL1        -0.6904
       4    C2      20.255422   19.275388   20.977202 C.3        1 MOL1        -0.2102
       5    H1      21.305591   19.591931   20.961958 H          1 MOL1         0.0687
       6    H2      19.993322   18.998318   19.949135 H          1 MOL1         0.0687
       7    C3      20.082355   18.044056   21.903058 C.3        1 MOL1        -0.1974
       8    H3      19.021207   17.760801   21.943718 H          1 MOL1         0.0689
       9    H4      20.620662   17.189810   21.470204 H          1 MOL1         0.0689
      10    C4      20.608315   18.300176   23.330537 C.3        1 MOL1        -0.2987
      11    H5      20.060670   19.121519   23.811484 H          1 MOL1         0.0700
      12    H6      20.489081   17.404062   23.953319 H          1 MOL1         0.0700
      13    H7      21.674065   18.563463   23.314721 H          1 MOL1         0.0700
@<TRIPOS>BOND
    1     1     2    1
    2     1     3    2
    3     1     4    1
    4     4     5    1
    5     4     6    1
    6     4     7    1
    7     7     8    1
    8     7     9    1
    9     7    10    1
   10    10    11    1
   11    10    12    1
   12    10    13    1
@<TRIPOS>SUBSTRUCTURE
       1 MOL1            1 RESIDUE      1      MOL     
@<SCITEGIC>MOL_PROPERTY
VConf Rank
SciTegic.value.IntegerValue
835

@<SCITEGIC>MOL_PROPERTY
Conf_Id
SciTegic.value.IntegerValue
4

@<SCITEGIC>MOL_PROPERTY
Delta U+W
SciTegic.value.DoubleValue
0.281

@<SCITEGIC>MOL_PROPERTY
U+W
SciTegic.value.DoubleValue
-58.051

@<SCITEGIC>MOL_PROPERTY
Grad RMS
SciTegic.value.DoubleValue
0.000000

@<SCITEGIC>MOL_PROPERTY
U
SciTegic.value.DoubleValue
9.781

@<SCITEGIC>MOL_PROPERTY
W
SciTegic.value.DoubleValue
-67.832

@<SCITEGIC>MOL_PROPERTY
W(PB)
SciTegic.value.DoubleValue
-69.535

@<SCITEGIC>MOL_PROPERTY
W(SA)
SciTegic.value.DoubleValue
1.703

@<SCITEGIC>MOL_PROPERTY
Valence
SciTegic.value.DoubleValue
6.123

@<SCITEGIC>MOL_PROPERTY
Coulomb
SciTegic.value.DoubleValue
3.449

@<SCITEGIC>MOL_PROPERTY
VdW
SciTegic.value.DoubleValue
0.209

@<SCITEGIC>MOL_PROPERTY
VdW6
SciTegic.value.DoubleValue
-3.762

@<SCITEGIC>MOL_PROPERTY
VdW12
SciTegic.value.DoubleValue
3.972

@<SCITEGIC>MOL_PROPERTY
Bond
SciTegic.value.DoubleValue
0.078

@<SCITEGIC>MOL_PROPERTY
Angle
SciTegic.value.DoubleValue
2.428

@<SCITEGIC>MOL_PROPERTY
Pdih
SciTegic.value.DoubleValue
3.616

@<SCITEGIC>MOL_PROPERTY
Idih
SciTegic.value.DoubleValue
0.002

@<SCITEGIC>MOL_PROPERTY
Tether
SciTegic.value.DoubleValue
0.000

@<TRIPOS>MOLECULE
guest-6_confgen4.mol2 : confsearch ligand conformer 836
          13          12           1
SMALL
USER_CHARGES
 
@<TRIPOS>ATOM
       1    C1      21.772074   19.651282   22.064227 C.2        1 MOL1         0.6021
       2    O1      22.142934   19.706962   23.219765 O.co2      1 MOL1        -0.6904
       3    O2      22.505285   19.365072   21.138709 O.co2      1 MOL1        -0.6904
       4    C2      20.317415   19.993289   21.751619 C.3        1 MOL1        -0.2102
       5    H1      20.320438   20.697953   20.911484 H          1 MOL1         0.0687
       6    H2      19.889287   20.525582   22.609907 H          1 MOL1         0.0687
       7    C3      19.440161   18.766599   21.392462 C.3        1 MOL1        -0.1974
       8    H3      18.460624   19.115928   21.038417 H          1 MOL1         0.0689
       9    H4      19.899707   18.217331   20.558769 H          1 MOL1         0.0689
      10    C4      19.233594   17.817339   22.590862 C.3        1 MOL1        -0.2987
      11    H5      18.754583   18.341200   23.428424 H          1 MOL1         0.0700
      12    H6      18.593289   16.971536   22.308510 H          1 MOL1         0.0700
      13    H7      20.191618   17.413102   22.943862 H          1 MOL1         0.0700
@<TRIPOS>BOND
    1     1     2    1
    2     1     3    2
    3     1     4    1
    4     4     5    1
    5     4     6    1
    6     4     7    1
    7     7     8    1
    8     7     9    1
    9     7    10    1
   10    10    11    1
   11    10    12    1
   12    10    13    1
@<TRIPOS>SUBSTRUCTURE
       1 MOL1            1 RESIDUE      1      MOL     
@<SCITEGIC>MOL_PROPERTY
VConf Rank
SciTegic.value.IntegerValue
836

@<SCITEGIC>MOL_PROPERTY
Conf_Id
SciTegic.value.IntegerValue
36

@<SCITEGIC>MOL_PROPERTY
Delta U+W
SciTegic.value.DoubleValue
0.272

@<SCITEGIC>MOL_PROPERTY
U+W
SciTegic.value.DoubleValue
-58.060

@<SCITEGIC>MOL_PROPERTY
Grad RMS
SciTegic.value.DoubleValue
0.000000

@<SCITEGIC>MOL_PROPERTY
U
SciTegic.value.DoubleValue
9.781

@<SCITEGIC>MOL_PROPERTY
W
SciTegic.value.DoubleValue
-67.841

@<SCITEGIC>MOL_PROPERTY
W(PB)
SciTegic.value.DoubleValue
-69.537

@<SCITEGIC>MOL_PROPERTY
W(SA)
SciTegic.value.DoubleValue
1.696

@<SCITEGIC>MOL_PROPERTY
Valence
SciTegic.value.DoubleValue
6.123

@<SCITEGIC>MOL_PROPERTY
Coulomb
SciTegic.value.DoubleValue
3.449

@<SCITEGIC>MOL_PROPERTY
VdW
SciTegic.value.DoubleValue
0.209

@<SCITEGIC>MOL_PROPERTY
VdW6
SciTegic.value.DoubleValue
-3.762

@<SCITEGIC>MOL_PROPERTY
VdW12
SciTegic.value.DoubleValue
3.972

@<SCITEGIC>MOL_PROPERTY
Bond
SciTegic.value.DoubleValue
0.078

@<SCITEGIC>MOL_PROPERTY
Angle
SciTegic.value.DoubleValue
2.428

@<SCITEGIC>MOL_PROPERTY
Pdih
SciTegic.value.DoubleValue
3.616

@<SCITEGIC>MOL_PROPERTY
Idih
SciTegic.value.DoubleValue
0.002

@<SCITEGIC>MOL_PROPERTY
Tether
SciTegic.value.DoubleValue
0.000

@<TRIPOS>MOLECULE
guest-6_confgen4.mol2 : confsearch ligand conformer 837
          13          12           1
SMALL
USER_CHARGES
 
@<TRIPOS>ATOM
       1    C1      19.098295   17.319015   20.890802 C.2        1 MOL1         0.6021
       2    O1      19.151710   16.514586   21.800402 O.co2      1 MOL1        -0.6904
       3    O2      18.612852   17.061498   19.807832 O.co2      1 MOL1        -0.6904
       4    C2      19.659955   18.728416   21.087807 C.3        1 MOL1        -0.2102
       5    H1      18.846237   19.436148   20.889526 H          1 MOL1         0.0687
       6    H2      20.420031   18.889417   20.314049 H          1 MOL1         0.0687
       7    C3      20.269451   19.011405   22.485801 C.3        1 MOL1        -0.1974
       8    H3      19.506995   18.846674   23.259932 H          1 MOL1         0.0689
       9    H4      21.082683   18.299217   22.683784 H          1 MOL1         0.0689
      10    C4      20.808532   20.452296   22.590958 C.3        1 MOL1        -0.2987
      11    H5      20.006970   21.184616   22.427473 H          1 MOL1         0.0700
      12    H6      21.235405   20.633588   23.586031 H          1 MOL1         0.0700
      13    H7      21.595275   20.632768   21.846654 H          1 MOL1         0.0700
@<TRIPOS>BOND
    1     1     2    1
    2     1     3    2
    3     1     4    1
    4     4     5    1
    5     4     6    1
    6     4     7    1
    7     7     8    1
    8     7     9    1
    9     7    10    1
   10    10    11    1
   11    10    12    1
   12    10    13    1
@<TRIPOS>SUBSTRUCTURE
       1 MOL1            1 RESIDUE      1      MOL     
@<SCITEGIC>MOL_PROPERTY
VConf Rank
SciTegic.value.IntegerValue
837

@<SCITEGIC>MOL_PROPERTY
Conf_Id
SciTegic.value.IntegerValue
0

@<SCITEGIC>MOL_PROPERTY
Delta U+W
SciTegic.value.DoubleValue
0.000

@<SCITEGIC>MOL_PROPERTY
U+W
SciTegic.value.DoubleValue
-58.332

@<SCITEGIC>MOL_PROPERTY
Grad RMS
SciTegic.value.DoubleValue
0.000000

@<SCITEGIC>MOL_PROPERTY
U
SciTegic.value.DoubleValue
8.390

@<SCITEGIC>MOL_PROPERTY
W
SciTegic.value.DoubleValue
-66.722

@<SCITEGIC>MOL_PROPERTY
W(PB)
SciTegic.value.DoubleValue
-68.455

@<SCITEGIC>MOL_PROPERTY
W(SA)
SciTegic.value.DoubleValue
1.733

@<SCITEGIC>MOL_PROPERTY
Valence
SciTegic.value.DoubleValue
6.333

@<SCITEGIC>MOL_PROPERTY
Coulomb
SciTegic.value.DoubleValue
1.215

@<SCITEGIC>MOL_PROPERTY
VdW
SciTegic.value.DoubleValue
0.842

@<SCITEGIC>MOL_PROPERTY
VdW6
SciTegic.value.DoubleValue
-3.344

@<SCITEGIC>MOL_PROPERTY
VdW12
SciTegic.value.DoubleValue
4.186

@<SCITEGIC>MOL_PROPERTY
Bond
SciTegic.value.DoubleValue
0.091

@<SCITEGIC>MOL_PROPERTY
Angle
SciTegic.value.DoubleValue
2.713

@<SCITEGIC>MOL_PROPERTY
Pdih
SciTegic.value.DoubleValue
3.529

@<SCITEGIC>MOL_PROPERTY
Idih
SciTegic.value.DoubleValue
0.000

@<SCITEGIC>MOL_PROPERTY
Tether
SciTegic.value.DoubleValue
0.000

@<TRIPOS>MOLECULE
guest-6_confgen4.mol2 : confsearch ligand conformer 838
          13          12           1
SMALL
USER_CHARGES
 
@<TRIPOS>ATOM
       1    C1      21.236449   18.893748   20.133786 C.2        1 MOL1         0.6021
       2    O1      21.374267   19.910586   19.483857 O.co2      1 MOL1        -0.6904
       3    O2      21.385772   17.778915   19.675299 O.co2      1 MOL1        -0.6904
       4    C2      20.835984   19.023221   21.599516 C.3        1 MOL1        -0.2102
       5    H1      21.276777   19.947055   21.993534 H          1 MOL1         0.0687
       6    H2      21.286285   18.189159   22.151411 H          1 MOL1         0.0687
       7    C3      19.302290   19.033654   21.808135 C.3        1 MOL1        -0.1974
       8    H3      18.861233   19.866740   21.243106 H          1 MOL1         0.0689
       9    H4      18.870770   18.108471   21.401134 H          1 MOL1         0.0689
      10    C4      18.930651   19.165614   23.298693 C.3        1 MOL1        -0.2987
      11    H5      17.840268   19.171155   23.426348 H          1 MOL1         0.0700
      12    H6      19.335786   18.327025   23.880233 H          1 MOL1         0.0700
      13    H7      19.326143   20.098794   23.720970 H          1 MOL1         0.0700
@<TRIPOS>BOND
    1     1     2    1
    2     1     3    2
    3     1     4    1
    4     4     5    1
    5     4     6    1
    6     4     7    1
    7     7     8    1
    8     7     9    1
    9     7    10    1
   10    10    11    1
   11    10    12    1
   12    10    13    1
@<TRIPOS>SUBSTRUCTURE
       1 MOL1            1 RESIDUE      1      MOL     
@<SCITEGIC>MOL_PROPERTY
VConf Rank
SciTegic.value.IntegerValue
838

@<SCITEGIC>MOL_PROPERTY
Conf_Id
SciTegic.value.IntegerValue
1

@<SCITEGIC>MOL_PROPERTY
Delta U+W
SciTegic.value.DoubleValue
-1.339

@<SCITEGIC>MOL_PROPERTY
U+W
SciTegic.value.DoubleValue
-59.672

@<SCITEGIC>MOL_PROPERTY
Grad RMS
SciTegic.value.DoubleValue
0.000000

@<SCITEGIC>MOL_PROPERTY
U
SciTegic.value.DoubleValue
7.389

@<SCITEGIC>MOL_PROPERTY
W
SciTegic.value.DoubleValue
-67.061

@<SCITEGIC>MOL_PROPERTY
W(PB)
SciTegic.value.DoubleValue
-68.767

@<SCITEGIC>MOL_PROPERTY
W(SA)
SciTegic.value.DoubleValue
1.707

@<SCITEGIC>MOL_PROPERTY
Valence
SciTegic.value.DoubleValue
5.822

@<SCITEGIC>MOL_PROPERTY
Coulomb
SciTegic.value.DoubleValue
1.255

@<SCITEGIC>MOL_PROPERTY
VdW
SciTegic.value.DoubleValue
0.312

@<SCITEGIC>MOL_PROPERTY
VdW6
SciTegic.value.DoubleValue
-3.061

@<SCITEGIC>MOL_PROPERTY
VdW12
SciTegic.value.DoubleValue
3.372

@<SCITEGIC>MOL_PROPERTY
Bond
SciTegic.value.DoubleValue
0.059

@<SCITEGIC>MOL_PROPERTY
Angle
SciTegic.value.DoubleValue
2.241

@<SCITEGIC>MOL_PROPERTY
Pdih
SciTegic.value.DoubleValue
3.522

@<SCITEGIC>MOL_PROPERTY
Idih
SciTegic.value.DoubleValue
0.000

@<SCITEGIC>MOL_PROPERTY
Tether
SciTegic.value.DoubleValue
0.000

@<TRIPOS>MOLECULE
guest-6_confgen4.mol2 : confsearch ligand conformer 839
          13          12           1
SMALL
USER_CHARGES
 
@<TRIPOS>ATOM
       1    C1      20.195507   20.757834   21.962236 C.2        1 MOL1         0.6021
       2    O1      19.154414   21.337120   22.200252 O.co2      1 MOL1        -0.6904
       3    O2      21.277583   21.130936   22.369436 O.co2      1 MOL1        -0.6904
       4    C2      20.142573   19.516557   21.075016 C.3        1 MOL1        -0.2102
       5    H1      21.152349   19.309397   20.699885 H          1 MOL1         0.0687
       6    H2      19.525462   19.763941   20.203029 H          1 MOL1         0.0687
       7    C3      19.565051   18.259943   21.775536 C.3        1 MOL1        -0.1974
       8    H3      18.570924   18.490593   22.183499 H          1 MOL1         0.0689
       9    H4      19.423727   17.465378   21.030172 H          1 MOL1         0.0689
      10    C4      20.481787   17.737727   22.901064 C.3        1 MOL1        -0.2987
      11    H5      20.609726   18.492719   23.688114 H          1 MOL1         0.0700
      12    H6      20.054147   16.837918   23.362111 H          1 MOL1         0.0700
      13    H7      21.474935   17.479946   22.510427 H          1 MOL1         0.0700
@<TRIPOS>BOND
    1     1     2    1
    2     1     3    2
    3     1     4    1
    4     4     5    1
    5     4     6    1
    6     4     7    1
    7     7     8    1
    8     7     9    1
    9     7    10    1
   10    10    11    1
   11    10    12    1
   12    10    13    1
@<TRIPOS>SUBSTRUCTURE
       1 MOL1            1 RESIDUE      1      MOL     
@<SCITEGIC>MOL_PROPERTY
VConf Rank
SciTegic.value.IntegerValue
839

@<SCITEGIC>MOL_PROPERTY
Conf_Id
SciTegic.value.IntegerValue
4

@<SCITEGIC>MOL_PROPERTY
Delta U+W
SciTegic.value.DoubleValue
0.281

@<SCITEGIC>MOL_PROPERTY
U+W
SciTegic.value.DoubleValue
-58.051

@<SCITEGIC>MOL_PROPERTY
Grad RMS
SciTegic.value.DoubleValue
0.000000

@<SCITEGIC>MOL_PROPERTY
U
SciTegic.value.DoubleValue
9.781

@<SCITEGIC>MOL_PROPERTY
W
SciTegic.value.DoubleValue
-67.832

@<SCITEGIC>MOL_PROPERTY
W(PB)
SciTegic.value.DoubleValue
-69.535

@<SCITEGIC>MOL_PROPERTY
W(SA)
SciTegic.value.DoubleValue
1.703

@<SCITEGIC>MOL_PROPERTY
Valence
SciTegic.value.DoubleValue
6.123

@<SCITEGIC>MOL_PROPERTY
Coulomb
SciTegic.value.DoubleValue
3.449

@<SCITEGIC>MOL_PROPERTY
VdW
SciTegic.value.DoubleValue
0.209

@<SCITEGIC>MOL_PROPERTY
VdW6
SciTegic.value.DoubleValue
-3.762

@<SCITEGIC>MOL_PROPERTY
VdW12
SciTegic.value.DoubleValue
3.972

@<SCITEGIC>MOL_PROPERTY
Bond
SciTegic.value.DoubleValue
0.078

@<SCITEGIC>MOL_PROPERTY
Angle
SciTegic.value.DoubleValue
2.428

@<SCITEGIC>MOL_PROPERTY
Pdih
SciTegic.value.DoubleValue
3.616

@<SCITEGIC>MOL_PROPERTY
Idih
SciTegic.value.DoubleValue
0.002

@<SCITEGIC>MOL_PROPERTY
Tether
SciTegic.value.DoubleValue
0.000

@<TRIPOS>MOLECULE
guest-6_confgen4.mol2 : confsearch ligand conformer 840
          13          12           1
SMALL
USER_CHARGES
 
@<TRIPOS>ATOM
       1    C1      20.671822   19.993222   23.357485 C.2        1 MOL1         0.6021
       2    O1      21.006338   19.288251   24.288624 O.co2      1 MOL1        -0.6904
       3    O2      21.248913   21.017877   23.052286 O.co2      1 MOL1        -0.6904
       4    C2      19.440640   19.591729   22.548957 C.3        1 MOL1        -0.2102
       5    H1      18.808853   20.482609   22.451158 H          1 MOL1         0.0687
       6    H2      18.865395   18.857308   23.126024 H          1 MOL1         0.0687
       7    C3      19.762000   19.030407   21.140063 C.3        1 MOL1        -0.1974
       8    H3      18.825706   18.911558   20.577835 H          1 MOL1         0.0689
       9    H4      20.373227   19.756316   20.585646 H          1 MOL1         0.0689
      10    C4      20.490908   17.671998   21.197911 C.3        1 MOL1        -0.2987
      11    H5      19.886858   16.924826   21.729181 H          1 MOL1         0.0700
      12    H6      20.685554   17.294018   20.185814 H          1 MOL1         0.0700
      13    H7      21.454797   17.763056   21.716036 H          1 MOL1         0.0700
@<TRIPOS>BOND
    1     1     2    1
    2     1     3    2
    3     1     4    1
    4     4     5    1
    5     4     6    1
    6     4     7    1
    7     7     8    1
    8     7     9    1
    9     7    10    1
   10    10    11    1
   11    10    12    1
   12    10    13    1
@<TRIPOS>SUBSTRUCTURE
       1 MOL1            1 RESIDUE      1      MOL     
@<SCITEGIC>MOL_PROPERTY
VConf Rank
SciTegic.value.IntegerValue
840

@<SCITEGIC>MOL_PROPERTY
Conf_Id
SciTegic.value.IntegerValue
36

@<SCITEGIC>MOL_PROPERTY
Delta U+W
SciTegic.value.DoubleValue
0.272

@<SCITEGIC>MOL_PROPERTY
U+W
SciTegic.value.DoubleValue
-58.060

@<SCITEGIC>MOL_PROPERTY
Grad RMS
SciTegic.value.DoubleValue
0.000000

@<SCITEGIC>MOL_PROPERTY
U
SciTegic.value.DoubleValue
9.781

@<SCITEGIC>MOL_PROPERTY
W
SciTegic.value.DoubleValue
-67.841

@<SCITEGIC>MOL_PROPERTY
W(PB)
SciTegic.value.DoubleValue
-69.537

@<SCITEGIC>MOL_PROPERTY
W(SA)
SciTegic.value.DoubleValue
1.696

@<SCITEGIC>MOL_PROPERTY
Valence
SciTegic.value.DoubleValue
6.123

@<SCITEGIC>MOL_PROPERTY
Coulomb
SciTegic.value.DoubleValue
3.449

@<SCITEGIC>MOL_PROPERTY
VdW
SciTegic.value.DoubleValue
0.209

@<SCITEGIC>MOL_PROPERTY
VdW6
SciTegic.value.DoubleValue
-3.762

@<SCITEGIC>MOL_PROPERTY
VdW12
SciTegic.value.DoubleValue
3.972

@<SCITEGIC>MOL_PROPERTY
Bond
SciTegic.value.DoubleValue
0.078

@<SCITEGIC>MOL_PROPERTY
Angle
SciTegic.value.DoubleValue
2.428

@<SCITEGIC>MOL_PROPERTY
Pdih
SciTegic.value.DoubleValue
3.616

@<SCITEGIC>MOL_PROPERTY
Idih
SciTegic.value.DoubleValue
0.002

@<SCITEGIC>MOL_PROPERTY
Tether
SciTegic.value.DoubleValue
0.000

@<TRIPOS>MOLECULE
guest-6_confgen4.mol2 : confsearch ligand conformer 841
          13          12           1
SMALL
USER_CHARGES
 
@<TRIPOS>ATOM
       1    C1      21.843439   19.377235   22.865158 C.2        1 MOL1         0.6021
       2    O1      21.425873   19.452473   24.004152 O.co2      1 MOL1        -0.6904
       3    O2      23.016883   19.507875   22.580975 O.co2      1 MOL1        -0.6904
       4    C2      20.871517   19.106868   21.714962 C.3        1 MOL1        -0.2102
       5    H1      21.213119   18.198914   21.203820 H          1 MOL1         0.0687
       6    H2      20.970932   19.933002   21.000850 H          1 MOL1         0.0687
       7    C3      19.384242   18.947188   22.125415 C.3        1 MOL1        -0.1974
       8    H3      19.287225   18.120715   22.843249 H          1 MOL1         0.0689
       9    H4      19.044756   19.856914   22.640101 H          1 MOL1         0.0689
      10    C4      18.482118   18.678301   20.904061 C.3        1 MOL1        -0.2987
      11    H5      18.781984   17.755858   20.389568 H          1 MOL1         0.0700
      12    H6      17.434685   18.568318   21.213970 H          1 MOL1         0.0700
      13    H7      18.537618   19.505985   20.184768 H          1 MOL1         0.0700
@<TRIPOS>BOND
    1     1     2    1
    2     1     3    2
    3     1     4    1
    4     4     5    1
    5     4     6    1
    6     4     7    1
    7     7     8    1
    8     7     9    1
    9     7    10    1
   10    10    11    1
   11    10    12    1
   12    10    13    1
@<TRIPOS>SUBSTRUCTURE
       1 MOL1            1 RESIDUE      1      MOL     
@<SCITEGIC>MOL_PROPERTY
VConf Rank
SciTegic.value.IntegerValue
841

@<SCITEGIC>MOL_PROPERTY
Conf_Id
SciTegic.value.IntegerValue
0

@<SCITEGIC>MOL_PROPERTY
Delta U+W
SciTegic.value.DoubleValue
0.000

@<SCITEGIC>MOL_PROPERTY
U+W
SciTegic.value.DoubleValue
-58.332

@<SCITEGIC>MOL_PROPERTY
Grad RMS
SciTegic.value.DoubleValue
0.000000

@<SCITEGIC>MOL_PROPERTY
U
SciTegic.value.DoubleValue
8.390

@<SCITEGIC>MOL_PROPERTY
W
SciTegic.value.DoubleValue
-66.722

@<SCITEGIC>MOL_PROPERTY
W(PB)
SciTegic.value.DoubleValue
-68.455

@<SCITEGIC>MOL_PROPERTY
W(SA)
SciTegic.value.DoubleValue
1.733

@<SCITEGIC>MOL_PROPERTY
Valence
SciTegic.value.DoubleValue
6.333

@<SCITEGIC>MOL_PROPERTY
Coulomb
SciTegic.value.DoubleValue
1.215

@<SCITEGIC>MOL_PROPERTY
VdW
SciTegic.value.DoubleValue
0.842

@<SCITEGIC>MOL_PROPERTY
VdW6
SciTegic.value.DoubleValue
-3.344

@<SCITEGIC>MOL_PROPERTY
VdW12
SciTegic.value.DoubleValue
4.186

@<SCITEGIC>MOL_PROPERTY
Bond
SciTegic.value.DoubleValue
0.091

@<SCITEGIC>MOL_PROPERTY
Angle
SciTegic.value.DoubleValue
2.713

@<SCITEGIC>MOL_PROPERTY
Pdih
SciTegic.value.DoubleValue
3.529

@<SCITEGIC>MOL_PROPERTY
Idih
SciTegic.value.DoubleValue
0.000

@<SCITEGIC>MOL_PROPERTY
Tether
SciTegic.value.DoubleValue
0.000

@<TRIPOS>MOLECULE
guest-6_confgen4.mol2 : confsearch ligand conformer 842
          13          12           1
SMALL
USER_CHARGES
 
@<TRIPOS>ATOM
       1    C1      18.826725   17.514977   20.946555 C.2        1 MOL1         0.6021
       2    O1      19.323808   16.406849   20.928634 O.co2      1 MOL1        -0.6904
       3    O2      17.974655   17.880955   20.162082 O.co2      1 MOL1        -0.6904
       4    C2      19.312063   18.506339   21.998766 C.3        1 MOL1        -0.2102
       5    H1      19.584277   17.942432   22.899282 H          1 MOL1         0.0687
       6    H2      18.471674   19.158055   22.267151 H          1 MOL1         0.0687
       7    C3      20.513371   19.356505   21.519261 C.3        1 MOL1        -0.1974
       8    H3      21.345172   18.693090   21.243925 H          1 MOL1         0.0689
       9    H4      20.232320   19.909029   20.611764 H          1 MOL1         0.0689
      10    C4      20.979691   20.347495   22.604513 C.3        1 MOL1        -0.2987
      11    H5      21.831236   20.940671   22.246359 H          1 MOL1         0.0700
      12    H6      20.173131   21.041506   22.875375 H          1 MOL1         0.0700
      13    H7      21.294551   19.816233   23.512357 H          1 MOL1         0.0700
@<TRIPOS>BOND
    1     1     2    1
    2     1     3    2
    3     1     4    1
    4     4     5    1
    5     4     6    1
    6     4     7    1
    7     7     8    1
    8     7     9    1
    9     7    10    1
   10    10    11    1
   11    10    12    1
   12    10    13    1
@<TRIPOS>SUBSTRUCTURE
       1 MOL1            1 RESIDUE      1      MOL     
@<SCITEGIC>MOL_PROPERTY
VConf Rank
SciTegic.value.IntegerValue
842

@<SCITEGIC>MOL_PROPERTY
Conf_Id
SciTegic.value.IntegerValue
1

@<SCITEGIC>MOL_PROPERTY
Delta U+W
SciTegic.value.DoubleValue
-1.339

@<SCITEGIC>MOL_PROPERTY
U+W
SciTegic.value.DoubleValue
-59.672

@<SCITEGIC>MOL_PROPERTY
Grad RMS
SciTegic.value.DoubleValue
0.000000

@<SCITEGIC>MOL_PROPERTY
U
SciTegic.value.DoubleValue
7.389

@<SCITEGIC>MOL_PROPERTY
W
SciTegic.value.DoubleValue
-67.061

@<SCITEGIC>MOL_PROPERTY
W(PB)
SciTegic.value.DoubleValue
-68.767

@<SCITEGIC>MOL_PROPERTY
W(SA)
SciTegic.value.DoubleValue
1.707

@<SCITEGIC>MOL_PROPERTY
Valence
SciTegic.value.DoubleValue
5.822

@<SCITEGIC>MOL_PROPERTY
Coulomb
SciTegic.value.DoubleValue
1.255

@<SCITEGIC>MOL_PROPERTY
VdW
SciTegic.value.DoubleValue
0.312

@<SCITEGIC>MOL_PROPERTY
VdW6
SciTegic.value.DoubleValue
-3.061

@<SCITEGIC>MOL_PROPERTY
VdW12
SciTegic.value.DoubleValue
3.372

@<SCITEGIC>MOL_PROPERTY
Bond
SciTegic.value.DoubleValue
0.059

@<SCITEGIC>MOL_PROPERTY
Angle
SciTegic.value.DoubleValue
2.241

@<SCITEGIC>MOL_PROPERTY
Pdih
SciTegic.value.DoubleValue
3.522

@<SCITEGIC>MOL_PROPERTY
Idih
SciTegic.value.DoubleValue
0.000

@<SCITEGIC>MOL_PROPERTY
Tether
SciTegic.value.DoubleValue
0.000

@<TRIPOS>MOLECULE
guest-6_confgen4.mol2 : confsearch ligand conformer 843
          13          12           1
SMALL
USER_CHARGES
 
@<TRIPOS>ATOM
       1    C1      19.253591   20.488521   22.368531 C.2        1 MOL1         0.6021
       2    O1      19.935728   21.409065   22.772740 O.co2      1 MOL1        -0.6904
       3    O2      18.331323   20.629869   21.590489 O.co2      1 MOL1        -0.6904
       4    C2      19.550359   19.086666   22.895274 C.3        1 MOL1        -0.2102
       5    H1      18.680630   18.446949   22.701313 H          1 MOL1         0.0687
       6    H2      19.651832   19.161311   23.984548 H          1 MOL1         0.0687
       7    C3      20.829539   18.443125   22.301226 C.3        1 MOL1        -0.1974
       8    H3      21.687024   19.110922   22.464590 H          1 MOL1         0.0689
       9    H4      21.047714   17.511524   22.841035 H          1 MOL1         0.0689
      10    C4      20.690111   18.132770   20.796511 C.3        1 MOL1        -0.2987
      11    H5      20.514950   19.050109   20.218899 H          1 MOL1         0.0700
      12    H6      21.603881   17.660852   20.412567 H          1 MOL1         0.0700
      13    H7      19.851500   17.448324   20.613054 H          1 MOL1         0.0700
@<TRIPOS>BOND
    1     1     2    1
    2     1     3    2
    3     1     4    1
    4     4     5    1
    5     4     6    1
    6     4     7    1
    7     7     8    1
    8     7     9    1
    9     7    10    1
   10    10    11    1
   11    10    12    1
   12    10    13    1
@<TRIPOS>SUBSTRUCTURE
       1 MOL1            1 RESIDUE      1      MOL     
@<SCITEGIC>MOL_PROPERTY
VConf Rank
SciTegic.value.IntegerValue
843

@<SCITEGIC>MOL_PROPERTY
Conf_Id
SciTegic.value.IntegerValue
4

@<SCITEGIC>MOL_PROPERTY
Delta U+W
SciTegic.value.DoubleValue
0.281

@<SCITEGIC>MOL_PROPERTY
U+W
SciTegic.value.DoubleValue
-58.051

@<SCITEGIC>MOL_PROPERTY
Grad RMS
SciTegic.value.DoubleValue
0.000000

@<SCITEGIC>MOL_PROPERTY
U
SciTegic.value.DoubleValue
9.781

@<SCITEGIC>MOL_PROPERTY
W
SciTegic.value.DoubleValue
-67.832

@<SCITEGIC>MOL_PROPERTY
W(PB)
SciTegic.value.DoubleValue
-69.535

@<SCITEGIC>MOL_PROPERTY
W(SA)
SciTegic.value.DoubleValue
1.703

@<SCITEGIC>MOL_PROPERTY
Valence
SciTegic.value.DoubleValue
6.123

@<SCITEGIC>MOL_PROPERTY
Coulomb
SciTegic.value.DoubleValue
3.449

@<SCITEGIC>MOL_PROPERTY
VdW
SciTegic.value.DoubleValue
0.209

@<SCITEGIC>MOL_PROPERTY
VdW6
SciTegic.value.DoubleValue
-3.762

@<SCITEGIC>MOL_PROPERTY
VdW12
SciTegic.value.DoubleValue
3.972

@<SCITEGIC>MOL_PROPERTY
Bond
SciTegic.value.DoubleValue
0.078

@<SCITEGIC>MOL_PROPERTY
Angle
SciTegic.value.DoubleValue
2.428

@<SCITEGIC>MOL_PROPERTY
Pdih
SciTegic.value.DoubleValue
3.616

@<SCITEGIC>MOL_PROPERTY
Idih
SciTegic.value.DoubleValue
0.002

@<SCITEGIC>MOL_PROPERTY
Tether
SciTegic.value.DoubleValue
0.000

@<TRIPOS>MOLECULE
guest-6_confgen4.mol2 : confsearch ligand conformer 844
          13          12           1
SMALL
USER_CHARGES
 
@<TRIPOS>ATOM
       1    C1      21.377137   18.431495   23.152149 C.2        1 MOL1         0.6021
       2    O1      20.853548   18.070439   24.187233 O.co2      1 MOL1        -0.6904
       3    O2      22.347900   17.885448   22.666815 O.co2      1 MOL1        -0.6904
       4    C2      20.809388   19.657156   22.440713 C.3        1 MOL1        -0.2102
       5    H1      21.652977   20.314188   22.197706 H          1 MOL1         0.0687
       6    H2      20.171611   20.207357   23.143426 H          1 MOL1         0.0687
       7    C3      20.020479   19.331042   21.146645 C.3        1 MOL1        -0.1974
       8    H3      19.781440   20.267920   20.625117 H          1 MOL1         0.0689
       9    H4      20.654748   18.744465   20.467269 H          1 MOL1         0.0689
      10    C4      18.712220   18.564237   21.430182 C.3        1 MOL1        -0.2987
      11    H5      18.053186   19.143225   22.090363 H          1 MOL1         0.0700
      12    H6      18.169415   18.366863   20.496639 H          1 MOL1         0.0700
      13    H7      18.916960   17.599339   21.912758 H          1 MOL1         0.0700
@<TRIPOS>BOND
    1     1     2    1
    2     1     3    2
    3     1     4    1
    4     4     5    1
    5     4     6    1
    6     4     7    1
    7     7     8    1
    8     7     9    1
    9     7    10    1
   10    10    11    1
   11    10    12    1
   12    10    13    1
@<TRIPOS>SUBSTRUCTURE
       1 MOL1            1 RESIDUE      1      MOL     
@<SCITEGIC>MOL_PROPERTY
VConf Rank
SciTegic.value.IntegerValue
844

@<SCITEGIC>MOL_PROPERTY
Conf_Id
SciTegic.value.IntegerValue
36

@<SCITEGIC>MOL_PROPERTY
Delta U+W
SciTegic.value.DoubleValue
0.272

@<SCITEGIC>MOL_PROPERTY
U+W
SciTegic.value.DoubleValue
-58.060

@<SCITEGIC>MOL_PROPERTY
Grad RMS
SciTegic.value.DoubleValue
0.000000

@<SCITEGIC>MOL_PROPERTY
U
SciTegic.value.DoubleValue
9.781

@<SCITEGIC>MOL_PROPERTY
W
SciTegic.value.DoubleValue
-67.841

@<SCITEGIC>MOL_PROPERTY
W(PB)
SciTegic.value.DoubleValue
-69.537

@<SCITEGIC>MOL_PROPERTY
W(SA)
SciTegic.value.DoubleValue
1.696

@<SCITEGIC>MOL_PROPERTY
Valence
SciTegic.value.DoubleValue
6.123

@<SCITEGIC>MOL_PROPERTY
Coulomb
SciTegic.value.DoubleValue
3.449

@<SCITEGIC>MOL_PROPERTY
VdW
SciTegic.value.DoubleValue
0.209

@<SCITEGIC>MOL_PROPERTY
VdW6
SciTegic.value.DoubleValue
-3.762

@<SCITEGIC>MOL_PROPERTY
VdW12
SciTegic.value.DoubleValue
3.972

@<SCITEGIC>MOL_PROPERTY
Bond
SciTegic.value.DoubleValue
0.078

@<SCITEGIC>MOL_PROPERTY
Angle
SciTegic.value.DoubleValue
2.428

@<SCITEGIC>MOL_PROPERTY
Pdih
SciTegic.value.DoubleValue
3.616

@<SCITEGIC>MOL_PROPERTY
Idih
SciTegic.value.DoubleValue
0.002

@<SCITEGIC>MOL_PROPERTY
Tether
SciTegic.value.DoubleValue
0.000

@<TRIPOS>MOLECULE
guest-6_confgen4.mol2 : confsearch ligand conformer 845
          13          12           1
SMALL
USER_CHARGES
 
@<TRIPOS>ATOM
       1    C1      19.614324   17.560884   20.301738 C.2        1 MOL1         0.6021
       2    O1      18.491419   17.898858   19.982070 O.co2      1 MOL1        -0.6904
       3    O2      20.195842   16.627404   19.786716 O.co2      1 MOL1        -0.6904
       4    C2      20.355366   18.326068   21.399934 C.3        1 MOL1        -0.2102
       5    H1      21.294644   18.691528   20.968039 H          1 MOL1         0.0687
       6    H2      20.621617   17.603345   22.180395 H          1 MOL1         0.0687
       7    C3      19.573959   19.509481   22.028339 C.3        1 MOL1        -0.1974
       8    H3      19.305585   20.231113   21.244135 H          1 MOL1         0.0689
       9    H4      18.631685   19.141604   22.457920 H          1 MOL1         0.0689
      10    C4      20.397442   20.218785   23.122232 C.3        1 MOL1        -0.2987
      11    H5      21.331531   20.623272   22.710660 H          1 MOL1         0.0700
      12    H6      19.828719   21.052315   23.554711 H          1 MOL1         0.0700
      13    H7      20.652260   19.524986   23.934164 H          1 MOL1         0.0700
@<TRIPOS>BOND
    1     1     2    1
    2     1     3    2
    3     1     4    1
    4     4     5    1
    5     4     6    1
    6     4     7    1
    7     7     8    1
    8     7     9    1
    9     7    10    1
   10    10    11    1
   11    10    12    1
   12    10    13    1
@<TRIPOS>SUBSTRUCTURE
       1 MOL1            1 RESIDUE      1      MOL     
@<SCITEGIC>MOL_PROPERTY
VConf Rank
SciTegic.value.IntegerValue
845

@<SCITEGIC>MOL_PROPERTY
Conf_Id
SciTegic.value.IntegerValue
0

@<SCITEGIC>MOL_PROPERTY
Delta U+W
SciTegic.value.DoubleValue
0.000

@<SCITEGIC>MOL_PROPERTY
U+W
SciTegic.value.DoubleValue
-58.332

@<SCITEGIC>MOL_PROPERTY
Grad RMS
SciTegic.value.DoubleValue
0.000000

@<SCITEGIC>MOL_PROPERTY
U
SciTegic.value.DoubleValue
8.390

@<SCITEGIC>MOL_PROPERTY
W
SciTegic.value.DoubleValue
-66.722

@<SCITEGIC>MOL_PROPERTY
W(PB)
SciTegic.value.DoubleValue
-68.455

@<SCITEGIC>MOL_PROPERTY
W(SA)
SciTegic.value.DoubleValue
1.733

@<SCITEGIC>MOL_PROPERTY
Valence
SciTegic.value.DoubleValue
6.333

@<SCITEGIC>MOL_PROPERTY
Coulomb
SciTegic.value.DoubleValue
1.215

@<SCITEGIC>MOL_PROPERTY
VdW
SciTegic.value.DoubleValue
0.842

@<SCITEGIC>MOL_PROPERTY
VdW6
SciTegic.value.DoubleValue
-3.344

@<SCITEGIC>MOL_PROPERTY
VdW12
SciTegic.value.DoubleValue
4.186

@<SCITEGIC>MOL_PROPERTY
Bond
SciTegic.value.DoubleValue
0.091

@<SCITEGIC>MOL_PROPERTY
Angle
SciTegic.value.DoubleValue
2.713

@<SCITEGIC>MOL_PROPERTY
Pdih
SciTegic.value.DoubleValue
3.529

@<SCITEGIC>MOL_PROPERTY
Idih
SciTegic.value.DoubleValue
0.000

@<SCITEGIC>MOL_PROPERTY
Tether
SciTegic.value.DoubleValue
0.000

@<TRIPOS>MOLECULE
guest-6_confgen4.mol2 : confsearch ligand conformer 846
          13          12           1
SMALL
USER_CHARGES
 
@<TRIPOS>ATOM
       1    C1      18.082675   18.183711   21.528628 C.2        1 MOL1         0.6021
       2    O1      17.634810   18.263536   20.402393 O.co2      1 MOL1        -0.6904
       3    O2      17.390371   18.057911   22.518703 O.co2      1 MOL1        -0.6904
       4    C2      19.594507   18.264710   21.711119 C.3        1 MOL1        -0.2102
       5    H1      20.069262   17.816315   20.829888 H          1 MOL1         0.0687
       6    H2      19.867682   17.646724   22.575115 H          1 MOL1         0.0687
       7    C3      20.102235   19.713259   21.910532 C.3        1 MOL1        -0.1974
       8    H3      19.814423   20.325024   21.044087 H          1 MOL1         0.0689
       9    H4      19.612908   20.155346   22.789703 H          1 MOL1         0.0689
      10    C4      21.632641   19.760983   22.091834 C.3        1 MOL1        -0.2987
      11    H5      21.973413   20.795182   22.231718 H          1 MOL1         0.0700
      12    H6      21.942350   19.180209   22.970661 H          1 MOL1         0.0700
      13    H7      22.145398   19.351227   21.211642 H          1 MOL1         0.0700
@<TRIPOS>BOND
    1     1     2    1
    2     1     3    2
    3     1     4    1
    4     4     5    1
    5     4     6    1
    6     4     7    1
    7     7     8    1
    8     7     9    1
    9     7    10    1
   10    10    11    1
   11    10    12    1
   12    10    13    1
@<TRIPOS>SUBSTRUCTURE
       1 MOL1            1 RESIDUE      1      MOL     
@<SCITEGIC>MOL_PROPERTY
VConf Rank
SciTegic.value.IntegerValue
846

@<SCITEGIC>MOL_PROPERTY
Conf_Id
SciTegic.value.IntegerValue
1

@<SCITEGIC>MOL_PROPERTY
Delta U+W
SciTegic.value.DoubleValue
-1.339

@<SCITEGIC>MOL_PROPERTY
U+W
SciTegic.value.DoubleValue
-59.672

@<SCITEGIC>MOL_PROPERTY
Grad RMS
SciTegic.value.DoubleValue
0.000000

@<SCITEGIC>MOL_PROPERTY
U
SciTegic.value.DoubleValue
7.389

@<SCITEGIC>MOL_PROPERTY
W
SciTegic.value.DoubleValue
-67.061

@<SCITEGIC>MOL_PROPERTY
W(PB)
SciTegic.value.DoubleValue
-68.767

@<SCITEGIC>MOL_PROPERTY
W(SA)
SciTegic.value.DoubleValue
1.707

@<SCITEGIC>MOL_PROPERTY
Valence
SciTegic.value.DoubleValue
5.822

@<SCITEGIC>MOL_PROPERTY
Coulomb
SciTegic.value.DoubleValue
1.255

@<SCITEGIC>MOL_PROPERTY
VdW
SciTegic.value.DoubleValue
0.312

@<SCITEGIC>MOL_PROPERTY
VdW6
SciTegic.value.DoubleValue
-3.061

@<SCITEGIC>MOL_PROPERTY
VdW12
SciTegic.value.DoubleValue
3.372

@<SCITEGIC>MOL_PROPERTY
Bond
SciTegic.value.DoubleValue
0.059

@<SCITEGIC>MOL_PROPERTY
Angle
SciTegic.value.DoubleValue
2.241

@<SCITEGIC>MOL_PROPERTY
Pdih
SciTegic.value.DoubleValue
3.522

@<SCITEGIC>MOL_PROPERTY
Idih
SciTegic.value.DoubleValue
0.000

@<SCITEGIC>MOL_PROPERTY
Tether
SciTegic.value.DoubleValue
0.000

@<TRIPOS>MOLECULE
guest-6_confgen4.mol2 : confsearch ligand conformer 847
          13          12           1
SMALL
USER_CHARGES
 
@<TRIPOS>ATOM
       1    C1      20.130919   19.822433   23.571827 C.2        1 MOL1         0.6021
       2    O1      20.361197   19.138303   24.549087 O.co2      1 MOL1        -0.6904
       3    O2      20.567148   20.946543   23.423551 O.co2      1 MOL1        -0.6904
       4    C2      19.215979   19.250680   22.491683 C.3        1 MOL1        -0.2102
       5    H1      18.856151   20.074831   21.863522 H          1 MOL1         0.0687
       6    H2      18.337744   18.830214   22.995963 H          1 MOL1         0.0687
       7    C3      19.877552   18.158705   21.612336 C.3        1 MOL1        -0.1974
       8    H3      20.271015   17.358074   22.254286 H          1 MOL1         0.0689
       9    H4      19.112427   17.701180   20.970364 H          1 MOL1         0.0689
      10    C4      21.009060   18.719575   20.726309 C.3        1 MOL1        -0.2987
      11    H5      21.814728   19.146486   21.338251 H          1 MOL1         0.0700
      12    H6      21.441961   17.926112   20.103325 H          1 MOL1         0.0700
      13    H7      20.632303   19.506873   20.060270 H          1 MOL1         0.0700
@<TRIPOS>BOND
    1     1     2    1
    2     1     3    2
    3     1     4    1
    4     4     5    1
    5     4     6    1
    6     4     7    1
    7     7     8    1
    8     7     9    1
    9     7    10    1
   10    10    11    1
   11    10    12    1
   12    10    13    1
@<TRIPOS>SUBSTRUCTURE
       1 MOL1            1 RESIDUE      1      MOL     
@<SCITEGIC>MOL_PROPERTY
VConf Rank
SciTegic.value.IntegerValue
847

@<SCITEGIC>MOL_PROPERTY
Conf_Id
SciTegic.value.IntegerValue
4

@<SCITEGIC>MOL_PROPERTY
Delta U+W
SciTegic.value.DoubleValue
0.281

@<SCITEGIC>MOL_PROPERTY
U+W
SciTegic.value.DoubleValue
-58.051

@<SCITEGIC>MOL_PROPERTY
Grad RMS
SciTegic.value.DoubleValue
0.000000

@<SCITEGIC>MOL_PROPERTY
U
SciTegic.value.DoubleValue
9.781

@<SCITEGIC>MOL_PROPERTY
W
SciTegic.value.DoubleValue
-67.832

@<SCITEGIC>MOL_PROPERTY
W(PB)
SciTegic.value.DoubleValue
-69.535

@<SCITEGIC>MOL_PROPERTY
W(SA)
SciTegic.value.DoubleValue
1.703

@<SCITEGIC>MOL_PROPERTY
Valence
SciTegic.value.DoubleValue
6.123

@<SCITEGIC>MOL_PROPERTY
Coulomb
SciTegic.value.DoubleValue
3.449

@<SCITEGIC>MOL_PROPERTY
VdW
SciTegic.value.DoubleValue
0.209

@<SCITEGIC>MOL_PROPERTY
VdW6
SciTegic.value.DoubleValue
-3.762

@<SCITEGIC>MOL_PROPERTY
VdW12
SciTegic.value.DoubleValue
3.972

@<SCITEGIC>MOL_PROPERTY
Bond
SciTegic.value.DoubleValue
0.078

@<SCITEGIC>MOL_PROPERTY
Angle
SciTegic.value.DoubleValue
2.428

@<SCITEGIC>MOL_PROPERTY
Pdih
SciTegic.value.DoubleValue
3.616

@<SCITEGIC>MOL_PROPERTY
Idih
SciTegic.value.DoubleValue
0.002

@<SCITEGIC>MOL_PROPERTY
Tether
SciTegic.value.DoubleValue
0.000

@<TRIPOS>MOLECULE
guest-6_confgen4.mol2 : confsearch ligand conformer 848
          13          12           1
SMALL
USER_CHARGES
 
@<TRIPOS>ATOM
       1    C1      19.497886   18.821524   20.321567 C.2        1 MOL1         0.6021
       2    O1      18.287368   18.924211   20.324271 O.co2      1 MOL1        -0.6904
       3    O2      20.206987   19.281668   19.448904 O.co2      1 MOL1        -0.6904
       4    C2      20.162723   18.043168   21.454210 C.3        1 MOL1        -0.2102
       5    H1      20.870831   17.341636   20.997240 H          1 MOL1         0.0687
       6    H2      19.399948   17.438673   21.960220 H          1 MOL1         0.0687
       7    C3      20.908432   18.931834   22.482571 C.3        1 MOL1        -0.1974
       8    H3      21.477424   18.288990   23.168044 H          1 MOL1         0.0689
       9    H4      21.641105   19.562939   21.960252 H          1 MOL1         0.0689
      10    C4      19.948413   19.817986   23.302953 C.3        1 MOL1        -0.2987
      11    H5      19.220801   19.205317   23.851230 H          1 MOL1         0.0700
      12    H6      20.505600   20.418677   24.033575 H          1 MOL1         0.0700
      13    H7      19.393491   20.506552   22.651981 H          1 MOL1         0.0700
@<TRIPOS>BOND
    1     1     2    1
    2     1     3    2
    3     1     4    1
    4     4     5    1
    5     4     6    1
    6     4     7    1
    7     7     8    1
    8     7     9    1
    9     7    10    1
   10    10    11    1
   11    10    12    1
   12    10    13    1
@<TRIPOS>SUBSTRUCTURE
       1 MOL1            1 RESIDUE      1      MOL     
@<SCITEGIC>MOL_PROPERTY
VConf Rank
SciTegic.value.IntegerValue
848

@<SCITEGIC>MOL_PROPERTY
Conf_Id
SciTegic.value.IntegerValue
36

@<SCITEGIC>MOL_PROPERTY
Delta U+W
SciTegic.value.DoubleValue
0.272

@<SCITEGIC>MOL_PROPERTY
U+W
SciTegic.value.DoubleValue
-58.060

@<SCITEGIC>MOL_PROPERTY
Grad RMS
SciTegic.value.DoubleValue
0.000000

@<SCITEGIC>MOL_PROPERTY
U
SciTegic.value.DoubleValue
9.781

@<SCITEGIC>MOL_PROPERTY
W
SciTegic.value.DoubleValue
-67.841

@<SCITEGIC>MOL_PROPERTY
W(PB)
SciTegic.value.DoubleValue
-69.537

@<SCITEGIC>MOL_PROPERTY
W(SA)
SciTegic.value.DoubleValue
1.696

@<SCITEGIC>MOL_PROPERTY
Valence
SciTegic.value.DoubleValue
6.123

@<SCITEGIC>MOL_PROPERTY
Coulomb
SciTegic.value.DoubleValue
3.449

@<SCITEGIC>MOL_PROPERTY
VdW
SciTegic.value.DoubleValue
0.209

@<SCITEGIC>MOL_PROPERTY
VdW6
SciTegic.value.DoubleValue
-3.762

@<SCITEGIC>MOL_PROPERTY
VdW12
SciTegic.value.DoubleValue
3.972

@<SCITEGIC>MOL_PROPERTY
Bond
SciTegic.value.DoubleValue
0.078

@<SCITEGIC>MOL_PROPERTY
Angle
SciTegic.value.DoubleValue
2.428

@<SCITEGIC>MOL_PROPERTY
Pdih
SciTegic.value.DoubleValue
3.616

@<SCITEGIC>MOL_PROPERTY
Idih
SciTegic.value.DoubleValue
0.002

@<SCITEGIC>MOL_PROPERTY
Tether
SciTegic.value.DoubleValue
0.000

@<TRIPOS>MOLECULE
guest-6_confgen4.mol2 : confsearch ligand conformer 849
          13          12           1
SMALL
USER_CHARGES
 
@<TRIPOS>ATOM
       1    C1      19.414901   17.085958   22.536297 C.2        1 MOL1         0.6021
       2    O1      18.486019   17.408772   23.250649 O.co2      1 MOL1        -0.6904
       3    O2      19.765125   15.932692   22.387579 O.co2      1 MOL1        -0.6904
       4    C2      20.198708   18.158059   21.776740 C.3        1 MOL1        -0.2102
       5    H1      20.145774   17.908833   20.710240 H          1 MOL1         0.0687
       6    H2      21.250105   18.068208   22.074779 H          1 MOL1         0.0687
       7    C3      19.715868   19.615519   21.997270 C.3        1 MOL1        -0.1974
       8    H3      18.661249   19.702712   21.700739 H          1 MOL1         0.0689
       9    H4      19.766866   19.862263   23.066976 H          1 MOL1         0.0689
      10    C4      20.562589   20.623596   21.194351 C.3        1 MOL1        -0.2987
      11    H5      20.503136   20.416989   20.117642 H          1 MOL1         0.0700
      12    H6      20.206408   21.648271   21.362969 H          1 MOL1         0.0700
      13    H7      21.617644   20.577773   21.494821 H          1 MOL1         0.0700
@<TRIPOS>BOND
    1     1     2    1
    2     1     3    2
    3     1     4    1
    4     4     5    1
    5     4     6    1
    6     4     7    1
    7     7     8    1
    8     7     9    1
    9     7    10    1
   10    10    11    1
   11    10    12    1
   12    10    13    1
@<TRIPOS>SUBSTRUCTURE
       1 MOL1            1 RESIDUE      1      MOL     
@<SCITEGIC>MOL_PROPERTY
VConf Rank
SciTegic.value.IntegerValue
849

@<SCITEGIC>MOL_PROPERTY
Conf_Id
SciTegic.value.IntegerValue
0

@<SCITEGIC>MOL_PROPERTY
Delta U+W
SciTegic.value.DoubleValue
0.000

@<SCITEGIC>MOL_PROPERTY
U+W
SciTegic.value.DoubleValue
-58.332

@<SCITEGIC>MOL_PROPERTY
Grad RMS
SciTegic.value.DoubleValue
0.000000

@<SCITEGIC>MOL_PROPERTY
U
SciTegic.value.DoubleValue
8.390

@<SCITEGIC>MOL_PROPERTY
W
SciTegic.value.DoubleValue
-66.722

@<SCITEGIC>MOL_PROPERTY
W(PB)
SciTegic.value.DoubleValue
-68.455

@<SCITEGIC>MOL_PROPERTY
W(SA)
SciTegic.value.DoubleValue
1.733

@<SCITEGIC>MOL_PROPERTY
Valence
SciTegic.value.DoubleValue
6.333

@<SCITEGIC>MOL_PROPERTY
Coulomb
SciTegic.value.DoubleValue
1.215

@<SCITEGIC>MOL_PROPERTY
VdW
SciTegic.value.DoubleValue
0.842

@<SCITEGIC>MOL_PROPERTY
VdW6
SciTegic.value.DoubleValue
-3.344

@<SCITEGIC>MOL_PROPERTY
VdW12
SciTegic.value.DoubleValue
4.186

@<SCITEGIC>MOL_PROPERTY
Bond
SciTegic.value.DoubleValue
0.091

@<SCITEGIC>MOL_PROPERTY
Angle
SciTegic.value.DoubleValue
2.713

@<SCITEGIC>MOL_PROPERTY
Pdih
SciTegic.value.DoubleValue
3.529

@<SCITEGIC>MOL_PROPERTY
Idih
SciTegic.value.DoubleValue
0.000

@<SCITEGIC>MOL_PROPERTY
Tether
SciTegic.value.DoubleValue
0.000

@<TRIPOS>MOLECULE
guest-6_confgen4.mol2 : confsearch ligand conformer 850
          13          12           1
SMALL
USER_CHARGES
 
@<TRIPOS>ATOM
       1    C1      21.469070   20.359657   22.558800 C.2        1 MOL1         0.6021
       2    O1      22.408831   19.845202   23.131116 O.co2      1 MOL1        -0.6904
       3    O2      21.115804   21.506651   22.745796 O.co2      1 MOL1        -0.6904
       4    C2      20.678562   19.514182   21.565941 C.3        1 MOL1        -0.2102
       5    H1      21.370443   18.806243   21.093561 H          1 MOL1         0.0687
       6    H2      20.304153   20.176376   20.775792 H          1 MOL1         0.0687
       7    C3      19.502870   18.751697   22.223370 C.3        1 MOL1        -0.1974
       8    H3      19.888523   18.099413   23.019372 H          1 MOL1         0.0689
       9    H4      18.821979   19.469803   22.701423 H          1 MOL1         0.0689
      10    C4      18.724668   17.907304   21.194442 C.3        1 MOL1        -0.2987
      11    H5      17.895875   17.374695   21.678891 H          1 MOL1         0.0700
      12    H6      18.303590   18.541916   20.403546 H          1 MOL1         0.0700
      13    H7      19.378308   17.160999   20.723973 H          1 MOL1         0.0700
@<TRIPOS>BOND
    1     1     2    1
    2     1     3    2
    3     1     4    1
    4     4     5    1
    5     4     6    1
    6     4     7    1
    7     7     8    1
    8     7     9    1
    9     7    10    1
   10    10    11    1
   11    10    12    1
   12    10    13    1
@<TRIPOS>SUBSTRUCTURE
       1 MOL1            1 RESIDUE      1      MOL     
@<SCITEGIC>MOL_PROPERTY
VConf Rank
SciTegic.value.IntegerValue
850

@<SCITEGIC>MOL_PROPERTY
Conf_Id
SciTegic.value.IntegerValue
1

@<SCITEGIC>MOL_PROPERTY
Delta U+W
SciTegic.value.DoubleValue
-1.339

@<SCITEGIC>MOL_PROPERTY
U+W
SciTegic.value.DoubleValue
-59.672

@<SCITEGIC>MOL_PROPERTY
Grad RMS
SciTegic.value.DoubleValue
0.000000

@<SCITEGIC>MOL_PROPERTY
U
SciTegic.value.DoubleValue
7.389

@<SCITEGIC>MOL_PROPERTY
W
SciTegic.value.DoubleValue
-67.061

@<SCITEGIC>MOL_PROPERTY
W(PB)
SciTegic.value.DoubleValue
-68.767

@<SCITEGIC>MOL_PROPERTY
W(SA)
SciTegic.value.DoubleValue
1.707

@<SCITEGIC>MOL_PROPERTY
Valence
SciTegic.value.DoubleValue
5.822

@<SCITEGIC>MOL_PROPERTY
Coulomb
SciTegic.value.DoubleValue
1.255

@<SCITEGIC>MOL_PROPERTY
VdW
SciTegic.value.DoubleValue
0.312

@<SCITEGIC>MOL_PROPERTY
VdW6
SciTegic.value.DoubleValue
-3.061

@<SCITEGIC>MOL_PROPERTY
VdW12
SciTegic.value.DoubleValue
3.372

@<SCITEGIC>MOL_PROPERTY
Bond
SciTegic.value.DoubleValue
0.059

@<SCITEGIC>MOL_PROPERTY
Angle
SciTegic.value.DoubleValue
2.241

@<SCITEGIC>MOL_PROPERTY
Pdih
SciTegic.value.DoubleValue
3.522

@<SCITEGIC>MOL_PROPERTY
Idih
SciTegic.value.DoubleValue
0.000

@<SCITEGIC>MOL_PROPERTY
Tether
SciTegic.value.DoubleValue
0.000

@<TRIPOS>MOLECULE
guest-6_confgen4.mol2 : confsearch ligand conformer 851
          13          12           1
SMALL
USER_CHARGES
 
@<TRIPOS>ATOM
       1    C1      18.923533   20.280410   22.205334 C.2        1 MOL1         0.6021
       2    O1      19.081596   20.999680   23.171649 O.co2      1 MOL1        -0.6904
       3    O2      18.574352   20.689581   21.116042 O.co2      1 MOL1        -0.6904
       4    C2      19.141102   18.779594   22.381243 C.3        1 MOL1        -0.2102
       5    H1      18.661586   18.254686   21.545885 H          1 MOL1         0.0687
       6    H2      18.610522   18.476761   23.291827 H          1 MOL1         0.0687
       7    C3      20.630313   18.362610   22.489473 C.3        1 MOL1        -0.1974
       8    H3      21.111370   18.924496   23.302363 H          1 MOL1         0.0689
       9    H4      20.687600   17.300228   22.763220 H          1 MOL1         0.0689
      10    C4      21.403154   18.586154   21.173163 C.3        1 MOL1        -0.2987
      11    H5      21.404348   19.647534   20.891561 H          1 MOL1         0.0700
      12    H6      22.447054   18.263017   21.277812 H          1 MOL1         0.0700
      13    H7      20.951655   18.015258   20.351203 H          1 MOL1         0.0700
@<TRIPOS>BOND
    1     1     2    1
    2     1     3    2
    3     1     4    1
    4     4     5    1
    5     4     6    1
    6     4     7    1
    7     7     8    1
    8     7     9    1
    9     7    10    1
   10    10    11    1
   11    10    12    1
   12    10    13    1
@<TRIPOS>SUBSTRUCTURE
       1 MOL1            1 RESIDUE      1      MOL     
@<SCITEGIC>MOL_PROPERTY
VConf Rank
SciTegic.value.IntegerValue
851

@<SCITEGIC>MOL_PROPERTY
Conf_Id
SciTegic.value.IntegerValue
4

@<SCITEGIC>MOL_PROPERTY
Delta U+W
SciTegic.value.DoubleValue
0.281

@<SCITEGIC>MOL_PROPERTY
U+W
SciTegic.value.DoubleValue
-58.051

@<SCITEGIC>MOL_PROPERTY
Grad RMS
SciTegic.value.DoubleValue
0.000000

@<SCITEGIC>MOL_PROPERTY
U
SciTegic.value.DoubleValue
9.781

@<SCITEGIC>MOL_PROPERTY
W
SciTegic.value.DoubleValue
-67.832

@<SCITEGIC>MOL_PROPERTY
W(PB)
SciTegic.value.DoubleValue
-69.535

@<SCITEGIC>MOL_PROPERTY
W(SA)
SciTegic.value.DoubleValue
1.703

@<SCITEGIC>MOL_PROPERTY
Valence
SciTegic.value.DoubleValue
6.123

@<SCITEGIC>MOL_PROPERTY
Coulomb
SciTegic.value.DoubleValue
3.449

@<SCITEGIC>MOL_PROPERTY
VdW
SciTegic.value.DoubleValue
0.209

@<SCITEGIC>MOL_PROPERTY
VdW6
SciTegic.value.DoubleValue
-3.762

@<SCITEGIC>MOL_PROPERTY
VdW12
SciTegic.value.DoubleValue
3.972

@<SCITEGIC>MOL_PROPERTY
Bond
SciTegic.value.DoubleValue
0.078

@<SCITEGIC>MOL_PROPERTY
Angle
SciTegic.value.DoubleValue
2.428

@<SCITEGIC>MOL_PROPERTY
Pdih
SciTegic.value.DoubleValue
3.616

@<SCITEGIC>MOL_PROPERTY
Idih
SciTegic.value.DoubleValue
0.002

@<SCITEGIC>MOL_PROPERTY
Tether
SciTegic.value.DoubleValue
0.000

@<TRIPOS>MOLECULE
guest-6_confgen4.mol2 : confsearch ligand conformer 852
          13          12           1
SMALL
USER_CHARGES
 
@<TRIPOS>ATOM
       1    C1      18.385758   18.509685   22.056650 C.2        1 MOL1         0.6021
       2    O1      18.017972   18.457733   23.213343 O.co2      1 MOL1        -0.6904
       3    O2      17.691757   18.928190   21.151491 O.co2      1 MOL1        -0.6904
       4    C2      19.779522   17.989218   21.714215 C.3        1 MOL1        -0.2102
       5    H1      19.676912   17.325558   20.847374 H          1 MOL1         0.0687
       6    H2      20.137815   17.370494   22.546136 H          1 MOL1         0.0687
       7    C3      20.810942   19.101121   21.392995 C.3        1 MOL1        -0.1974
       8    H3      21.732637   18.638545   21.014349 H          1 MOL1         0.0689
       9    H4      20.423942   19.739866   20.586671 H          1 MOL1         0.0689
      10    C4      21.150250   19.965419   22.624980 C.3        1 MOL1        -0.2987
      11    H5      21.559966   19.349077   23.435934 H          1 MOL1         0.0700
      12    H6      21.896316   20.728734   22.368406 H          1 MOL1         0.0700
      13    H7      20.257222   20.479534   23.004472 H          1 MOL1         0.0700
@<TRIPOS>BOND
    1     1     2    1
    2     1     3    2
    3     1     4    1
    4     4     5    1
    5     4     6    1
    6     4     7    1
    7     7     8    1
    8     7     9    1
    9     7    10    1
   10    10    11    1
   11    10    12    1
   12    10    13    1
@<TRIPOS>SUBSTRUCTURE
       1 MOL1            1 RESIDUE      1      MOL     
@<SCITEGIC>MOL_PROPERTY
VConf Rank
SciTegic.value.IntegerValue
852

@<SCITEGIC>MOL_PROPERTY
Conf_Id
SciTegic.value.IntegerValue
36

@<SCITEGIC>MOL_PROPERTY
Delta U+W
SciTegic.value.DoubleValue
0.272

@<SCITEGIC>MOL_PROPERTY
U+W
SciTegic.value.DoubleValue
-58.060

@<SCITEGIC>MOL_PROPERTY
Grad RMS
SciTegic.value.DoubleValue
0.000000

@<SCITEGIC>MOL_PROPERTY
U
SciTegic.value.DoubleValue
9.781

@<SCITEGIC>MOL_PROPERTY
W
SciTegic.value.DoubleValue
-67.841

@<SCITEGIC>MOL_PROPERTY
W(PB)
SciTegic.value.DoubleValue
-69.537

@<SCITEGIC>MOL_PROPERTY
W(SA)
SciTegic.value.DoubleValue
1.696

@<SCITEGIC>MOL_PROPERTY
Valence
SciTegic.value.DoubleValue
6.123

@<SCITEGIC>MOL_PROPERTY
Coulomb
SciTegic.value.DoubleValue
3.449

@<SCITEGIC>MOL_PROPERTY
VdW
SciTegic.value.DoubleValue
0.209

@<SCITEGIC>MOL_PROPERTY
VdW6
SciTegic.value.DoubleValue
-3.762

@<SCITEGIC>MOL_PROPERTY
VdW12
SciTegic.value.DoubleValue
3.972

@<SCITEGIC>MOL_PROPERTY
Bond
SciTegic.value.DoubleValue
0.078

@<SCITEGIC>MOL_PROPERTY
Angle
SciTegic.value.DoubleValue
2.428

@<SCITEGIC>MOL_PROPERTY
Pdih
SciTegic.value.DoubleValue
3.616

@<SCITEGIC>MOL_PROPERTY
Idih
SciTegic.value.DoubleValue
0.002

@<SCITEGIC>MOL_PROPERTY
Tether
SciTegic.value.DoubleValue
0.000

@<TRIPOS>MOLECULE
guest-6_confgen4.mol2 : confsearch ligand conformer 853
          13          12           1
SMALL
USER_CHARGES
 
@<TRIPOS>ATOM
       1    C1      21.264029   17.720059   20.651904 C.2        1 MOL1         0.6021
       2    O1      20.417032   17.042759   20.103096 O.co2      1 MOL1        -0.6904
       3    O2      22.454544   17.568798   20.465920 O.co2      1 MOL1        -0.6904
       4    C2      20.843194   18.821147   21.627191 C.3        1 MOL1        -0.2102
       5    H1      21.264488   19.764006   21.258590 H          1 MOL1         0.0687
       6    H2      21.325587   18.609132   22.588796 H          1 MOL1         0.0687
       7    C3      19.313778   18.977449   21.833133 C.3        1 MOL1        -0.1974
       8    H3      18.831938   19.186973   20.867894 H          1 MOL1         0.0689
       9    H4      18.893094   18.030648   22.199668 H          1 MOL1         0.0689
      10    C4      18.985896   20.107704   22.829552 C.3        1 MOL1        -0.2987
      11    H5      19.369413   21.071744   22.470298 H          1 MOL1         0.0700
      12    H6      17.900285   20.203077   22.962258 H          1 MOL1         0.0700
      13    H7      19.431113   19.906148   23.812751 H          1 MOL1         0.0700
@<TRIPOS>BOND
    1     1     2    1
    2     1     3    2
    3     1     4    1
    4     4     5    1
    5     4     6    1
    6     4     7    1
    7     7     8    1
    8     7     9    1
    9     7    10    1
   10    10    11    1
   11    10    12    1
   12    10    13    1
@<TRIPOS>SUBSTRUCTURE
       1 MOL1            1 RESIDUE      1      MOL     
@<SCITEGIC>MOL_PROPERTY
VConf Rank
SciTegic.value.IntegerValue
853

@<SCITEGIC>MOL_PROPERTY
Conf_Id
SciTegic.value.IntegerValue
0

@<SCITEGIC>MOL_PROPERTY
Delta U+W
SciTegic.value.DoubleValue
0.000

@<SCITEGIC>MOL_PROPERTY
U+W
SciTegic.value.DoubleValue
-58.332

@<SCITEGIC>MOL_PROPERTY
Grad RMS
SciTegic.value.DoubleValue
0.000000

@<SCITEGIC>MOL_PROPERTY
U
SciTegic.value.DoubleValue
8.390

@<SCITEGIC>MOL_PROPERTY
W
SciTegic.value.DoubleValue
-66.722

@<SCITEGIC>MOL_PROPERTY
W(PB)
SciTegic.value.DoubleValue
-68.455

@<SCITEGIC>MOL_PROPERTY
W(SA)
SciTegic.value.DoubleValue
1.733

@<SCITEGIC>MOL_PROPERTY
Valence
SciTegic.value.DoubleValue
6.333

@<SCITEGIC>MOL_PROPERTY
Coulomb
SciTegic.value.DoubleValue
1.215

@<SCITEGIC>MOL_PROPERTY
VdW
SciTegic.value.DoubleValue
0.842

@<SCITEGIC>MOL_PROPERTY
VdW6
SciTegic.value.DoubleValue
-3.344

@<SCITEGIC>MOL_PROPERTY
VdW12
SciTegic.value.DoubleValue
4.186

@<SCITEGIC>MOL_PROPERTY
Bond
SciTegic.value.DoubleValue
0.091

@<SCITEGIC>MOL_PROPERTY
Angle
SciTegic.value.DoubleValue
2.713

@<SCITEGIC>MOL_PROPERTY
Pdih
SciTegic.value.DoubleValue
3.529

@<SCITEGIC>MOL_PROPERTY
Idih
SciTegic.value.DoubleValue
0.000

@<SCITEGIC>MOL_PROPERTY
Tether
SciTegic.value.DoubleValue
0.000

@<TRIPOS>MOLECULE
guest-6_confgen4.mol2 : confsearch ligand conformer 854
          13          12           1
SMALL
USER_CHARGES
 
@<TRIPOS>ATOM
       1    C1      17.962075   18.846326   22.391203 C.2        1 MOL1         0.6021
       2    O1      17.499717   17.724151   22.343146 O.co2      1 MOL1        -0.6904
       3    O2      17.288108   19.853716   22.311871 O.co2      1 MOL1        -0.6904
       4    C2      19.472078   18.998560   22.540252 C.3        1 MOL1        -0.2102
       5    H1      19.842627   18.157220   23.138466 H          1 MOL1         0.0687
       6    H2      19.668119   19.913380   23.112695 H          1 MOL1         0.0687
       7    C3      20.210980   19.052048   21.181204 C.3        1 MOL1        -0.1974
       8    H3      19.999430   18.135591   20.612720 H          1 MOL1         0.0689
       9    H4      19.824982   19.892145   20.587010 H          1 MOL1         0.0689
      10    C4      21.733943   19.205995   21.366069 C.3        1 MOL1        -0.2987
      11    H5      22.239979   19.242018   20.392471 H          1 MOL1         0.0700
      12    H6      21.972429   20.131515   21.906523 H          1 MOL1         0.0700
      13    H7      22.148207   18.361471   21.932392 H          1 MOL1         0.0700
@<TRIPOS>BOND
    1     1     2    1
    2     1     3    2
    3     1     4    1
    4     4     5    1
    5     4     6    1
    6     4     7    1
    7     7     8    1
    8     7     9    1
    9     7    10    1
   10    10    11    1
   11    10    12    1
   12    10    13    1
@<TRIPOS>SUBSTRUCTURE
       1 MOL1            1 RESIDUE      1      MOL     
@<SCITEGIC>MOL_PROPERTY
VConf Rank
SciTegic.value.IntegerValue
854

@<SCITEGIC>MOL_PROPERTY
Conf_Id
SciTegic.value.IntegerValue
1

@<SCITEGIC>MOL_PROPERTY
Delta U+W
SciTegic.value.DoubleValue
-1.339

@<SCITEGIC>MOL_PROPERTY
U+W
SciTegic.value.DoubleValue
-59.672

@<SCITEGIC>MOL_PROPERTY
Grad RMS
SciTegic.value.DoubleValue
0.000000

@<SCITEGIC>MOL_PROPERTY
U
SciTegic.value.DoubleValue
7.389

@<SCITEGIC>MOL_PROPERTY
W
SciTegic.value.DoubleValue
-67.061

@<SCITEGIC>MOL_PROPERTY
W(PB)
SciTegic.value.DoubleValue
-68.767

@<SCITEGIC>MOL_PROPERTY
W(SA)
SciTegic.value.DoubleValue
1.707

@<SCITEGIC>MOL_PROPERTY
Valence
SciTegic.value.DoubleValue
5.822

@<SCITEGIC>MOL_PROPERTY
Coulomb
SciTegic.value.DoubleValue
1.255

@<SCITEGIC>MOL_PROPERTY
VdW
SciTegic.value.DoubleValue
0.312

@<SCITEGIC>MOL_PROPERTY
VdW6
SciTegic.value.DoubleValue
-3.061

@<SCITEGIC>MOL_PROPERTY
VdW12
SciTegic.value.DoubleValue
3.372

@<SCITEGIC>MOL_PROPERTY
Bond
SciTegic.value.DoubleValue
0.059

@<SCITEGIC>MOL_PROPERTY
Angle
SciTegic.value.DoubleValue
2.241

@<SCITEGIC>MOL_PROPERTY
Pdih
SciTegic.value.DoubleValue
3.522

@<SCITEGIC>MOL_PROPERTY
Idih
SciTegic.value.DoubleValue
0.000

@<SCITEGIC>MOL_PROPERTY
Tether
SciTegic.value.DoubleValue
0.000

@<TRIPOS>MOLECULE
guest-6_confgen4.mol2 : confsearch ligand conformer 855
          13          12           1
SMALL
USER_CHARGES
 
@<TRIPOS>ATOM
       1    C1      18.880971   20.217628   22.313516 C.2        1 MOL1         0.6021
       2    O1      18.354141   20.705840   21.333620 O.co2      1 MOL1        -0.6904
       3    O2      18.277287   19.942787   23.331324 O.co2      1 MOL1        -0.6904
       4    C2      20.387047   19.970859   22.273916 C.3        1 MOL1        -0.2102
       5    H1      20.749118   19.841617   23.301286 H          1 MOL1         0.0687
       6    H2      20.857525   20.881634   21.884652 H          1 MOL1         0.0687
       7    C3      20.809027   18.759878   21.402827 C.3        1 MOL1        -0.1974
       8    H3      20.406423   18.879411   20.387178 H          1 MOL1         0.0689
       9    H4      21.903533   18.747979   21.309073 H          1 MOL1         0.0689
      10    C4      20.339333   17.414805   21.994515 C.3        1 MOL1        -0.2987
      11    H5      19.244035   17.374097   22.061534 H          1 MOL1         0.0700
      12    H6      20.670808   16.578576   21.365275 H          1 MOL1         0.0700
      13    H7      20.748937   17.264899   23.002060 H          1 MOL1         0.0700
@<TRIPOS>BOND
    1     1     2    1
    2     1     3    2
    3     1     4    1
    4     4     5    1
    5     4     6    1
    6     4     7    1
    7     7     8    1
    8     7     9    1
    9     7    10    1
   10    10    11    1
   11    10    12    1
   12    10    13    1
@<TRIPOS>SUBSTRUCTURE
       1 MOL1            1 RESIDUE      1      MOL     
@<SCITEGIC>MOL_PROPERTY
VConf Rank
SciTegic.value.IntegerValue
855

@<SCITEGIC>MOL_PROPERTY
Conf_Id
SciTegic.value.IntegerValue
4

@<SCITEGIC>MOL_PROPERTY
Delta U+W
SciTegic.value.DoubleValue
0.281

@<SCITEGIC>MOL_PROPERTY
U+W
SciTegic.value.DoubleValue
-58.051

@<SCITEGIC>MOL_PROPERTY
Grad RMS
SciTegic.value.DoubleValue
0.000000

@<SCITEGIC>MOL_PROPERTY
U
SciTegic.value.DoubleValue
9.781

@<SCITEGIC>MOL_PROPERTY
W
SciTegic.value.DoubleValue
-67.832

@<SCITEGIC>MOL_PROPERTY
W(PB)
SciTegic.value.DoubleValue
-69.535

@<SCITEGIC>MOL_PROPERTY
W(SA)
SciTegic.value.DoubleValue
1.703

@<SCITEGIC>MOL_PROPERTY
Valence
SciTegic.value.DoubleValue
6.123

@<SCITEGIC>MOL_PROPERTY
Coulomb
SciTegic.value.DoubleValue
3.449

@<SCITEGIC>MOL_PROPERTY
VdW
SciTegic.value.DoubleValue
0.209

@<SCITEGIC>MOL_PROPERTY
VdW6
SciTegic.value.DoubleValue
-3.762

@<SCITEGIC>MOL_PROPERTY
VdW12
SciTegic.value.DoubleValue
3.972

@<SCITEGIC>MOL_PROPERTY
Bond
SciTegic.value.DoubleValue
0.078

@<SCITEGIC>MOL_PROPERTY
Angle
SciTegic.value.DoubleValue
2.428

@<SCITEGIC>MOL_PROPERTY
Pdih
SciTegic.value.DoubleValue
3.616

@<SCITEGIC>MOL_PROPERTY
Idih
SciTegic.value.DoubleValue
0.002

@<SCITEGIC>MOL_PROPERTY
Tether
SciTegic.value.DoubleValue
0.000

@<TRIPOS>MOLECULE
guest-6_confgen4.mol2 : confsearch ligand conformer 856
          13          12           1
SMALL
USER_CHARGES
 
@<TRIPOS>ATOM
       1    C1      19.253084   17.399409   22.061189 C.2        1 MOL1         0.6021
       2    O1      18.170172   17.552277   22.590185 O.co2      1 MOL1        -0.6904
       3    O2      19.440865   16.648354   21.124838 O.co2      1 MOL1        -0.6904
       4    C2      20.449653   18.162860   22.623407 C.3        1 MOL1        -0.2102
       5    H1      21.267780   17.443330   22.747229 H          1 MOL1         0.0687
       6    H2      20.194262   18.527644   23.625901 H          1 MOL1         0.0687
       7    C3      20.927474   19.338620   21.733119 C.3        1 MOL1        -0.1974
       8    H3      21.872953   19.730905   22.131933 H          1 MOL1         0.0689
       9    H4      21.141008   18.969644   20.720113 H          1 MOL1         0.0689
      10    C4      19.896082   20.483768   21.663875 C.3        1 MOL1        -0.2987
      11    H5      19.684653   20.882526   22.664716 H          1 MOL1         0.0700
      12    H6      20.273049   21.306887   21.043017 H          1 MOL1         0.0700
      13    H7      18.949976   20.136950   21.227496 H          1 MOL1         0.0700
@<TRIPOS>BOND
    1     1     2    1
    2     1     3    2
    3     1     4    1
    4     4     5    1
    5     4     6    1
    6     4     7    1
    7     7     8    1
    8     7     9    1
    9     7    10    1
   10    10    11    1
   11    10    12    1
   12    10    13    1
@<TRIPOS>SUBSTRUCTURE
       1 MOL1            1 RESIDUE      1      MOL     
@<SCITEGIC>MOL_PROPERTY
VConf Rank
SciTegic.value.IntegerValue
856

@<SCITEGIC>MOL_PROPERTY
Conf_Id
SciTegic.value.IntegerValue
36

@<SCITEGIC>MOL_PROPERTY
Delta U+W
SciTegic.value.DoubleValue
0.272

@<SCITEGIC>MOL_PROPERTY
U+W
SciTegic.value.DoubleValue
-58.060

@<SCITEGIC>MOL_PROPERTY
Grad RMS
SciTegic.value.DoubleValue
0.000000

@<SCITEGIC>MOL_PROPERTY
U
SciTegic.value.DoubleValue
9.781

@<SCITEGIC>MOL_PROPERTY
W
SciTegic.value.DoubleValue
-67.841

@<SCITEGIC>MOL_PROPERTY
W(PB)
SciTegic.value.DoubleValue
-69.537

@<SCITEGIC>MOL_PROPERTY
W(SA)
SciTegic.value.DoubleValue
1.696

@<SCITEGIC>MOL_PROPERTY
Valence
SciTegic.value.DoubleValue
6.123

@<SCITEGIC>MOL_PROPERTY
Coulomb
SciTegic.value.DoubleValue
3.449

@<SCITEGIC>MOL_PROPERTY
VdW
SciTegic.value.DoubleValue
0.209

@<SCITEGIC>MOL_PROPERTY
VdW6
SciTegic.value.DoubleValue
-3.762

@<SCITEGIC>MOL_PROPERTY
VdW12
SciTegic.value.DoubleValue
3.972

@<SCITEGIC>MOL_PROPERTY
Bond
SciTegic.value.DoubleValue
0.078

@<SCITEGIC>MOL_PROPERTY
Angle
SciTegic.value.DoubleValue
2.428

@<SCITEGIC>MOL_PROPERTY
Pdih
SciTegic.value.DoubleValue
3.616

@<SCITEGIC>MOL_PROPERTY
Idih
SciTegic.value.DoubleValue
0.002

@<SCITEGIC>MOL_PROPERTY
Tether
SciTegic.value.DoubleValue
0.000

@<TRIPOS>MOLECULE
guest-6_confgen4.mol2 : confsearch ligand conformer 857
          13          12           1
SMALL
USER_CHARGES
 
@<TRIPOS>ATOM
       1    C1      19.030798   20.694454   20.987067 C.2        1 MOL1         0.6021
       2    O1      17.970620   20.189397   20.673590 O.co2      1 MOL1        -0.6904
       3    O2      19.285761   21.866968   20.799979 O.co2      1 MOL1        -0.6904
       4    C2      20.113948   19.840513   21.649073 C.3        1 MOL1        -0.2102
       5    H1      20.355509   20.306217   22.611937 H          1 MOL1         0.0687
       6    H2      21.012997   19.910090   21.025208 H          1 MOL1         0.0687
       7    C3      19.743845   18.350162   21.867787 C.3        1 MOL1        -0.1974
       8    H3      18.841010   18.282725   22.490761 H          1 MOL1         0.0689
       9    H4      19.499231   17.886124   20.902082 H          1 MOL1         0.0689
      10    C4      20.892858   17.570547   22.538463 C.3        1 MOL1        -0.2987
      11    H5      21.135773   17.996500   23.520847 H          1 MOL1         0.0700
      12    H6      20.612747   16.519181   22.684835 H          1 MOL1         0.0700
      13    H7      21.799293   17.596767   21.919423 H          1 MOL1         0.0700
@<TRIPOS>BOND
    1     1     2    1
    2     1     3    2
    3     1     4    1
    4     4     5    1
    5     4     6    1
    6     4     7    1
    7     7     8    1
    8     7     9    1
    9     7    10    1
   10    10    11    1
   11    10    12    1
   12    10    13    1
@<TRIPOS>SUBSTRUCTURE
       1 MOL1            1 RESIDUE      1      MOL     
@<SCITEGIC>MOL_PROPERTY
VConf Rank
SciTegic.value.IntegerValue
857

@<SCITEGIC>MOL_PROPERTY
Conf_Id
SciTegic.value.IntegerValue
0

@<SCITEGIC>MOL_PROPERTY
Delta U+W
SciTegic.value.DoubleValue
0.000

@<SCITEGIC>MOL_PROPERTY
U+W
SciTegic.value.DoubleValue
-58.332

@<SCITEGIC>MOL_PROPERTY
Grad RMS
SciTegic.value.DoubleValue
0.000000

@<SCITEGIC>MOL_PROPERTY
U
SciTegic.value.DoubleValue
8.390

@<SCITEGIC>MOL_PROPERTY
W
SciTegic.value.DoubleValue
-66.722

@<SCITEGIC>MOL_PROPERTY
W(PB)
SciTegic.value.DoubleValue
-68.455

@<SCITEGIC>MOL_PROPERTY
W(SA)
SciTegic.value.DoubleValue
1.733

@<SCITEGIC>MOL_PROPERTY
Valence
SciTegic.value.DoubleValue
6.333

@<SCITEGIC>MOL_PROPERTY
Coulomb
SciTegic.value.DoubleValue
1.215

@<SCITEGIC>MOL_PROPERTY
VdW
SciTegic.value.DoubleValue
0.842

@<SCITEGIC>MOL_PROPERTY
VdW6
SciTegic.value.DoubleValue
-3.344

@<SCITEGIC>MOL_PROPERTY
VdW12
SciTegic.value.DoubleValue
4.186

@<SCITEGIC>MOL_PROPERTY
Bond
SciTegic.value.DoubleValue
0.091

@<SCITEGIC>MOL_PROPERTY
Angle
SciTegic.value.DoubleValue
2.713

@<SCITEGIC>MOL_PROPERTY
Pdih
SciTegic.value.DoubleValue
3.529

@<SCITEGIC>MOL_PROPERTY
Idih
SciTegic.value.DoubleValue
0.000

@<SCITEGIC>MOL_PROPERTY
Tether
SciTegic.value.DoubleValue
0.000

@<TRIPOS>MOLECULE
guest-6_confgen4.mol2 : confsearch ligand conformer 858
          13          12           1
SMALL
USER_CHARGES
 
@<TRIPOS>ATOM
       1    C1      19.396148   19.723219   19.923904 C.2        1 MOL1         0.6021
       2    O1      20.261245   19.743944   19.071532 O.co2      1 MOL1        -0.6904
       3    O2      18.406595   20.426912   19.892890 O.co2      1 MOL1        -0.6904
       4    C2      19.571078   18.776239   21.106328 C.3        1 MOL1        -0.2102
       5    H1      20.105548   17.885529   20.754198 H          1 MOL1         0.0687
       6    H2      18.576089   18.448730   21.431524 H          1 MOL1         0.0687
       7    C3      20.332573   19.421316   22.289481 C.3        1 MOL1        -0.1974
       8    H3      21.323305   19.754263   21.949751 H          1 MOL1         0.0689
       9    H4      19.793497   20.317481   22.627279 H          1 MOL1         0.0689
      10    C4      20.492790   18.439449   23.467427 C.3        1 MOL1        -0.2987
      11    H5      21.034508   18.914408   24.295809 H          1 MOL1         0.0700
      12    H6      19.513863   18.115078   23.844310 H          1 MOL1         0.0700
      13    H7      21.055436   17.547570   23.161588 H          1 MOL1         0.0700
@<TRIPOS>BOND
    1     1     2    1
    2     1     3    2
    3     1     4    1
    4     4     5    1
    5     4     6    1
    6     4     7    1
    7     7     8    1
    8     7     9    1
    9     7    10    1
   10    10    11    1
   11    10    12    1
   12    10    13    1
@<TRIPOS>SUBSTRUCTURE
       1 MOL1            1 RESIDUE      1      MOL     
@<SCITEGIC>MOL_PROPERTY
VConf Rank
SciTegic.value.IntegerValue
858

@<SCITEGIC>MOL_PROPERTY
Conf_Id
SciTegic.value.IntegerValue
1

@<SCITEGIC>MOL_PROPERTY
Delta U+W
SciTegic.value.DoubleValue
-1.339

@<SCITEGIC>MOL_PROPERTY
U+W
SciTegic.value.DoubleValue
-59.672

@<SCITEGIC>MOL_PROPERTY
Grad RMS
SciTegic.value.DoubleValue
0.000000

@<SCITEGIC>MOL_PROPERTY
U
SciTegic.value.DoubleValue
7.389

@<SCITEGIC>MOL_PROPERTY
W
SciTegic.value.DoubleValue
-67.061

@<SCITEGIC>MOL_PROPERTY
W(PB)
SciTegic.value.DoubleValue
-68.767

@<SCITEGIC>MOL_PROPERTY
W(SA)
SciTegic.value.DoubleValue
1.707

@<SCITEGIC>MOL_PROPERTY
Valence
SciTegic.value.DoubleValue
5.822

@<SCITEGIC>MOL_PROPERTY
Coulomb
SciTegic.value.DoubleValue
1.255

@<SCITEGIC>MOL_PROPERTY
VdW
SciTegic.value.DoubleValue
0.312

@<SCITEGIC>MOL_PROPERTY
VdW6
SciTegic.value.DoubleValue
-3.061

@<SCITEGIC>MOL_PROPERTY
VdW12
SciTegic.value.DoubleValue
3.372

@<SCITEGIC>MOL_PROPERTY
Bond
SciTegic.value.DoubleValue
0.059

@<SCITEGIC>MOL_PROPERTY
Angle
SciTegic.value.DoubleValue
2.241

@<SCITEGIC>MOL_PROPERTY
Pdih
SciTegic.value.DoubleValue
3.522

@<SCITEGIC>MOL_PROPERTY
Idih
SciTegic.value.DoubleValue
0.000

@<SCITEGIC>MOL_PROPERTY
Tether
SciTegic.value.DoubleValue
0.000

@<TRIPOS>MOLECULE
guest-6_confgen4.mol2 : confsearch ligand conformer 859
          13          12           1
SMALL
USER_CHARGES
 
@<TRIPOS>ATOM
       1    C1      20.829614   19.428765   20.415204 C.2        1 MOL1         0.6021
       2    O1      21.877172   20.042779   20.456542 O.co2      1 MOL1        -0.6904
       3    O2      20.592551   18.563494   19.596052 O.co2      1 MOL1        -0.6904
       4    C2      19.742430   19.790423   21.424145 C.3        1 MOL1        -0.2102
       5    H1      18.783858   19.397082   21.063991 H          1 MOL1         0.0687
       6    H2      19.653530   20.883323   21.431414 H          1 MOL1         0.0687
       7    C3      20.019445   19.286121   22.863687 C.3        1 MOL1        -0.1974
       8    H3      21.000157   19.651712   23.199053 H          1 MOL1         0.0689
       9    H4      19.272591   19.715481   23.545400 H          1 MOL1         0.0689
      10    C4      19.972836   17.747760   22.969524 C.3        1 MOL1        -0.2987
      11    H5      20.738406   17.284964   22.332696 H          1 MOL1         0.0700
      12    H6      20.153109   17.425488   24.003322 H          1 MOL1         0.0700
      13    H7      18.992482   17.362616   22.659746 H          1 MOL1         0.0700
@<TRIPOS>BOND
    1     1     2    1
    2     1     3    2
    3     1     4    1
    4     4     5    1
    5     4     6    1
    6     4     7    1
    7     7     8    1
    8     7     9    1
    9     7    10    1
   10    10    11    1
   11    10    12    1
   12    10    13    1
@<TRIPOS>SUBSTRUCTURE
       1 MOL1            1 RESIDUE      1      MOL     
@<SCITEGIC>MOL_PROPERTY
VConf Rank
SciTegic.value.IntegerValue
859

@<SCITEGIC>MOL_PROPERTY
Conf_Id
SciTegic.value.IntegerValue
4

@<SCITEGIC>MOL_PROPERTY
Delta U+W
SciTegic.value.DoubleValue
0.281

@<SCITEGIC>MOL_PROPERTY
U+W
SciTegic.value.DoubleValue
-58.051

@<SCITEGIC>MOL_PROPERTY
Grad RMS
SciTegic.value.DoubleValue
0.000000

@<SCITEGIC>MOL_PROPERTY
U
SciTegic.value.DoubleValue
9.781

@<SCITEGIC>MOL_PROPERTY
W
SciTegic.value.DoubleValue
-67.832

@<SCITEGIC>MOL_PROPERTY
W(PB)
SciTegic.value.DoubleValue
-69.535

@<SCITEGIC>MOL_PROPERTY
W(SA)
SciTegic.value.DoubleValue
1.703

@<SCITEGIC>MOL_PROPERTY
Valence
SciTegic.value.DoubleValue
6.123

@<SCITEGIC>MOL_PROPERTY
Coulomb
SciTegic.value.DoubleValue
3.449

@<SCITEGIC>MOL_PROPERTY
VdW
SciTegic.value.DoubleValue
0.209

@<SCITEGIC>MOL_PROPERTY
VdW6
SciTegic.value.DoubleValue
-3.762

@<SCITEGIC>MOL_PROPERTY
VdW12
SciTegic.value.DoubleValue
3.972

@<SCITEGIC>MOL_PROPERTY
Bond
SciTegic.value.DoubleValue
0.078

@<SCITEGIC>MOL_PROPERTY
Angle
SciTegic.value.DoubleValue
2.428

@<SCITEGIC>MOL_PROPERTY
Pdih
SciTegic.value.DoubleValue
3.616

@<SCITEGIC>MOL_PROPERTY
Idih
SciTegic.value.DoubleValue
0.002

@<SCITEGIC>MOL_PROPERTY
Tether
SciTegic.value.DoubleValue
0.000

@<TRIPOS>MOLECULE
guest-6_confgen4.mol2 : confsearch ligand conformer 860
          13          12           1
SMALL
USER_CHARGES
 
@<TRIPOS>ATOM
       1    C1      19.842636   20.128341   20.659168 C.2        1 MOL1         0.6021
       2    O1      20.334700   19.694885   19.636478 O.co2      1 MOL1        -0.6904
       3    O2      18.793208   20.739744   20.690543 O.co2      1 MOL1        -0.6904
       4    C2      20.598281   19.926711   21.970302 C.3        1 MOL1        -0.2102
       5    H1      20.627090   20.895350   22.483424 H          1 MOL1         0.0687
       6    H2      21.636886   19.659388   21.739818 H          1 MOL1         0.0687
       7    C3      19.969286   18.864833   22.908447 C.3        1 MOL1        -0.1974
       8    H3      20.482342   18.893350   23.879442 H          1 MOL1         0.0689
       9    H4      18.917439   19.119844   23.099520 H          1 MOL1         0.0689
      10    C4      20.062698   17.437362   22.330927 C.3        1 MOL1        -0.2987
      11    H5      21.108289   17.153627   22.153088 H          1 MOL1         0.0700
      12    H6      19.626893   16.709083   23.027188 H          1 MOL1         0.0700
      13    H7      19.521262   17.360656   21.378672 H          1 MOL1         0.0700
@<TRIPOS>BOND
    1     1     2    1
    2     1     3    2
    3     1     4    1
    4     4     5    1
    5     4     6    1
    6     4     7    1
    7     7     8    1
    8     7     9    1
    9     7    10    1
   10    10    11    1
   11    10    12    1
   12    10    13    1
@<TRIPOS>SUBSTRUCTURE
       1 MOL1            1 RESIDUE      1      MOL     
@<SCITEGIC>MOL_PROPERTY
VConf Rank
SciTegic.value.IntegerValue
860

@<SCITEGIC>MOL_PROPERTY
Conf_Id
SciTegic.value.IntegerValue
36

@<SCITEGIC>MOL_PROPERTY
Delta U+W
SciTegic.value.DoubleValue
0.272

@<SCITEGIC>MOL_PROPERTY
U+W
SciTegic.value.DoubleValue
-58.060

@<SCITEGIC>MOL_PROPERTY
Grad RMS
SciTegic.value.DoubleValue
0.000000

@<SCITEGIC>MOL_PROPERTY
U
SciTegic.value.DoubleValue
9.781

@<SCITEGIC>MOL_PROPERTY
W
SciTegic.value.DoubleValue
-67.841

@<SCITEGIC>MOL_PROPERTY
W(PB)
SciTegic.value.DoubleValue
-69.537

@<SCITEGIC>MOL_PROPERTY
W(SA)
SciTegic.value.DoubleValue
1.696

@<SCITEGIC>MOL_PROPERTY
Valence
SciTegic.value.DoubleValue
6.123

@<SCITEGIC>MOL_PROPERTY
Coulomb
SciTegic.value.DoubleValue
3.449

@<SCITEGIC>MOL_PROPERTY
VdW
SciTegic.value.DoubleValue
0.209

@<SCITEGIC>MOL_PROPERTY
VdW6
SciTegic.value.DoubleValue
-3.762

@<SCITEGIC>MOL_PROPERTY
VdW12
SciTegic.value.DoubleValue
3.972

@<SCITEGIC>MOL_PROPERTY
Bond
SciTegic.value.DoubleValue
0.078

@<SCITEGIC>MOL_PROPERTY
Angle
SciTegic.value.DoubleValue
2.428

@<SCITEGIC>MOL_PROPERTY
Pdih
SciTegic.value.DoubleValue
3.616

@<SCITEGIC>MOL_PROPERTY
Idih
SciTegic.value.DoubleValue
0.002

@<SCITEGIC>MOL_PROPERTY
Tether
SciTegic.value.DoubleValue
0.000

@<TRIPOS>MOLECULE
guest-6_confgen4.mol2 : confsearch ligand conformer 861
          13          12           1
SMALL
USER_CHARGES
 
@<TRIPOS>ATOM
       1    C1      18.744924   17.893935   23.120859 C.2        1 MOL1         0.6021
       2    O1      19.500339   17.002901   23.456620 O.co2      1 MOL1        -0.6904
       3    O2      17.600315   17.975481   23.518373 O.co2      1 MOL1        -0.6904
       4    C2      19.228097   18.976979   22.154297 C.3        1 MOL1        -0.2102
       5    H1      19.097020   19.944236   22.653867 H          1 MOL1         0.0687
       6    H2      18.553759   18.969143   21.289691 H          1 MOL1         0.0687
       7    C3      20.695685   18.831873   21.673581 C.3        1 MOL1        -0.1974
       8    H3      21.369556   18.837030   22.541697 H          1 MOL1         0.0689
       9    H4      20.825650   17.860697   21.175905 H          1 MOL1         0.0689
      10    C4      21.092550   19.964781   20.705670 C.3        1 MOL1        -0.2987
      11    H5      21.000860   20.945739   21.190271 H          1 MOL1         0.0700
      12    H6      22.133097   19.845259   20.376683 H          1 MOL1         0.0700
      13    H7      20.452540   19.961589   19.813537 H          1 MOL1         0.0700
@<TRIPOS>BOND
    1     1     2    1
    2     1     3    2
    3     1     4    1
    4     4     5    1
    5     4     6    1
    6     4     7    1
    7     7     8    1
    8     7     9    1
    9     7    10    1
   10    10    11    1
   11    10    12    1
   12    10    13    1
@<TRIPOS>SUBSTRUCTURE
       1 MOL1            1 RESIDUE      1      MOL     
@<SCITEGIC>MOL_PROPERTY
VConf Rank
SciTegic.value.IntegerValue
861

@<SCITEGIC>MOL_PROPERTY
Conf_Id
SciTegic.value.IntegerValue
0

@<SCITEGIC>MOL_PROPERTY
Delta U+W
SciTegic.value.DoubleValue
0.000

@<SCITEGIC>MOL_PROPERTY
U+W
SciTegic.value.DoubleValue
-58.332

@<SCITEGIC>MOL_PROPERTY
Grad RMS
SciTegic.value.DoubleValue
0.000000

@<SCITEGIC>MOL_PROPERTY
U
SciTegic.value.DoubleValue
8.390

@<SCITEGIC>MOL_PROPERTY
W
SciTegic.value.DoubleValue
-66.722

@<SCITEGIC>MOL_PROPERTY
W(PB)
SciTegic.value.DoubleValue
-68.455

@<SCITEGIC>MOL_PROPERTY
W(SA)
SciTegic.value.DoubleValue
1.733

@<SCITEGIC>MOL_PROPERTY
Valence
SciTegic.value.DoubleValue
6.333

@<SCITEGIC>MOL_PROPERTY
Coulomb
SciTegic.value.DoubleValue
1.215

@<SCITEGIC>MOL_PROPERTY
VdW
SciTegic.value.DoubleValue
0.842

@<SCITEGIC>MOL_PROPERTY
VdW6
SciTegic.value.DoubleValue
-3.344

@<SCITEGIC>MOL_PROPERTY
VdW12
SciTegic.value.DoubleValue
4.186

@<SCITEGIC>MOL_PROPERTY
Bond
SciTegic.value.DoubleValue
0.091

@<SCITEGIC>MOL_PROPERTY
Angle
SciTegic.value.DoubleValue
2.713

@<SCITEGIC>MOL_PROPERTY
Pdih
SciTegic.value.DoubleValue
3.529

@<SCITEGIC>MOL_PROPERTY
Idih
SciTegic.value.DoubleValue
0.000

@<SCITEGIC>MOL_PROPERTY
Tether
SciTegic.value.DoubleValue
0.000

@<TRIPOS>MOLECULE
guest-6_confgen4.mol2 : confsearch ligand conformer 862
          13          12           1
SMALL
USER_CHARGES
 
@<TRIPOS>ATOM
       1    C1      20.845163   20.224744   20.307771 C.2        1 MOL1         0.6021
       2    O1      20.067447   20.866718   19.630726 O.co2      1 MOL1        -0.6904
       3    O2      21.948055   19.888435   19.925822 O.co2      1 MOL1        -0.6904
       4    C2      20.405965   19.802104   21.705619 C.3        1 MOL1        -0.2102
       5    H1      19.743408   20.579634   22.104973 H          1 MOL1         0.0687
       6    H2      21.294272   19.772905   22.348330 H          1 MOL1         0.0687
       7    C3      19.689359   18.430259   21.724787 C.3        1 MOL1        -0.1974
       8    H3      18.807357   18.468340   21.070232 H          1 MOL1         0.0689
       9    H4      20.358550   17.661453   21.313760 H          1 MOL1         0.0689
      10    C4      19.258406   18.032137   23.150644 C.3        1 MOL1        -0.2987
      11    H5      18.752643   17.057756   23.143878 H          1 MOL1         0.0700
      12    H6      20.127583   17.958299   23.817453 H          1 MOL1         0.0700
      13    H7      18.564467   18.771354   23.572028 H          1 MOL1         0.0700
@<TRIPOS>BOND
    1     1     2    1
    2     1     3    2
    3     1     4    1
    4     4     5    1
    5     4     6    1
    6     4     7    1
    7     7     8    1
    8     7     9    1
    9     7    10    1
   10    10    11    1
   11    10    12    1
   12    10    13    1
@<TRIPOS>SUBSTRUCTURE
       1 MOL1            1 RESIDUE      1      MOL     
@<SCITEGIC>MOL_PROPERTY
VConf Rank
SciTegic.value.IntegerValue
862

@<SCITEGIC>MOL_PROPERTY
Conf_Id
SciTegic.value.IntegerValue
1

@<SCITEGIC>MOL_PROPERTY
Delta U+W
SciTegic.value.DoubleValue
-1.339

@<SCITEGIC>MOL_PROPERTY
U+W
SciTegic.value.DoubleValue
-59.672

@<SCITEGIC>MOL_PROPERTY
Grad RMS
SciTegic.value.DoubleValue
0.000000

@<SCITEGIC>MOL_PROPERTY
U
SciTegic.value.DoubleValue
7.389

@<SCITEGIC>MOL_PROPERTY
W
SciTegic.value.DoubleValue
-67.061

@<SCITEGIC>MOL_PROPERTY
W(PB)
SciTegic.value.DoubleValue
-68.767

@<SCITEGIC>MOL_PROPERTY
W(SA)
SciTegic.value.DoubleValue
1.707

@<SCITEGIC>MOL_PROPERTY
Valence
SciTegic.value.DoubleValue
5.822

@<SCITEGIC>MOL_PROPERTY
Coulomb
SciTegic.value.DoubleValue
1.255

@<SCITEGIC>MOL_PROPERTY
VdW
SciTegic.value.DoubleValue
0.312

@<SCITEGIC>MOL_PROPERTY
VdW6
SciTegic.value.DoubleValue
-3.061

@<SCITEGIC>MOL_PROPERTY
VdW12
SciTegic.value.DoubleValue
3.372

@<SCITEGIC>MOL_PROPERTY
Bond
SciTegic.value.DoubleValue
0.059

@<SCITEGIC>MOL_PROPERTY
Angle
SciTegic.value.DoubleValue
2.241

@<SCITEGIC>MOL_PROPERTY
Pdih
SciTegic.value.DoubleValue
3.522

@<SCITEGIC>MOL_PROPERTY
Idih
SciTegic.value.DoubleValue
0.000

@<SCITEGIC>MOL_PROPERTY
Tether
SciTegic.value.DoubleValue
0.000

@<TRIPOS>MOLECULE
guest-6_confgen4.mol2 : confsearch ligand conformer 863
          13          12           1
SMALL
USER_CHARGES
 
@<TRIPOS>ATOM
       1    C1      19.501608   20.646825   22.045373 C.2        1 MOL1         0.6021
       2    O1      19.015877   21.005130   23.099784 O.co2      1 MOL1        -0.6904
       3    O2      20.199306   21.360534   21.352739 O.co2      1 MOL1        -0.6904
       4    C2      19.187756   19.237347   21.549796 C.3        1 MOL1        -0.2102
       5    H1      19.416711   19.182417   20.478418 H          1 MOL1         0.0687
       6    H2      18.106020   19.088646   21.650397 H          1 MOL1         0.0687
       7    C3      19.935724   18.114775   22.313809 C.3        1 MOL1        -0.1974
       8    H3      19.732524   18.204144   23.390212 H          1 MOL1         0.0689
       9    H4      19.540657   17.139564   21.997962 H          1 MOL1         0.0689
      10    C4      21.458187   18.145676   22.066666 C.3        1 MOL1        -0.2987
      11    H5      21.895038   19.091931   22.412485 H          1 MOL1         0.0700
      12    H6      21.954179   17.327642   22.605097 H          1 MOL1         0.0700
      13    H7      21.684598   18.035381   20.998038 H          1 MOL1         0.0700
@<TRIPOS>BOND
    1     1     2    1
    2     1     3    2
    3     1     4    1
    4     4     5    1
    5     4     6    1
    6     4     7    1
    7     7     8    1
    8     7     9    1
    9     7    10    1
   10    10    11    1
   11    10    12    1
   12    10    13    1
@<TRIPOS>SUBSTRUCTURE
       1 MOL1            1 RESIDUE      1      MOL     
@<SCITEGIC>MOL_PROPERTY
VConf Rank
SciTegic.value.IntegerValue
863

@<SCITEGIC>MOL_PROPERTY
Conf_Id
SciTegic.value.IntegerValue
4

@<SCITEGIC>MOL_PROPERTY
Delta U+W
SciTegic.value.DoubleValue
0.281

@<SCITEGIC>MOL_PROPERTY
U+W
SciTegic.value.DoubleValue
-58.051

@<SCITEGIC>MOL_PROPERTY
Grad RMS
SciTegic.value.DoubleValue
0.000000

@<SCITEGIC>MOL_PROPERTY
U
SciTegic.value.DoubleValue
9.781

@<SCITEGIC>MOL_PROPERTY
W
SciTegic.value.DoubleValue
-67.832

@<SCITEGIC>MOL_PROPERTY
W(PB)
SciTegic.value.DoubleValue
-69.535

@<SCITEGIC>MOL_PROPERTY
W(SA)
SciTegic.value.DoubleValue
1.703

@<SCITEGIC>MOL_PROPERTY
Valence
SciTegic.value.DoubleValue
6.123

@<SCITEGIC>MOL_PROPERTY
Coulomb
SciTegic.value.DoubleValue
3.449

@<SCITEGIC>MOL_PROPERTY
VdW
SciTegic.value.DoubleValue
0.209

@<SCITEGIC>MOL_PROPERTY
VdW6
SciTegic.value.DoubleValue
-3.762

@<SCITEGIC>MOL_PROPERTY
VdW12
SciTegic.value.DoubleValue
3.972

@<SCITEGIC>MOL_PROPERTY
Bond
SciTegic.value.DoubleValue
0.078

@<SCITEGIC>MOL_PROPERTY
Angle
SciTegic.value.DoubleValue
2.428

@<SCITEGIC>MOL_PROPERTY
Pdih
SciTegic.value.DoubleValue
3.616

@<SCITEGIC>MOL_PROPERTY
Idih
SciTegic.value.DoubleValue
0.002

@<SCITEGIC>MOL_PROPERTY
Tether
SciTegic.value.DoubleValue
0.000

@<TRIPOS>MOLECULE
guest-6_confgen4.mol2 : confsearch ligand conformer 864
          13          12           1
SMALL
USER_CHARGES
 
@<TRIPOS>ATOM
       1    C1      19.137857   17.598233   22.609866 C.2        1 MOL1         0.6021
       2    O1      19.696996   16.550697   22.353085 O.co2      1 MOL1        -0.6904
       3    O2      18.530566   17.797372   23.643132 O.co2      1 MOL1        -0.6904
       4    C2      19.168041   18.711873   21.566018 C.3        1 MOL1        -0.2102
       5    H1      18.141688   19.080404   21.451246 H          1 MOL1         0.0687
       6    H2      19.459553   18.280666   20.600426 H          1 MOL1         0.0687
       7    C3      20.103178   19.894571   21.926685 C.3        1 MOL1        -0.1974
       8    H3      19.949288   20.708171   21.204712 H          1 MOL1         0.0689
       9    H4      19.828953   20.292368   22.913842 H          1 MOL1         0.0689
      10    C4      21.592466   19.492164   21.922482 C.3        1 MOL1        -0.2987
      11    H5      21.893507   19.112141   20.937419 H          1 MOL1         0.0700
      12    H6      22.227081   20.355307   22.161947 H          1 MOL1         0.0700
      13    H7      21.791838   18.709208   22.666159 H          1 MOL1         0.0700
@<TRIPOS>BOND
    1     1     2    1
    2     1     3    2
    3     1     4    1
    4     4     5    1
    5     4     6    1
    6     4     7    1
    7     7     8    1
    8     7     9    1
    9     7    10    1
   10    10    11    1
   11    10    12    1
   12    10    13    1
@<TRIPOS>SUBSTRUCTURE
       1 MOL1            1 RESIDUE      1      MOL     
@<SCITEGIC>MOL_PROPERTY
VConf Rank
SciTegic.value.IntegerValue
864

@<SCITEGIC>MOL_PROPERTY
Conf_Id
SciTegic.value.IntegerValue
36

@<SCITEGIC>MOL_PROPERTY
Delta U+W
SciTegic.value.DoubleValue
0.272

@<SCITEGIC>MOL_PROPERTY
U+W
SciTegic.value.DoubleValue
-58.060

@<SCITEGIC>MOL_PROPERTY
Grad RMS
SciTegic.value.DoubleValue
0.000000

@<SCITEGIC>MOL_PROPERTY
U
SciTegic.value.DoubleValue
9.781

@<SCITEGIC>MOL_PROPERTY
W
SciTegic.value.DoubleValue
-67.841

@<SCITEGIC>MOL_PROPERTY
W(PB)
SciTegic.value.DoubleValue
-69.537

@<SCITEGIC>MOL_PROPERTY
W(SA)
SciTegic.value.DoubleValue
1.696

@<SCITEGIC>MOL_PROPERTY
Valence
SciTegic.value.DoubleValue
6.123

@<SCITEGIC>MOL_PROPERTY
Coulomb
SciTegic.value.DoubleValue
3.449

@<SCITEGIC>MOL_PROPERTY
VdW
SciTegic.value.DoubleValue
0.209

@<SCITEGIC>MOL_PROPERTY
VdW6
SciTegic.value.DoubleValue
-3.762

@<SCITEGIC>MOL_PROPERTY
VdW12
SciTegic.value.DoubleValue
3.972

@<SCITEGIC>MOL_PROPERTY
Bond
SciTegic.value.DoubleValue
0.078

@<SCITEGIC>MOL_PROPERTY
Angle
SciTegic.value.DoubleValue
2.428

@<SCITEGIC>MOL_PROPERTY
Pdih
SciTegic.value.DoubleValue
3.616

@<SCITEGIC>MOL_PROPERTY
Idih
SciTegic.value.DoubleValue
0.002

@<SCITEGIC>MOL_PROPERTY
Tether
SciTegic.value.DoubleValue
0.000

@<TRIPOS>MOLECULE
guest-6_confgen4.mol2 : confsearch ligand conformer 865
          13          12           1
SMALL
USER_CHARGES
 
@<TRIPOS>ATOM
       1    C1      18.416578   19.152739   23.215505 C.2        1 MOL1         0.6021
       2    O1      17.468095   19.047950   22.462691 O.co2      1 MOL1        -0.6904
       3    O2      18.295862   19.299454   24.414962 O.co2      1 MOL1        -0.6904
       4    C2      19.840099   19.101755   22.657230 C.3        1 MOL1        -0.2102
       5    H1      20.362663   18.283184   23.166353 H          1 MOL1         0.0687
       6    H2      20.340539   20.032384   22.950193 H          1 MOL1         0.0687
       7    C3      19.945083   18.913258   21.121195 C.3        1 MOL1        -0.1974
       8    H3      19.440470   17.981617   20.829363 H          1 MOL1         0.0689
       9    H4      19.418250   19.732934   20.612929 H          1 MOL1         0.0689
      10    C4      21.413239   18.873821   20.651305 C.3        1 MOL1        -0.2987
      11    H5      21.954322   18.042568   21.122228 H          1 MOL1         0.0700
      12    H6      21.467260   18.740043   19.562984 H          1 MOL1         0.0700
      13    H7      21.931930   19.807936   20.904112 H          1 MOL1         0.0700
@<TRIPOS>BOND
    1     1     2    1
    2     1     3    2
    3     1     4    1
    4     4     5    1
    5     4     6    1
    6     4     7    1
    7     7     8    1
    8     7     9    1
    9     7    10    1
   10    10    11    1
   11    10    12    1
   12    10    13    1
@<TRIPOS>SUBSTRUCTURE
       1 MOL1            1 RESIDUE      1      MOL     
@<SCITEGIC>MOL_PROPERTY
VConf Rank
SciTegic.value.IntegerValue
865

@<SCITEGIC>MOL_PROPERTY
Conf_Id
SciTegic.value.IntegerValue
0

@<SCITEGIC>MOL_PROPERTY
Delta U+W
SciTegic.value.DoubleValue
0.000

@<SCITEGIC>MOL_PROPERTY
U+W
SciTegic.value.DoubleValue
-58.332

@<SCITEGIC>MOL_PROPERTY
Grad RMS
SciTegic.value.DoubleValue
0.000000

@<SCITEGIC>MOL_PROPERTY
U
SciTegic.value.DoubleValue
8.390

@<SCITEGIC>MOL_PROPERTY
W
SciTegic.value.DoubleValue
-66.722

@<SCITEGIC>MOL_PROPERTY
W(PB)
SciTegic.value.DoubleValue
-68.455

@<SCITEGIC>MOL_PROPERTY
W(SA)
SciTegic.value.DoubleValue
1.733

@<SCITEGIC>MOL_PROPERTY
Valence
SciTegic.value.DoubleValue
6.333

@<SCITEGIC>MOL_PROPERTY
Coulomb
SciTegic.value.DoubleValue
1.215

@<SCITEGIC>MOL_PROPERTY
VdW
SciTegic.value.DoubleValue
0.842

@<SCITEGIC>MOL_PROPERTY
VdW6
SciTegic.value.DoubleValue
-3.344

@<SCITEGIC>MOL_PROPERTY
VdW12
SciTegic.value.DoubleValue
4.186

@<SCITEGIC>MOL_PROPERTY
Bond
SciTegic.value.DoubleValue
0.091

@<SCITEGIC>MOL_PROPERTY
Angle
SciTegic.value.DoubleValue
2.713

@<SCITEGIC>MOL_PROPERTY
Pdih
SciTegic.value.DoubleValue
3.529

@<SCITEGIC>MOL_PROPERTY
Idih
SciTegic.value.DoubleValue
0.000

@<SCITEGIC>MOL_PROPERTY
Tether
SciTegic.value.DoubleValue
0.000

@<TRIPOS>MOLECULE
guest-6_confgen4.mol2 : confsearch ligand conformer 866
          13          12           1
SMALL
USER_CHARGES
 
@<TRIPOS>ATOM
       1    C1      21.699098   17.799935   21.806560 C.2        1 MOL1         0.6021
       2    O1      22.701847   18.263128   22.311841 O.co2      1 MOL1        -0.6904
       3    O2      21.715210   16.930107   20.958915 O.co2      1 MOL1        -0.6904
       4    C2      20.347971   18.353514   22.246450 C.3        1 MOL1        -0.2102
       5    H1      20.424685   18.642682   23.301682 H          1 MOL1         0.0687
       6    H2      19.611049   17.543383   22.185997 H          1 MOL1         0.0687
       7    C3      19.883648   19.560457   21.395838 C.3        1 MOL1        -0.1974
       8    H3      20.633777   20.361403   21.455951 H          1 MOL1         0.0689
       9    H4      19.819867   19.261864   20.340093 H          1 MOL1         0.0689
      10    C4      18.516232   20.096272   21.865270 C.3        1 MOL1        -0.2987
      11    H5      18.204121   20.950846   21.250819 H          1 MOL1         0.0700
      12    H6      17.742499   19.321271   21.786106 H          1 MOL1         0.0700
      13    H7      18.562672   20.429275   22.910501 H          1 MOL1         0.0700
@<TRIPOS>BOND
    1     1     2    1
    2     1     3    2
    3     1     4    1
    4     4     5    1
    5     4     6    1
    6     4     7    1
    7     7     8    1
    8     7     9    1
    9     7    10    1
   10    10    11    1
   11    10    12    1
   12    10    13    1
@<TRIPOS>SUBSTRUCTURE
       1 MOL1            1 RESIDUE      1      MOL     
@<SCITEGIC>MOL_PROPERTY
VConf Rank
SciTegic.value.IntegerValue
866

@<SCITEGIC>MOL_PROPERTY
Conf_Id
SciTegic.value.IntegerValue
1

@<SCITEGIC>MOL_PROPERTY
Delta U+W
SciTegic.value.DoubleValue
-1.339

@<SCITEGIC>MOL_PROPERTY
U+W
SciTegic.value.DoubleValue
-59.672

@<SCITEGIC>MOL_PROPERTY
Grad RMS
SciTegic.value.DoubleValue
0.000000

@<SCITEGIC>MOL_PROPERTY
U
SciTegic.value.DoubleValue
7.389

@<SCITEGIC>MOL_PROPERTY
W
SciTegic.value.DoubleValue
-67.061

@<SCITEGIC>MOL_PROPERTY
W(PB)
SciTegic.value.DoubleValue
-68.767

@<SCITEGIC>MOL_PROPERTY
W(SA)
SciTegic.value.DoubleValue
1.707

@<SCITEGIC>MOL_PROPERTY
Valence
SciTegic.value.DoubleValue
5.822

@<SCITEGIC>MOL_PROPERTY
Coulomb
SciTegic.value.DoubleValue
1.255

@<SCITEGIC>MOL_PROPERTY
VdW
SciTegic.value.DoubleValue
0.312

@<SCITEGIC>MOL_PROPERTY
VdW6
SciTegic.value.DoubleValue
-3.061

@<SCITEGIC>MOL_PROPERTY
VdW12
SciTegic.value.DoubleValue
3.372

@<SCITEGIC>MOL_PROPERTY
Bond
SciTegic.value.DoubleValue
0.059

@<SCITEGIC>MOL_PROPERTY
Angle
SciTegic.value.DoubleValue
2.241

@<SCITEGIC>MOL_PROPERTY
Pdih
SciTegic.value.DoubleValue
3.522

@<SCITEGIC>MOL_PROPERTY
Idih
SciTegic.value.DoubleValue
0.000

@<SCITEGIC>MOL_PROPERTY
Tether
SciTegic.value.DoubleValue
0.000

@<TRIPOS>MOLECULE
guest-6_confgen4.mol2 : confsearch ligand conformer 867
          13          12           1
SMALL
USER_CHARGES
 
@<TRIPOS>ATOM
       1    C1      20.793169   20.253991   23.050577 C.2        1 MOL1         0.6021
       2    O1      19.992960   20.832768   23.758236 O.co2      1 MOL1        -0.6904
       3    O2      21.908389   19.941686   23.417530 O.co2      1 MOL1        -0.6904
       4    C2      20.386108   19.935615   21.614031 C.3        1 MOL1        -0.2102
       5    H1      21.290557   19.719568   21.032152 H          1 MOL1         0.0687
       6    H2      19.946371   20.845929   21.189359 H          1 MOL1         0.0687
       7    C3      19.376234   18.766510   21.484856 C.3        1 MOL1        -0.1974
       8    H3      18.492199   18.974116   22.103973 H          1 MOL1         0.0689
       9    H4      19.026370   18.706359   20.445216 H          1 MOL1         0.0689
      10    C4      19.988842   17.409754   21.889642 C.3        1 MOL1        -0.2987
      11    H5      20.310125   17.419324   22.939648 H          1 MOL1         0.0700
      12    H6      19.255132   16.602310   21.767987 H          1 MOL1         0.0700
      13    H7      20.861728   17.172080   21.267570 H          1 MOL1         0.0700
@<TRIPOS>BOND
    1     1     2    1
    2     1     3    2
    3     1     4    1
    4     4     5    1
    5     4     6    1
    6     4     7    1
    7     7     8    1
    8     7     9    1
    9     7    10    1
   10    10    11    1
   11    10    12    1
   12    10    13    1
@<TRIPOS>SUBSTRUCTURE
       1 MOL1            1 RESIDUE      1      MOL     
@<SCITEGIC>MOL_PROPERTY
VConf Rank
SciTegic.value.IntegerValue
867

@<SCITEGIC>MOL_PROPERTY
Conf_Id
SciTegic.value.IntegerValue
4

@<SCITEGIC>MOL_PROPERTY
Delta U+W
SciTegic.value.DoubleValue
0.281

@<SCITEGIC>MOL_PROPERTY
U+W
SciTegic.value.DoubleValue
-58.051

@<SCITEGIC>MOL_PROPERTY
Grad RMS
SciTegic.value.DoubleValue
0.000000

@<SCITEGIC>MOL_PROPERTY
U
SciTegic.value.DoubleValue
9.781

@<SCITEGIC>MOL_PROPERTY
W
SciTegic.value.DoubleValue
-67.832

@<SCITEGIC>MOL_PROPERTY
W(PB)
SciTegic.value.DoubleValue
-69.535

@<SCITEGIC>MOL_PROPERTY
W(SA)
SciTegic.value.DoubleValue
1.703

@<SCITEGIC>MOL_PROPERTY
Valence
SciTegic.value.DoubleValue
6.123

@<SCITEGIC>MOL_PROPERTY
Coulomb
SciTegic.value.DoubleValue
3.449

@<SCITEGIC>MOL_PROPERTY
VdW
SciTegic.value.DoubleValue
0.209

@<SCITEGIC>MOL_PROPERTY
VdW6
SciTegic.value.DoubleValue
-3.762

@<SCITEGIC>MOL_PROPERTY
VdW12
SciTegic.value.DoubleValue
3.972

@<SCITEGIC>MOL_PROPERTY
Bond
SciTegic.value.DoubleValue
0.078

@<SCITEGIC>MOL_PROPERTY
Angle
SciTegic.value.DoubleValue
2.428

@<SCITEGIC>MOL_PROPERTY
Pdih
SciTegic.value.DoubleValue
3.616

@<SCITEGIC>MOL_PROPERTY
Idih
SciTegic.value.DoubleValue
0.002

@<SCITEGIC>MOL_PROPERTY
Tether
SciTegic.value.DoubleValue
0.000

@<TRIPOS>MOLECULE
guest-6_confgen4.mol2 : confsearch ligand conformer 868
          13          12           1
SMALL
USER_CHARGES
 
@<TRIPOS>ATOM
       1    C1      20.841173   17.841919   20.805707 C.2        1 MOL1         0.6021
       2    O1      21.710042   17.184338   21.342885 O.co2      1 MOL1        -0.6904
       3    O2      20.084888   17.394383   19.966754 O.co2      1 MOL1        -0.6904
       4    C2      20.714023   19.317449   21.176339 C.3        1 MOL1        -0.2102
       5    H1      20.651646   19.885490   20.240484 H          1 MOL1         0.0687
       6    H2      21.636399   19.634445   21.678358 H          1 MOL1         0.0687
       7    C3      19.484448   19.645732   22.061616 C.3        1 MOL1        -0.1974
       8    H3      19.387124   20.736225   22.152305 H          1 MOL1         0.0689
       9    H4      18.570040   19.287060   21.568530 H          1 MOL1         0.0689
      10    C4      19.591401   19.030351   23.472216 C.3        1 MOL1        -0.2987
      11    H5      20.487904   19.393314   23.991766 H          1 MOL1         0.0700
      12    H6      18.716020   19.297703   24.078291 H          1 MOL1         0.0700
      13    H7      19.645903   17.934765   23.421765 H          1 MOL1         0.0700
@<TRIPOS>BOND
    1     1     2    1
    2     1     3    2
    3     1     4    1
    4     4     5    1
    5     4     6    1
    6     4     7    1
    7     7     8    1
    8     7     9    1
    9     7    10    1
   10    10    11    1
   11    10    12    1
   12    10    13    1
@<TRIPOS>SUBSTRUCTURE
       1 MOL1            1 RESIDUE      1      MOL     
@<SCITEGIC>MOL_PROPERTY
VConf Rank
SciTegic.value.IntegerValue
868

@<SCITEGIC>MOL_PROPERTY
Conf_Id
SciTegic.value.IntegerValue
36

@<SCITEGIC>MOL_PROPERTY
Delta U+W
SciTegic.value.DoubleValue
0.272

@<SCITEGIC>MOL_PROPERTY
U+W
SciTegic.value.DoubleValue
-58.060

@<SCITEGIC>MOL_PROPERTY
Grad RMS
SciTegic.value.DoubleValue
0.000000

@<SCITEGIC>MOL_PROPERTY
U
SciTegic.value.DoubleValue
9.781

@<SCITEGIC>MOL_PROPERTY
W
SciTegic.value.DoubleValue
-67.841

@<SCITEGIC>MOL_PROPERTY
W(PB)
SciTegic.value.DoubleValue
-69.537

@<SCITEGIC>MOL_PROPERTY
W(SA)
SciTegic.value.DoubleValue
1.696

@<SCITEGIC>MOL_PROPERTY
Valence
SciTegic.value.DoubleValue
6.123

@<SCITEGIC>MOL_PROPERTY
Coulomb
SciTegic.value.DoubleValue
3.449

@<SCITEGIC>MOL_PROPERTY
VdW
SciTegic.value.DoubleValue
0.209

@<SCITEGIC>MOL_PROPERTY
VdW6
SciTegic.value.DoubleValue
-3.762

@<SCITEGIC>MOL_PROPERTY
VdW12
SciTegic.value.DoubleValue
3.972

@<SCITEGIC>MOL_PROPERTY
Bond
SciTegic.value.DoubleValue
0.078

@<SCITEGIC>MOL_PROPERTY
Angle
SciTegic.value.DoubleValue
2.428

@<SCITEGIC>MOL_PROPERTY
Pdih
SciTegic.value.DoubleValue
3.616

@<SCITEGIC>MOL_PROPERTY
Idih
SciTegic.value.DoubleValue
0.002

@<SCITEGIC>MOL_PROPERTY
Tether
SciTegic.value.DoubleValue
0.000

@<TRIPOS>MOLECULE
guest-6_confgen4.mol2 : confsearch ligand conformer 869
          13          12           1
SMALL
USER_CHARGES
 
@<TRIPOS>ATOM
       1    C1      19.710095   16.909221   22.095571 C.2        1 MOL1         0.6021
       2    O1      18.951625   16.928557   23.045138 O.co2      1 MOL1        -0.6904
       3    O2      20.085258   15.880902   21.569635 O.co2      1 MOL1        -0.6904
       4    C2      20.233957   18.223576   21.513572 C.3        1 MOL1        -0.2102
       5    H1      19.953503   18.247558   20.453804 H          1 MOL1         0.0687
       6    H2      21.329089   18.186567   21.554239 H          1 MOL1         0.0687
       7    C3      19.728192   19.510128   22.217095 C.3        1 MOL1        -0.1974
       8    H3      18.630434   19.543823   22.177780 H          1 MOL1         0.0689
       9    H4      20.007647   19.482725   23.279596 H          1 MOL1         0.0689
      10    C4      20.307092   20.781420   21.564006 C.3        1 MOL1        -0.2987
      11    H5      20.015424   20.848134   20.507596 H          1 MOL1         0.0700
      12    H6      19.938371   21.680526   22.074801 H          1 MOL1         0.0700
      13    H7      21.403705   20.786507   21.618218 H          1 MOL1         0.0700
@<TRIPOS>BOND
    1     1     2    1
    2     1     3    2
    3     1     4    1
    4     4     5    1
    5     4     6    1
    6     4     7    1
    7     7     8    1
    8     7     9    1
    9     7    10    1
   10    10    11    1
   11    10    12    1
   12    10    13    1
@<TRIPOS>SUBSTRUCTURE
       1 MOL1            1 RESIDUE      1      MOL     
@<SCITEGIC>MOL_PROPERTY
VConf Rank
SciTegic.value.IntegerValue
869

@<SCITEGIC>MOL_PROPERTY
Conf_Id
SciTegic.value.IntegerValue
0

@<SCITEGIC>MOL_PROPERTY
Delta U+W
SciTegic.value.DoubleValue
0.000

@<SCITEGIC>MOL_PROPERTY
U+W
SciTegic.value.DoubleValue
-58.332

@<SCITEGIC>MOL_PROPERTY
Grad RMS
SciTegic.value.DoubleValue
0.000000

@<SCITEGIC>MOL_PROPERTY
U
SciTegic.value.DoubleValue
8.390

@<SCITEGIC>MOL_PROPERTY
W
SciTegic.value.DoubleValue
-66.722

@<SCITEGIC>MOL_PROPERTY
W(PB)
SciTegic.value.DoubleValue
-68.455

@<SCITEGIC>MOL_PROPERTY
W(SA)
SciTegic.value.DoubleValue
1.733

@<SCITEGIC>MOL_PROPERTY
Valence
SciTegic.value.DoubleValue
6.333

@<SCITEGIC>MOL_PROPERTY
Coulomb
SciTegic.value.DoubleValue
1.215

@<SCITEGIC>MOL_PROPERTY
VdW
SciTegic.value.DoubleValue
0.842

@<SCITEGIC>MOL_PROPERTY
VdW6
SciTegic.value.DoubleValue
-3.344

@<SCITEGIC>MOL_PROPERTY
VdW12
SciTegic.value.DoubleValue
4.186

@<SCITEGIC>MOL_PROPERTY
Bond
SciTegic.value.DoubleValue
0.091

@<SCITEGIC>MOL_PROPERTY
Angle
SciTegic.value.DoubleValue
2.713

@<SCITEGIC>MOL_PROPERTY
Pdih
SciTegic.value.DoubleValue
3.529

@<SCITEGIC>MOL_PROPERTY
Idih
SciTegic.value.DoubleValue
0.000

@<SCITEGIC>MOL_PROPERTY
Tether
SciTegic.value.DoubleValue
0.000

@<TRIPOS>MOLECULE
guest-6_confgen4.mol2 : confsearch ligand conformer 870
          13          12           1
SMALL
USER_CHARGES
 
@<TRIPOS>ATOM
       1    C1      21.067101   18.091547   20.282755 C.2        1 MOL1         0.6021
       2    O1      22.135310   18.591445   19.992254 O.co2      1 MOL1        -0.6904
       3    O2      20.414070   17.411528   19.516931 O.co2      1 MOL1        -0.6904
       4    C2      20.506724   18.347017   21.677822 C.3        1 MOL1        -0.2102
       5    H1      21.350093   18.437386   22.373223 H          1 MOL1         0.0687
       6    H2      19.930671   17.464343   21.981250 H          1 MOL1         0.0687
       7    C3      19.619001   19.612960   21.749827 C.3        1 MOL1        -0.1974
       8    H3      20.203291   20.488718   21.434431 H          1 MOL1         0.0689
       9    H4      18.783547   19.515434   21.042488 H          1 MOL1         0.0689
      10    C4      19.068696   19.843161   23.171608 C.3        1 MOL1        -0.2987
      11    H5      18.442361   20.744274   23.202642 H          1 MOL1         0.0700
      12    H6      18.455588   18.992769   23.497932 H          1 MOL1         0.0700
      13    H7      19.886222   19.973555   23.892860 H          1 MOL1         0.0700
@<TRIPOS>BOND
    1     1     2    1
    2     1     3    2
    3     1     4    1
    4     4     5    1
    5     4     6    1
    6     4     7    1
    7     7     8    1
    8     7     9    1
    9     7    10    1
   10    10    11    1
   11    10    12    1
   12    10    13    1
@<TRIPOS>SUBSTRUCTURE
       1 MOL1            1 RESIDUE      1      MOL     
@<SCITEGIC>MOL_PROPERTY
VConf Rank
SciTegic.value.IntegerValue
870

@<SCITEGIC>MOL_PROPERTY
Conf_Id
SciTegic.value.IntegerValue
1

@<SCITEGIC>MOL_PROPERTY
Delta U+W
SciTegic.value.DoubleValue
-1.339

@<SCITEGIC>MOL_PROPERTY
U+W
SciTegic.value.DoubleValue
-59.672

@<SCITEGIC>MOL_PROPERTY
Grad RMS
SciTegic.value.DoubleValue
0.000000

@<SCITEGIC>MOL_PROPERTY
U
SciTegic.value.DoubleValue
7.389

@<SCITEGIC>MOL_PROPERTY
W
SciTegic.value.DoubleValue
-67.061

@<SCITEGIC>MOL_PROPERTY
W(PB)
SciTegic.value.DoubleValue
-68.767

@<SCITEGIC>MOL_PROPERTY
W(SA)
SciTegic.value.DoubleValue
1.707

@<SCITEGIC>MOL_PROPERTY
Valence
SciTegic.value.DoubleValue
5.822

@<SCITEGIC>MOL_PROPERTY
Coulomb
SciTegic.value.DoubleValue
1.255

@<SCITEGIC>MOL_PROPERTY
VdW
SciTegic.value.DoubleValue
0.312

@<SCITEGIC>MOL_PROPERTY
VdW6
SciTegic.value.DoubleValue
-3.061

@<SCITEGIC>MOL_PROPERTY
VdW12
SciTegic.value.DoubleValue
3.372

@<SCITEGIC>MOL_PROPERTY
Bond
SciTegic.value.DoubleValue
0.059

@<SCITEGIC>MOL_PROPERTY
Angle
SciTegic.value.DoubleValue
2.241

@<SCITEGIC>MOL_PROPERTY
Pdih
SciTegic.value.DoubleValue
3.522

@<SCITEGIC>MOL_PROPERTY
Idih
SciTegic.value.DoubleValue
0.000

@<SCITEGIC>MOL_PROPERTY
Tether
SciTegic.value.DoubleValue
0.000

@<TRIPOS>MOLECULE
guest-6_confgen4.mol2 : confsearch ligand conformer 871
          13          12           1
SMALL
USER_CHARGES
 
@<TRIPOS>ATOM
       1    C1      18.723364   19.964234   21.494605 C.2        1 MOL1         0.6021
       2    O1      18.648850   20.220826   20.309402 O.co2      1 MOL1        -0.6904
       3    O2      17.760289   19.688156   22.181754 O.co2      1 MOL1        -0.6904
       4    C2      20.095697   20.027869   22.160472 C.3        1 MOL1        -0.2102
       5    H1      19.956640   20.091972   23.246677 H          1 MOL1         0.0687
       6    H2      20.568606   20.965852   21.845938 H          1 MOL1         0.0687
       7    C3      21.026566   18.838556   21.810675 C.3        1 MOL1        -0.1974
       8    H3      21.125920   18.758042   20.719085 H          1 MOL1         0.0689
       9    H4      22.031875   19.040289   22.205049 H          1 MOL1         0.0689
      10    C4      20.517971   17.501240   22.387603 C.3        1 MOL1        -0.2987
      11    H5      19.531195   17.245182   21.979517 H          1 MOL1         0.0700
      12    H6      21.208729   16.685051   22.139037 H          1 MOL1         0.0700
      13    H7      20.432481   17.552740   23.480961 H          1 MOL1         0.0700
@<TRIPOS>BOND
    1     1     2    1
    2     1     3    2
    3     1     4    1
    4     4     5    1
    5     4     6    1
    6     4     7    1
    7     7     8    1
    8     7     9    1
    9     7    10    1
   10    10    11    1
   11    10    12    1
   12    10    13    1
@<TRIPOS>SUBSTRUCTURE
       1 MOL1            1 RESIDUE      1      MOL     
@<SCITEGIC>MOL_PROPERTY
VConf Rank
SciTegic.value.IntegerValue
871

@<SCITEGIC>MOL_PROPERTY
Conf_Id
SciTegic.value.IntegerValue
4

@<SCITEGIC>MOL_PROPERTY
Delta U+W
SciTegic.value.DoubleValue
0.281

@<SCITEGIC>MOL_PROPERTY
U+W
SciTegic.value.DoubleValue
-58.051

@<SCITEGIC>MOL_PROPERTY
Grad RMS
SciTegic.value.DoubleValue
0.000000

@<SCITEGIC>MOL_PROPERTY
U
SciTegic.value.DoubleValue
9.781

@<SCITEGIC>MOL_PROPERTY
W
SciTegic.value.DoubleValue
-67.832

@<SCITEGIC>MOL_PROPERTY
W(PB)
SciTegic.value.DoubleValue
-69.535

@<SCITEGIC>MOL_PROPERTY
W(SA)
SciTegic.value.DoubleValue
1.703

@<SCITEGIC>MOL_PROPERTY
Valence
SciTegic.value.DoubleValue
6.123

@<SCITEGIC>MOL_PROPERTY
Coulomb
SciTegic.value.DoubleValue
3.449

@<SCITEGIC>MOL_PROPERTY
VdW
SciTegic.value.DoubleValue
0.209

@<SCITEGIC>MOL_PROPERTY
VdW6
SciTegic.value.DoubleValue
-3.762

@<SCITEGIC>MOL_PROPERTY
VdW12
SciTegic.value.DoubleValue
3.972

@<SCITEGIC>MOL_PROPERTY
Bond
SciTegic.value.DoubleValue
0.078

@<SCITEGIC>MOL_PROPERTY
Angle
SciTegic.value.DoubleValue
2.428

@<SCITEGIC>MOL_PROPERTY
Pdih
SciTegic.value.DoubleValue
3.616

@<SCITEGIC>MOL_PROPERTY
Idih
SciTegic.value.DoubleValue
0.002

@<SCITEGIC>MOL_PROPERTY
Tether
SciTegic.value.DoubleValue
0.000

@<TRIPOS>MOLECULE
guest-6_confgen4.mol2 : confsearch ligand conformer 872
          13          12           1
SMALL
USER_CHARGES
 
@<TRIPOS>ATOM
       1    C1      20.079188   19.400113   23.735252 C.2        1 MOL1         0.6021
       2    O1      19.950902   18.393097   24.402611 O.co2      1 MOL1        -0.6904
       3    O2      20.775726   20.338798   24.066615 O.co2      1 MOL1        -0.6904
       4    C2      19.297259   19.509299   22.428580 C.3        1 MOL1        -0.2102
       5    H1      18.808164   20.490685   22.421200 H          1 MOL1         0.0687
       6    H2      18.498555   18.757410   22.433105 H          1 MOL1         0.0687
       7    C3      20.166677   19.356972   21.154121 C.3        1 MOL1        -0.1974
       8    H3      19.557641   19.597710   20.272083 H          1 MOL1         0.0689
       9    H4      20.987766   20.087096   21.179686 H          1 MOL1         0.0689
      10    C4      20.740033   17.933390   20.997263 C.3        1 MOL1        -0.2987
      11    H5      19.934412   17.189174   20.947172 H          1 MOL1         0.0700
      12    H6      21.333026   17.854429   20.076817 H          1 MOL1         0.0700
      13    H7      21.391660   17.675003   21.842512 H          1 MOL1         0.0700
@<TRIPOS>BOND
    1     1     2    1
    2     1     3    2
    3     1     4    1
    4     4     5    1
    5     4     6    1
    6     4     7    1
    7     7     8    1
    8     7     9    1
    9     7    10    1
   10    10    11    1
   11    10    12    1
   12    10    13    1
@<TRIPOS>SUBSTRUCTURE
       1 MOL1            1 RESIDUE      1      MOL     
@<SCITEGIC>MOL_PROPERTY
VConf Rank
SciTegic.value.IntegerValue
872

@<SCITEGIC>MOL_PROPERTY
Conf_Id
SciTegic.value.IntegerValue
36

@<SCITEGIC>MOL_PROPERTY
Delta U+W
SciTegic.value.DoubleValue
0.272

@<SCITEGIC>MOL_PROPERTY
U+W
SciTegic.value.DoubleValue
-58.060

@<SCITEGIC>MOL_PROPERTY
Grad RMS
SciTegic.value.DoubleValue
0.000000

@<SCITEGIC>MOL_PROPERTY
U
SciTegic.value.DoubleValue
9.781

@<SCITEGIC>MOL_PROPERTY
W
SciTegic.value.DoubleValue
-67.841

@<SCITEGIC>MOL_PROPERTY
W(PB)
SciTegic.value.DoubleValue
-69.537

@<SCITEGIC>MOL_PROPERTY
W(SA)
SciTegic.value.DoubleValue
1.696

@<SCITEGIC>MOL_PROPERTY
Valence
SciTegic.value.DoubleValue
6.123

@<SCITEGIC>MOL_PROPERTY
Coulomb
SciTegic.value.DoubleValue
3.449

@<SCITEGIC>MOL_PROPERTY
VdW
SciTegic.value.DoubleValue
0.209

@<SCITEGIC>MOL_PROPERTY
VdW6
SciTegic.value.DoubleValue
-3.762

@<SCITEGIC>MOL_PROPERTY
VdW12
SciTegic.value.DoubleValue
3.972

@<SCITEGIC>MOL_PROPERTY
Bond
SciTegic.value.DoubleValue
0.078

@<SCITEGIC>MOL_PROPERTY
Angle
SciTegic.value.DoubleValue
2.428

@<SCITEGIC>MOL_PROPERTY
Pdih
SciTegic.value.DoubleValue
3.616

@<SCITEGIC>MOL_PROPERTY
Idih
SciTegic.value.DoubleValue
0.002

@<SCITEGIC>MOL_PROPERTY
Tether
SciTegic.value.DoubleValue
0.000

@<TRIPOS>MOLECULE
guest-6_confgen4.mol2 : confsearch ligand conformer 873
          13          12           1
SMALL
USER_CHARGES
 
@<TRIPOS>ATOM
       1    C1      20.536251   16.931827   21.762372 C.2        1 MOL1         0.6021
       2    O1      20.892316   16.766583   22.912694 O.co2      1 MOL1        -0.6904
       3    O2      20.538413   16.042702   20.935179 O.co2      1 MOL1        -0.6904
       4    C2      20.058415   18.311278   21.304692 C.3        1 MOL1        -0.2102
       5    H1      19.041172   18.192417   20.912995 H          1 MOL1         0.0687
       6    H2      20.692183   18.615028   20.463020 H          1 MOL1         0.0687
       7    C3      20.072961   19.414870   22.394569 C.3        1 MOL1        -0.1974
       8    H3      19.439598   19.107234   23.238350 H          1 MOL1         0.0689
       9    H4      21.092634   19.530316   22.787881 H          1 MOL1         0.0689
      10    C4      19.576670   20.766617   21.842925 C.3        1 MOL1        -0.2987
      11    H5      18.546692   20.685082   21.471416 H          1 MOL1         0.0700
      12    H6      19.594109   21.534166   22.627667 H          1 MOL1         0.0700
      13    H7      20.212980   21.111525   21.017291 H          1 MOL1         0.0700
@<TRIPOS>BOND
    1     1     2    1
    2     1     3    2
    3     1     4    1
    4     4     5    1
    5     4     6    1
    6     4     7    1
    7     7     8    1
    8     7     9    1
    9     7    10    1
   10    10    11    1
   11    10    12    1
   12    10    13    1
@<TRIPOS>SUBSTRUCTURE
       1 MOL1            1 RESIDUE      1      MOL     
@<SCITEGIC>MOL_PROPERTY
VConf Rank
SciTegic.value.IntegerValue
873

@<SCITEGIC>MOL_PROPERTY
Conf_Id
SciTegic.value.IntegerValue
0

@<SCITEGIC>MOL_PROPERTY
Delta U+W
SciTegic.value.DoubleValue
0.000

@<SCITEGIC>MOL_PROPERTY
U+W
SciTegic.value.DoubleValue
-58.332

@<SCITEGIC>MOL_PROPERTY
Grad RMS
SciTegic.value.DoubleValue
0.000000

@<SCITEGIC>MOL_PROPERTY
U
SciTegic.value.DoubleValue
8.390

@<SCITEGIC>MOL_PROPERTY
W
SciTegic.value.DoubleValue
-66.722

@<SCITEGIC>MOL_PROPERTY
W(PB)
SciTegic.value.DoubleValue
-68.455

@<SCITEGIC>MOL_PROPERTY
W(SA)
SciTegic.value.DoubleValue
1.733

@<SCITEGIC>MOL_PROPERTY
Valence
SciTegic.value.DoubleValue
6.333

@<SCITEGIC>MOL_PROPERTY
Coulomb
SciTegic.value.DoubleValue
1.215

@<SCITEGIC>MOL_PROPERTY
VdW
SciTegic.value.DoubleValue
0.842

@<SCITEGIC>MOL_PROPERTY
VdW6
SciTegic.value.DoubleValue
-3.344

@<SCITEGIC>MOL_PROPERTY
VdW12
SciTegic.value.DoubleValue
4.186

@<SCITEGIC>MOL_PROPERTY
Bond
SciTegic.value.DoubleValue
0.091

@<SCITEGIC>MOL_PROPERTY
Angle
SciTegic.value.DoubleValue
2.713

@<SCITEGIC>MOL_PROPERTY
Pdih
SciTegic.value.DoubleValue
3.529

@<SCITEGIC>MOL_PROPERTY
Idih
SciTegic.value.DoubleValue
0.000

@<SCITEGIC>MOL_PROPERTY
Tether
SciTegic.value.DoubleValue
0.000

@<TRIPOS>MOLECULE
guest-6_confgen4.mol2 : confsearch ligand conformer 874
          13          12           1
SMALL
USER_CHARGES
 
@<TRIPOS>ATOM
       1    C1      18.242480   19.494063   22.928265 C.2        1 MOL1         0.6021
       2    O1      17.915830   18.683695   23.772045 O.co2      1 MOL1        -0.6904
       3    O2      17.464509   20.261872   22.398557 O.co2      1 MOL1        -0.6904
       4    C2      19.704594   19.536974   22.497127 C.3        1 MOL1        -0.2102
       5    H1      20.323629   19.270195   23.362369 H          1 MOL1         0.0687
       6    H2      19.951446   20.571663   22.229728 H          1 MOL1         0.0687
       7    C3      20.012501   18.592204   21.310345 C.3        1 MOL1        -0.1974
       8    H3      19.752211   17.560664   21.586016 H          1 MOL1         0.0689
       9    H4      19.380059   18.862456   20.453138 H          1 MOL1         0.0689
      10    C4      21.497005   18.658700   20.899107 C.3        1 MOL1        -0.2987
      11    H5      21.695675   17.982789   20.057124 H          1 MOL1         0.0700
      12    H6      21.773872   19.675338   20.590324 H          1 MOL1         0.0700
      13    H7      22.148863   18.363523   21.731879 H          1 MOL1         0.0700
@<TRIPOS>BOND
    1     1     2    1
    2     1     3    2
    3     1     4    1
    4     4     5    1
    5     4     6    1
    6     4     7    1
    7     7     8    1
    8     7     9    1
    9     7    10    1
   10    10    11    1
   11    10    12    1
   12    10    13    1
@<TRIPOS>SUBSTRUCTURE
       1 MOL1            1 RESIDUE      1      MOL     
@<SCITEGIC>MOL_PROPERTY
VConf Rank
SciTegic.value.IntegerValue
874

@<SCITEGIC>MOL_PROPERTY
Conf_Id
SciTegic.value.IntegerValue
1

@<SCITEGIC>MOL_PROPERTY
Delta U+W
SciTegic.value.DoubleValue
-1.339

@<SCITEGIC>MOL_PROPERTY
U+W
SciTegic.value.DoubleValue
-59.672

@<SCITEGIC>MOL_PROPERTY
Grad RMS
SciTegic.value.DoubleValue
0.000000

@<SCITEGIC>MOL_PROPERTY
U
SciTegic.value.DoubleValue
7.389

@<SCITEGIC>MOL_PROPERTY
W
SciTegic.value.DoubleValue
-67.061

@<SCITEGIC>MOL_PROPERTY
W(PB)
SciTegic.value.DoubleValue
-68.767

@<SCITEGIC>MOL_PROPERTY
W(SA)
SciTegic.value.DoubleValue
1.707

@<SCITEGIC>MOL_PROPERTY
Valence
SciTegic.value.DoubleValue
5.822

@<SCITEGIC>MOL_PROPERTY
Coulomb
SciTegic.value.DoubleValue
1.255

@<SCITEGIC>MOL_PROPERTY
VdW
SciTegic.value.DoubleValue
0.312

@<SCITEGIC>MOL_PROPERTY
VdW6
SciTegic.value.DoubleValue
-3.061

@<SCITEGIC>MOL_PROPERTY
VdW12
SciTegic.value.DoubleValue
3.372

@<SCITEGIC>MOL_PROPERTY
Bond
SciTegic.value.DoubleValue
0.059

@<SCITEGIC>MOL_PROPERTY
Angle
SciTegic.value.DoubleValue
2.241

@<SCITEGIC>MOL_PROPERTY
Pdih
SciTegic.value.DoubleValue
3.522

@<SCITEGIC>MOL_PROPERTY
Idih
SciTegic.value.DoubleValue
0.000

@<SCITEGIC>MOL_PROPERTY
Tether
SciTegic.value.DoubleValue
0.000

@<TRIPOS>MOLECULE
guest-6_confgen4.mol2 : confsearch ligand conformer 875
          13          12           1
SMALL
USER_CHARGES
 
@<TRIPOS>ATOM
       1    C1      21.242532   19.970728   21.019058 C.2        1 MOL1         0.6021
       2    O1      21.150806   19.850295   19.813578 O.co2      1 MOL1        -0.6904
       3    O2      21.424529   21.036223   21.573586 O.co2      1 MOL1        -0.6904
       4    C2      21.160223   18.710718   21.877152 C.3        1 MOL1        -0.2102
       5    H1      21.571666   18.933688   22.869264 H          1 MOL1         0.0687
       6    H2      21.819183   17.961610   21.422185 H          1 MOL1         0.0687
       7    C3      19.730550   18.126395   22.011092 C.3        1 MOL1        -0.1974
       8    H3      19.312086   17.945409   21.011065 H          1 MOL1         0.0689
       9    H4      19.786260   17.149915   22.511350 H          1 MOL1         0.0689
      10    C4      18.788103   19.049329   22.811040 C.3        1 MOL1        -0.2987
      11    H5      18.673627   20.022215   22.314840 H          1 MOL1         0.0700
      12    H6      17.791748   18.597960   22.903990 H          1 MOL1         0.0700
      13    H7      19.176872   19.225524   23.822576 H          1 MOL1         0.0700
@<TRIPOS>BOND
    1     1     2    1
    2     1     3    2
    3     1     4    1
    4     4     5    1
    5     4     6    1
    6     4     7    1
    7     7     8    1
    8     7     9    1
    9     7    10    1
   10    10    11    1
   11    10    12    1
   12    10    13    1
@<TRIPOS>SUBSTRUCTURE
       1 MOL1            1 RESIDUE      1      MOL     
@<SCITEGIC>MOL_PROPERTY
VConf Rank
SciTegic.value.IntegerValue
875

@<SCITEGIC>MOL_PROPERTY
Conf_Id
SciTegic.value.IntegerValue
4

@<SCITEGIC>MOL_PROPERTY
Delta U+W
SciTegic.value.DoubleValue
0.281

@<SCITEGIC>MOL_PROPERTY
U+W
SciTegic.value.DoubleValue
-58.051

@<SCITEGIC>MOL_PROPERTY
Grad RMS
SciTegic.value.DoubleValue
0.000000

@<SCITEGIC>MOL_PROPERTY
U
SciTegic.value.DoubleValue
9.781

@<SCITEGIC>MOL_PROPERTY
W
SciTegic.value.DoubleValue
-67.832

@<SCITEGIC>MOL_PROPERTY
W(PB)
SciTegic.value.DoubleValue
-69.535

@<SCITEGIC>MOL_PROPERTY
W(SA)
SciTegic.value.DoubleValue
1.703

@<SCITEGIC>MOL_PROPERTY
Valence
SciTegic.value.DoubleValue
6.123

@<SCITEGIC>MOL_PROPERTY
Coulomb
SciTegic.value.DoubleValue
3.449

@<SCITEGIC>MOL_PROPERTY
VdW
SciTegic.value.DoubleValue
0.209

@<SCITEGIC>MOL_PROPERTY
VdW6
SciTegic.value.DoubleValue
-3.762

@<SCITEGIC>MOL_PROPERTY
VdW12
SciTegic.value.DoubleValue
3.972

@<SCITEGIC>MOL_PROPERTY
Bond
SciTegic.value.DoubleValue
0.078

@<SCITEGIC>MOL_PROPERTY
Angle
SciTegic.value.DoubleValue
2.428

@<SCITEGIC>MOL_PROPERTY
Pdih
SciTegic.value.DoubleValue
3.616

@<SCITEGIC>MOL_PROPERTY
Idih
SciTegic.value.DoubleValue
0.002

@<SCITEGIC>MOL_PROPERTY
Tether
SciTegic.value.DoubleValue
0.000

@<TRIPOS>MOLECULE
guest-6_confgen4.mol2 : confsearch ligand conformer 876
          13          12           1
SMALL
USER_CHARGES
 
@<TRIPOS>ATOM
       1    C1      19.894471   17.207603   22.246690 C.2        1 MOL1         0.6021
       2    O1      20.884184   16.743090   22.776407 O.co2      1 MOL1        -0.6904
       3    O2      18.764106   16.844336   22.504388 O.co2      1 MOL1        -0.6904
       4    C2      20.080068   18.278835   21.174896 C.3        1 MOL1        -0.2102
       5    H1      19.465176   17.990164   20.314105 H          1 MOL1         0.0687
       6    H2      21.123956   18.262040   20.838292 H          1 MOL1         0.0687
       7    C3      19.689290   19.707854   21.631551 C.3        1 MOL1        -0.1974
       8    H3      19.709022   20.381042   20.763621 H          1 MOL1         0.0689
       9    H4      18.655725   19.704720   22.005255 H          1 MOL1         0.0689
      10    C4      20.634714   20.259463   22.718669 C.3        1 MOL1        -0.2987
      11    H5      21.671077   20.292071   22.357726 H          1 MOL1         0.0700
      12    H6      20.342539   21.278217   23.004800 H          1 MOL1         0.0700
      13    H7      20.606681   19.633738   23.620617 H          1 MOL1         0.0700
@<TRIPOS>BOND
    1     1     2    1
    2     1     3    2
    3     1     4    1
    4     4     5    1
    5     4     6    1
    6     4     7    1
    7     7     8    1
    8     7     9    1
    9     7    10    1
   10    10    11    1
   11    10    12    1
   12    10    13    1
@<TRIPOS>SUBSTRUCTURE
       1 MOL1            1 RESIDUE      1      MOL     
@<SCITEGIC>MOL_PROPERTY
VConf Rank
SciTegic.value.IntegerValue
876

@<SCITEGIC>MOL_PROPERTY
Conf_Id
SciTegic.value.IntegerValue
36

@<SCITEGIC>MOL_PROPERTY
Delta U+W
SciTegic.value.DoubleValue
0.272

@<SCITEGIC>MOL_PROPERTY
U+W
SciTegic.value.DoubleValue
-58.060

@<SCITEGIC>MOL_PROPERTY
Grad RMS
SciTegic.value.DoubleValue
0.000000

@<SCITEGIC>MOL_PROPERTY
U
SciTegic.value.DoubleValue
9.781

@<SCITEGIC>MOL_PROPERTY
W
SciTegic.value.DoubleValue
-67.841

@<SCITEGIC>MOL_PROPERTY
W(PB)
SciTegic.value.DoubleValue
-69.537

@<SCITEGIC>MOL_PROPERTY
W(SA)
SciTegic.value.DoubleValue
1.696

@<SCITEGIC>MOL_PROPERTY
Valence
SciTegic.value.DoubleValue
6.123

@<SCITEGIC>MOL_PROPERTY
Coulomb
SciTegic.value.DoubleValue
3.449

@<SCITEGIC>MOL_PROPERTY
VdW
SciTegic.value.DoubleValue
0.209

@<SCITEGIC>MOL_PROPERTY
VdW6
SciTegic.value.DoubleValue
-3.762

@<SCITEGIC>MOL_PROPERTY
VdW12
SciTegic.value.DoubleValue
3.972

@<SCITEGIC>MOL_PROPERTY
Bond
SciTegic.value.DoubleValue
0.078

@<SCITEGIC>MOL_PROPERTY
Angle
SciTegic.value.DoubleValue
2.428

@<SCITEGIC>MOL_PROPERTY
Pdih
SciTegic.value.DoubleValue
3.616

@<SCITEGIC>MOL_PROPERTY
Idih
SciTegic.value.DoubleValue
0.002

@<SCITEGIC>MOL_PROPERTY
Tether
SciTegic.value.DoubleValue
0.000

@<TRIPOS>MOLECULE
guest-6_confgen4.mol2 : confsearch ligand conformer 877
          13          12           1
SMALL
USER_CHARGES
 
@<TRIPOS>ATOM
       1    C1      19.261658   20.983465   21.627658 C.2        1 MOL1         0.6021
       2    O1      19.458590   21.174409   20.443560 O.co2      1 MOL1        -0.6904
       3    O2      18.755831   21.813043   22.356174 O.co2      1 MOL1        -0.6904
       4    C2      19.658296   19.647519   22.259013 C.3        1 MOL1        -0.2102
       5    H1      18.755914   19.217132   22.709359 H          1 MOL1         0.0687
       6    H2      20.352539   19.865933   23.079171 H          1 MOL1         0.0687
       7    C3      20.300227   18.619622   21.290867 C.3        1 MOL1        -0.1974
       8    H3      19.604094   18.404335   20.468185 H          1 MOL1         0.0689
       9    H4      21.202649   19.053963   20.838389 H          1 MOL1         0.0689
      10    C4      20.665953   17.307645   22.013913 C.3        1 MOL1        -0.2987
      11    H5      19.774440   16.837100   22.449017 H          1 MOL1         0.0700
      12    H6      21.118406   16.593512   21.313515 H          1 MOL1         0.0700
      13    H7      21.385795   17.491967   22.822230 H          1 MOL1         0.0700
@<TRIPOS>BOND
    1     1     2    1
    2     1     3    2
    3     1     4    1
    4     4     5    1
    5     4     6    1
    6     4     7    1
    7     7     8    1
    8     7     9    1
    9     7    10    1
   10    10    11    1
   11    10    12    1
   12    10    13    1
@<TRIPOS>SUBSTRUCTURE
       1 MOL1            1 RESIDUE      1      MOL     
@<SCITEGIC>MOL_PROPERTY
VConf Rank
SciTegic.value.IntegerValue
877

@<SCITEGIC>MOL_PROPERTY
Conf_Id
SciTegic.value.IntegerValue
0

@<SCITEGIC>MOL_PROPERTY
Delta U+W
SciTegic.value.DoubleValue
0.000

@<SCITEGIC>MOL_PROPERTY
U+W
SciTegic.value.DoubleValue
-58.332

@<SCITEGIC>MOL_PROPERTY
Grad RMS
SciTegic.value.DoubleValue
0.000000

@<SCITEGIC>MOL_PROPERTY
U
SciTegic.value.DoubleValue
8.390

@<SCITEGIC>MOL_PROPERTY
W
SciTegic.value.DoubleValue
-66.722

@<SCITEGIC>MOL_PROPERTY
W(PB)
SciTegic.value.DoubleValue
-68.455

@<SCITEGIC>MOL_PROPERTY
W(SA)
SciTegic.value.DoubleValue
1.733

@<SCITEGIC>MOL_PROPERTY
Valence
SciTegic.value.DoubleValue
6.333

@<SCITEGIC>MOL_PROPERTY
Coulomb
SciTegic.value.DoubleValue
1.215

@<SCITEGIC>MOL_PROPERTY
VdW
SciTegic.value.DoubleValue
0.842

@<SCITEGIC>MOL_PROPERTY
VdW6
SciTegic.value.DoubleValue
-3.344

@<SCITEGIC>MOL_PROPERTY
VdW12
SciTegic.value.DoubleValue
4.186

@<SCITEGIC>MOL_PROPERTY
Bond
SciTegic.value.DoubleValue
0.091

@<SCITEGIC>MOL_PROPERTY
Angle
SciTegic.value.DoubleValue
2.713

@<SCITEGIC>MOL_PROPERTY
Pdih
SciTegic.value.DoubleValue
3.529

@<SCITEGIC>MOL_PROPERTY
Idih
SciTegic.value.DoubleValue
0.000

@<SCITEGIC>MOL_PROPERTY
Tether
SciTegic.value.DoubleValue
0.000

@<TRIPOS>MOLECULE
guest-6_confgen4.mol2 : confsearch ligand conformer 878
          13          12           1
SMALL
USER_CHARGES
 
@<TRIPOS>ATOM
       1    C1      18.536436   19.362188   23.330310 C.2        1 MOL1         0.6021
       2    O1      17.379166   19.357514   22.961440 O.co2      1 MOL1        -0.6904
       3    O2      18.919453   19.934329   24.330966 O.co2      1 MOL1        -0.6904
       4    C2      19.567142   18.625854   22.481218 C.3        1 MOL1        -0.2102
       5    H1      19.074637   17.761024   22.020211 H          1 MOL1         0.0687
       6    H2      20.344841   18.236683   23.149612 H          1 MOL1         0.0687
       7    C3      20.201967   19.521507   21.390048 C.3        1 MOL1        -0.1974
       8    H3      19.413060   19.913392   20.732877 H          1 MOL1         0.0689
       9    H4      20.683604   20.389057   21.862495 H          1 MOL1         0.0689
      10    C4      21.238294   18.748540   20.549905 C.3        1 MOL1        -0.2987
      11    H5      21.676973   19.399519   19.782410 H          1 MOL1         0.0700
      12    H6      22.053703   18.371904   21.181419 H          1 MOL1         0.0700
      13    H7      20.773400   17.892624   20.043113 H          1 MOL1         0.0700
@<TRIPOS>BOND
    1     1     2    1
    2     1     3    2
    3     1     4    1
    4     4     5    1
    5     4     6    1
    6     4     7    1
    7     7     8    1
    8     7     9    1
    9     7    10    1
   10    10    11    1
   11    10    12    1
   12    10    13    1
@<TRIPOS>SUBSTRUCTURE
       1 MOL1            1 RESIDUE      1      MOL     
@<SCITEGIC>MOL_PROPERTY
VConf Rank
SciTegic.value.IntegerValue
878

@<SCITEGIC>MOL_PROPERTY
Conf_Id
SciTegic.value.IntegerValue
1

@<SCITEGIC>MOL_PROPERTY
Delta U+W
SciTegic.value.DoubleValue
-1.339

@<SCITEGIC>MOL_PROPERTY
U+W
SciTegic.value.DoubleValue
-59.672

@<SCITEGIC>MOL_PROPERTY
Grad RMS
SciTegic.value.DoubleValue
0.000000

@<SCITEGIC>MOL_PROPERTY
U
SciTegic.value.DoubleValue
7.389

@<SCITEGIC>MOL_PROPERTY
W
SciTegic.value.DoubleValue
-67.061

@<SCITEGIC>MOL_PROPERTY
W(PB)
SciTegic.value.DoubleValue
-68.767

@<SCITEGIC>MOL_PROPERTY
W(SA)
SciTegic.value.DoubleValue
1.707

@<SCITEGIC>MOL_PROPERTY
Valence
SciTegic.value.DoubleValue
5.822

@<SCITEGIC>MOL_PROPERTY
Coulomb
SciTegic.value.DoubleValue
1.255

@<SCITEGIC>MOL_PROPERTY
VdW
SciTegic.value.DoubleValue
0.312

@<SCITEGIC>MOL_PROPERTY
VdW6
SciTegic.value.DoubleValue
-3.061

@<SCITEGIC>MOL_PROPERTY
VdW12
SciTegic.value.DoubleValue
3.372

@<SCITEGIC>MOL_PROPERTY
Bond
SciTegic.value.DoubleValue
0.059

@<SCITEGIC>MOL_PROPERTY
Angle
SciTegic.value.DoubleValue
2.241

@<SCITEGIC>MOL_PROPERTY
Pdih
SciTegic.value.DoubleValue
3.522

@<SCITEGIC>MOL_PROPERTY
Idih
SciTegic.value.DoubleValue
0.000

@<SCITEGIC>MOL_PROPERTY
Tether
SciTegic.value.DoubleValue
0.000

@<TRIPOS>MOLECULE
guest-6_confgen4.mol2 : confsearch ligand conformer 879
          13          12           1
SMALL
USER_CHARGES
 
@<TRIPOS>ATOM
       1    C1      19.355624   19.906918   23.314665 C.2        1 MOL1         0.6021
       2    O1      18.286376   19.489502   23.712877 O.co2      1 MOL1        -0.6904
       3    O2      20.212999   20.358535   24.047368 O.co2      1 MOL1        -0.6904
       4    C2      19.618596   19.895184   21.810858 C.3        1 MOL1        -0.2102
       5    H1      20.451223   20.575740   21.594379 H          1 MOL1         0.0687
       6    H2      18.731712   20.313976   21.320516 H          1 MOL1         0.0687
       7    C3      19.913527   18.488787   21.229135 C.3        1 MOL1        -0.1974
       8    H3      19.092925   17.804672   21.487055 H          1 MOL1         0.0689
       9    H4      19.939633   18.551089   20.132636 H          1 MOL1         0.0689
      10    C4      21.251971   17.910297   21.732967 C.3        1 MOL1        -0.2987
      11    H5      21.244938   17.792351   22.824693 H          1 MOL1         0.0700
      12    H6      21.439427   16.924564   21.287673 H          1 MOL1         0.0700
      13    H7      22.089233   18.568393   21.465956 H          1 MOL1         0.0700
@<TRIPOS>BOND
    1     1     2    1
    2     1     3    2
    3     1     4    1
    4     4     5    1
    5     4     6    1
    6     4     7    1
    7     7     8    1
    8     7     9    1
    9     7    10    1
   10    10    11    1
   11    10    12    1
   12    10    13    1
@<TRIPOS>SUBSTRUCTURE
       1 MOL1            1 RESIDUE      1      MOL     
@<SCITEGIC>MOL_PROPERTY
VConf Rank
SciTegic.value.IntegerValue
879

@<SCITEGIC>MOL_PROPERTY
Conf_Id
SciTegic.value.IntegerValue
4

@<SCITEGIC>MOL_PROPERTY
Delta U+W
SciTegic.value.DoubleValue
0.281

@<SCITEGIC>MOL_PROPERTY
U+W
SciTegic.value.DoubleValue
-58.051

@<SCITEGIC>MOL_PROPERTY
Grad RMS
SciTegic.value.DoubleValue
0.000000

@<SCITEGIC>MOL_PROPERTY
U
SciTegic.value.DoubleValue
9.781

@<SCITEGIC>MOL_PROPERTY
W
SciTegic.value.DoubleValue
-67.832

@<SCITEGIC>MOL_PROPERTY
W(PB)
SciTegic.value.DoubleValue
-69.535

@<SCITEGIC>MOL_PROPERTY
W(SA)
SciTegic.value.DoubleValue
1.703

@<SCITEGIC>MOL_PROPERTY
Valence
SciTegic.value.DoubleValue
6.123

@<SCITEGIC>MOL_PROPERTY
Coulomb
SciTegic.value.DoubleValue
3.449

@<SCITEGIC>MOL_PROPERTY
VdW
SciTegic.value.DoubleValue
0.209

@<SCITEGIC>MOL_PROPERTY
VdW6
SciTegic.value.DoubleValue
-3.762

@<SCITEGIC>MOL_PROPERTY
VdW12
SciTegic.value.DoubleValue
3.972

@<SCITEGIC>MOL_PROPERTY
Bond
SciTegic.value.DoubleValue
0.078

@<SCITEGIC>MOL_PROPERTY
Angle
SciTegic.value.DoubleValue
2.428

@<SCITEGIC>MOL_PROPERTY
Pdih
SciTegic.value.DoubleValue
3.616

@<SCITEGIC>MOL_PROPERTY
Idih
SciTegic.value.DoubleValue
0.002

@<SCITEGIC>MOL_PROPERTY
Tether
SciTegic.value.DoubleValue
0.000

@<TRIPOS>MOLECULE
guest-6_confgen4.mol2 : confsearch ligand conformer 880
          13          12           1
SMALL
USER_CHARGES
 
@<TRIPOS>ATOM
       1    C1      18.564226   19.284210   22.833146 C.2        1 MOL1         0.6021
       2    O1      17.961774   18.239832   22.982255 O.co2      1 MOL1        -0.6904
       3    O2      18.575510   20.174627   23.659661 O.co2      1 MOL1        -0.6904
       4    C2      19.318100   19.506675   21.524365 C.3        1 MOL1        -0.2102
       5    H1      19.045078   20.502333   21.154891 H          1 MOL1         0.0687
       6    H2      18.956260   18.783578   20.783089 H          1 MOL1         0.0687
       7    C3      20.859789   19.410408   21.655769 C.3        1 MOL1        -0.1974
       8    H3      21.322100   19.729889   20.711802 H          1 MOL1         0.0689
       9    H4      21.207208   20.109037   22.429809 H          1 MOL1         0.0689
      10    C4      21.335617   17.981900   21.991745 C.3        1 MOL1        -0.2987
      11    H5      21.017717   17.270333   21.218438 H          1 MOL1         0.0700
      12    H6      22.430740   17.944521   22.058104 H          1 MOL1         0.0700
      13    H7      20.926890   17.645835   22.953945 H          1 MOL1         0.0700
@<TRIPOS>BOND
    1     1     2    1
    2     1     3    2
    3     1     4    1
    4     4     5    1
    5     4     6    1
    6     4     7    1
    7     7     8    1
    8     7     9    1
    9     7    10    1
   10    10    11    1
   11    10    12    1
   12    10    13    1
@<TRIPOS>SUBSTRUCTURE
       1 MOL1            1 RESIDUE      1      MOL     
@<SCITEGIC>MOL_PROPERTY
VConf Rank
SciTegic.value.IntegerValue
880

@<SCITEGIC>MOL_PROPERTY
Conf_Id
SciTegic.value.IntegerValue
36

@<SCITEGIC>MOL_PROPERTY
Delta U+W
SciTegic.value.DoubleValue
0.272

@<SCITEGIC>MOL_PROPERTY
U+W
SciTegic.value.DoubleValue
-58.060

@<SCITEGIC>MOL_PROPERTY
Grad RMS
SciTegic.value.DoubleValue
0.000000

@<SCITEGIC>MOL_PROPERTY
U
SciTegic.value.DoubleValue
9.781

@<SCITEGIC>MOL_PROPERTY
W
SciTegic.value.DoubleValue
-67.841

@<SCITEGIC>MOL_PROPERTY
W(PB)
SciTegic.value.DoubleValue
-69.537

@<SCITEGIC>MOL_PROPERTY
W(SA)
SciTegic.value.DoubleValue
1.696

@<SCITEGIC>MOL_PROPERTY
Valence
SciTegic.value.DoubleValue
6.123

@<SCITEGIC>MOL_PROPERTY
Coulomb
SciTegic.value.DoubleValue
3.449

@<SCITEGIC>MOL_PROPERTY
VdW
SciTegic.value.DoubleValue
0.209

@<SCITEGIC>MOL_PROPERTY
VdW6
SciTegic.value.DoubleValue
-3.762

@<SCITEGIC>MOL_PROPERTY
VdW12
SciTegic.value.DoubleValue
3.972

@<SCITEGIC>MOL_PROPERTY
Bond
SciTegic.value.DoubleValue
0.078

@<SCITEGIC>MOL_PROPERTY
Angle
SciTegic.value.DoubleValue
2.428

@<SCITEGIC>MOL_PROPERTY
Pdih
SciTegic.value.DoubleValue
3.616

@<SCITEGIC>MOL_PROPERTY
Idih
SciTegic.value.DoubleValue
0.002

@<SCITEGIC>MOL_PROPERTY
Tether
SciTegic.value.DoubleValue
0.000

@<TRIPOS>MOLECULE
guest-6_confgen4.mol2 : confsearch ligand conformer 881
          13          12           1
SMALL
USER_CHARGES
 
@<TRIPOS>ATOM
       1    C1      18.320061   18.420486   20.675370 C.2        1 MOL1         0.6021
       2    O1      18.112612   19.449692   20.062973 O.co2      1 MOL1        -0.6904
       3    O2      17.637831   17.424322   20.544923 O.co2      1 MOL1        -0.6904
       4    C2      19.485926   18.344903   21.663159 C.3        1 MOL1        -0.2102
       5    H1      20.130216   17.515935   21.346869 H          1 MOL1         0.0687
       6    H2      19.070216   18.072448   22.640549 H          1 MOL1         0.0687
       7    C3      20.328807   19.640166   21.796587 C.3        1 MOL1        -0.1974
       8    H3      20.742071   19.913060   20.815518 H          1 MOL1         0.0689
       9    H4      19.680749   20.470284   22.110719 H          1 MOL1         0.0689
      10    C4      21.477575   19.470080   22.811102 C.3        1 MOL1        -0.2987
      11    H5      22.158030   18.665390   22.502918 H          1 MOL1         0.0700
      12    H6      22.062123   20.395844   22.891858 H          1 MOL1         0.0700
      13    H7      21.088174   19.227034   23.808508 H          1 MOL1         0.0700
@<TRIPOS>BOND
    1     1     2    1
    2     1     3    2
    3     1     4    1
    4     4     5    1
    5     4     6    1
    6     4     7    1
    7     7     8    1
    8     7     9    1
    9     7    10    1
   10    10    11    1
   11    10    12    1
   12    10    13    1
@<TRIPOS>SUBSTRUCTURE
       1 MOL1            1 RESIDUE      1      MOL     
@<SCITEGIC>MOL_PROPERTY
VConf Rank
SciTegic.value.IntegerValue
881

@<SCITEGIC>MOL_PROPERTY
Conf_Id
SciTegic.value.IntegerValue
0

@<SCITEGIC>MOL_PROPERTY
Delta U+W
SciTegic.value.DoubleValue
0.000

@<SCITEGIC>MOL_PROPERTY
U+W
SciTegic.value.DoubleValue
-58.332

@<SCITEGIC>MOL_PROPERTY
Grad RMS
SciTegic.value.DoubleValue
0.000000

@<SCITEGIC>MOL_PROPERTY
U
SciTegic.value.DoubleValue
8.390

@<SCITEGIC>MOL_PROPERTY
W
SciTegic.value.DoubleValue
-66.722

@<SCITEGIC>MOL_PROPERTY
W(PB)
SciTegic.value.DoubleValue
-68.455

@<SCITEGIC>MOL_PROPERTY
W(SA)
SciTegic.value.DoubleValue
1.733

@<SCITEGIC>MOL_PROPERTY
Valence
SciTegic.value.DoubleValue
6.333

@<SCITEGIC>MOL_PROPERTY
Coulomb
SciTegic.value.DoubleValue
1.215

@<SCITEGIC>MOL_PROPERTY
VdW
SciTegic.value.DoubleValue
0.842

@<SCITEGIC>MOL_PROPERTY
VdW6
SciTegic.value.DoubleValue
-3.344

@<SCITEGIC>MOL_PROPERTY
VdW12
SciTegic.value.DoubleValue
4.186

@<SCITEGIC>MOL_PROPERTY
Bond
SciTegic.value.DoubleValue
0.091

@<SCITEGIC>MOL_PROPERTY
Angle
SciTegic.value.DoubleValue
2.713

@<SCITEGIC>MOL_PROPERTY
Pdih
SciTegic.value.DoubleValue
3.529

@<SCITEGIC>MOL_PROPERTY
Idih
SciTegic.value.DoubleValue
0.000

@<SCITEGIC>MOL_PROPERTY
Tether
SciTegic.value.DoubleValue
0.000

@<TRIPOS>MOLECULE
guest-6_confgen4.mol2 : confsearch ligand conformer 882
          13          12           1
SMALL
USER_CHARGES
 
@<TRIPOS>ATOM
       1    C1      19.582683   17.937027   20.077228 C.2        1 MOL1         0.6021
       2    O1      19.500201   16.732557   20.210681 O.co2      1 MOL1        -0.6904
       3    O2      19.870347   18.477792   19.028332 O.co2      1 MOL1        -0.6904
       4    C2      19.329907   18.816890   21.296836 C.3        1 MOL1        -0.2102
       5    H1      18.582179   18.320179   21.927074 H          1 MOL1         0.0687
       6    H2      18.887403   19.759398   20.952035 H          1 MOL1         0.0687
       7    C3      20.613347   19.098883   22.114828 C.3        1 MOL1        -0.1974
       8    H3      21.053029   18.147773   22.446326 H          1 MOL1         0.0689
       9    H4      21.358248   19.587370   21.471146 H          1 MOL1         0.0689
      10    C4      20.324450   19.989793   23.339617 C.3        1 MOL1        -0.2987
      11    H5      21.245526   20.178488   23.906427 H          1 MOL1         0.0700
      12    H6      19.911440   20.959323   23.031413 H          1 MOL1         0.0700
      13    H7      19.603916   19.508662   24.014080 H          1 MOL1         0.0700
@<TRIPOS>BOND
    1     1     2    1
    2     1     3    2
    3     1     4    1
    4     4     5    1
    5     4     6    1
    6     4     7    1
    7     7     8    1
    8     7     9    1
    9     7    10    1
   10    10    11    1
   11    10    12    1
   12    10    13    1
@<TRIPOS>SUBSTRUCTURE
       1 MOL1            1 RESIDUE      1      MOL     
@<SCITEGIC>MOL_PROPERTY
VConf Rank
SciTegic.value.IntegerValue
882

@<SCITEGIC>MOL_PROPERTY
Conf_Id
SciTegic.value.IntegerValue
1

@<SCITEGIC>MOL_PROPERTY
Delta U+W
SciTegic.value.DoubleValue
-1.339

@<SCITEGIC>MOL_PROPERTY
U+W
SciTegic.value.DoubleValue
-59.672

@<SCITEGIC>MOL_PROPERTY
Grad RMS
SciTegic.value.DoubleValue
0.000000

@<SCITEGIC>MOL_PROPERTY
U
SciTegic.value.DoubleValue
7.389

@<SCITEGIC>MOL_PROPERTY
W
SciTegic.value.DoubleValue
-67.061

@<SCITEGIC>MOL_PROPERTY
W(PB)
SciTegic.value.DoubleValue
-68.767

@<SCITEGIC>MOL_PROPERTY
W(SA)
SciTegic.value.DoubleValue
1.707

@<SCITEGIC>MOL_PROPERTY
Valence
SciTegic.value.DoubleValue
5.822

@<SCITEGIC>MOL_PROPERTY
Coulomb
SciTegic.value.DoubleValue
1.255

@<SCITEGIC>MOL_PROPERTY
VdW
SciTegic.value.DoubleValue
0.312

@<SCITEGIC>MOL_PROPERTY
VdW6
SciTegic.value.DoubleValue
-3.061

@<SCITEGIC>MOL_PROPERTY
VdW12
SciTegic.value.DoubleValue
3.372

@<SCITEGIC>MOL_PROPERTY
Bond
SciTegic.value.DoubleValue
0.059

@<SCITEGIC>MOL_PROPERTY
Angle
SciTegic.value.DoubleValue
2.241

@<SCITEGIC>MOL_PROPERTY
Pdih
SciTegic.value.DoubleValue
3.522

@<SCITEGIC>MOL_PROPERTY
Idih
SciTegic.value.DoubleValue
0.000

@<SCITEGIC>MOL_PROPERTY
Tether
SciTegic.value.DoubleValue
0.000

@<TRIPOS>MOLECULE
guest-6_confgen4.mol2 : confsearch ligand conformer 883
          13          12           1
SMALL
USER_CHARGES
 
@<TRIPOS>ATOM
       1    C1      20.354441   18.730859   23.758268 C.2        1 MOL1         0.6021
       2    O1      20.987833   17.747286   24.086137 O.co2      1 MOL1        -0.6904
       3    O2      20.465029   19.810882   24.303452 O.co2      1 MOL1        -0.6904
       4    C2      19.341184   18.590319   22.625005 C.3        1 MOL1        -0.2102
       5    H1      18.647521   19.439080   22.666530 H          1 MOL1         0.0687
       6    H2      18.750275   17.688457   22.824651 H          1 MOL1         0.0687
       7    C3      19.976568   18.488614   21.214586 C.3        1 MOL1        -0.1974
       8    H3      20.699990   17.661429   21.195941 H          1 MOL1         0.0689
       9    H4      19.194211   18.240172   20.484472 H          1 MOL1         0.0689
      10    C4      20.670441   19.797415   20.783877 C.3        1 MOL1        -0.2987
      11    H5      21.489765   20.053598   21.468644 H          1 MOL1         0.0700
      12    H6      21.091636   19.698085   19.775004 H          1 MOL1         0.0700
      13    H7      19.959291   20.633815   20.774209 H          1 MOL1         0.0700
@<TRIPOS>BOND
    1     1     2    1
    2     1     3    2
    3     1     4    1
    4     4     5    1
    5     4     6    1
    6     4     7    1
    7     7     8    1
    8     7     9    1
    9     7    10    1
   10    10    11    1
   11    10    12    1
   12    10    13    1
@<TRIPOS>SUBSTRUCTURE
       1 MOL1            1 RESIDUE      1      MOL     
@<SCITEGIC>MOL_PROPERTY
VConf Rank
SciTegic.value.IntegerValue
883

@<SCITEGIC>MOL_PROPERTY
Conf_Id
SciTegic.value.IntegerValue
4

@<SCITEGIC>MOL_PROPERTY
Delta U+W
SciTegic.value.DoubleValue
0.281

@<SCITEGIC>MOL_PROPERTY
U+W
SciTegic.value.DoubleValue
-58.051

@<SCITEGIC>MOL_PROPERTY
Grad RMS
SciTegic.value.DoubleValue
0.000000

@<SCITEGIC>MOL_PROPERTY
U
SciTegic.value.DoubleValue
9.781

@<SCITEGIC>MOL_PROPERTY
W
SciTegic.value.DoubleValue
-67.832

@<SCITEGIC>MOL_PROPERTY
W(PB)
SciTegic.value.DoubleValue
-69.535

@<SCITEGIC>MOL_PROPERTY
W(SA)
SciTegic.value.DoubleValue
1.703

@<SCITEGIC>MOL_PROPERTY
Valence
SciTegic.value.DoubleValue
6.123

@<SCITEGIC>MOL_PROPERTY
Coulomb
SciTegic.value.DoubleValue
3.449

@<SCITEGIC>MOL_PROPERTY
VdW
SciTegic.value.DoubleValue
0.209

@<SCITEGIC>MOL_PROPERTY
VdW6
SciTegic.value.DoubleValue
-3.762

@<SCITEGIC>MOL_PROPERTY
VdW12
SciTegic.value.DoubleValue
3.972

@<SCITEGIC>MOL_PROPERTY
Bond
SciTegic.value.DoubleValue
0.078

@<SCITEGIC>MOL_PROPERTY
Angle
SciTegic.value.DoubleValue
2.428

@<SCITEGIC>MOL_PROPERTY
Pdih
SciTegic.value.DoubleValue
3.616

@<SCITEGIC>MOL_PROPERTY
Idih
SciTegic.value.DoubleValue
0.002

@<SCITEGIC>MOL_PROPERTY
Tether
SciTegic.value.DoubleValue
0.000

@<TRIPOS>MOLECULE
guest-6_confgen4.mol2 : confsearch ligand conformer 884
          13          12           1
SMALL
USER_CHARGES
 
@<TRIPOS>ATOM
       1    C1      19.495179   19.971518   23.344637 C.2        1 MOL1         0.6021
       2    O1      19.762935   19.441305   24.404395 O.co2      1 MOL1        -0.6904
       3    O2      19.523364   21.173717   23.171377 O.co2      1 MOL1        -0.6904
       4    C2      19.065843   19.085486   22.177872 C.3        1 MOL1        -0.2102
       5    H1      18.157493   19.525945   21.749757 H          1 MOL1         0.0687
       6    H2      18.785651   18.099915   22.569572 H          1 MOL1         0.0687
       7    C3      20.137724   18.933936   21.068169 C.3        1 MOL1        -0.1974
       8    H3      19.694732   18.412443   20.208707 H          1 MOL1         0.0689
       9    H4      20.441312   19.928333   20.711893 H          1 MOL1         0.0689
      10    C4      21.377656   18.151428   21.547938 C.3        1 MOL1        -0.2987
      11    H5      21.099363   17.145305   21.888027 H          1 MOL1         0.0700
      12    H6      22.106822   18.045276   20.734216 H          1 MOL1         0.0700
      13    H7      21.872936   18.668568   22.380458 H          1 MOL1         0.0700
@<TRIPOS>BOND
    1     1     2    1
    2     1     3    2
    3     1     4    1
    4     4     5    1
    5     4     6    1
    6     4     7    1
    7     7     8    1
    8     7     9    1
    9     7    10    1
   10    10    11    1
   11    10    12    1
   12    10    13    1
@<TRIPOS>SUBSTRUCTURE
       1 MOL1            1 RESIDUE      1      MOL     
@<SCITEGIC>MOL_PROPERTY
VConf Rank
SciTegic.value.IntegerValue
884

@<SCITEGIC>MOL_PROPERTY
Conf_Id
SciTegic.value.IntegerValue
36

@<SCITEGIC>MOL_PROPERTY
Delta U+W
SciTegic.value.DoubleValue
0.272

@<SCITEGIC>MOL_PROPERTY
U+W
SciTegic.value.DoubleValue
-58.060

@<SCITEGIC>MOL_PROPERTY
Grad RMS
SciTegic.value.DoubleValue
0.000000

@<SCITEGIC>MOL_PROPERTY
U
SciTegic.value.DoubleValue
9.781

@<SCITEGIC>MOL_PROPERTY
W
SciTegic.value.DoubleValue
-67.841

@<SCITEGIC>MOL_PROPERTY
W(PB)
SciTegic.value.DoubleValue
-69.537

@<SCITEGIC>MOL_PROPERTY
W(SA)
SciTegic.value.DoubleValue
1.696

@<SCITEGIC>MOL_PROPERTY
Valence
SciTegic.value.DoubleValue
6.123

@<SCITEGIC>MOL_PROPERTY
Coulomb
SciTegic.value.DoubleValue
3.449

@<SCITEGIC>MOL_PROPERTY
VdW
SciTegic.value.DoubleValue
0.209

@<SCITEGIC>MOL_PROPERTY
VdW6
SciTegic.value.DoubleValue
-3.762

@<SCITEGIC>MOL_PROPERTY
VdW12
SciTegic.value.DoubleValue
3.972

@<SCITEGIC>MOL_PROPERTY
Bond
SciTegic.value.DoubleValue
0.078

@<SCITEGIC>MOL_PROPERTY
Angle
SciTegic.value.DoubleValue
2.428

@<SCITEGIC>MOL_PROPERTY
Pdih
SciTegic.value.DoubleValue
3.616

@<SCITEGIC>MOL_PROPERTY
Idih
SciTegic.value.DoubleValue
0.002

@<SCITEGIC>MOL_PROPERTY
Tether
SciTegic.value.DoubleValue
0.000

@<TRIPOS>MOLECULE
guest-6_confgen4.mol2 : confsearch ligand conformer 885
          13          12           1
SMALL
USER_CHARGES
 
@<TRIPOS>ATOM
       1    C1      19.704042   16.924219   22.187131 C.2        1 MOL1         0.6021
       2    O1      20.804077   16.607149   22.595443 O.co2      1 MOL1        -0.6904
       3    O2      18.785654   16.136737   22.081153 O.co2      1 MOL1        -0.6904
       4    C2      19.432532   18.373730   21.779846 C.3        1 MOL1        -0.2102
       5    H1      18.590417   18.731661   22.384052 H          1 MOL1         0.0687
       6    H2      19.096300   18.363408   20.736209 H          1 MOL1         0.0687
       7    C3      20.633989   19.342891   21.932113 C.3        1 MOL1        -0.1974
       8    H3      20.971234   19.349550   22.978046 H          1 MOL1         0.0689
       9    H4      21.477774   18.980803   21.328231 H          1 MOL1         0.0689
      10    C4      20.267452   20.776758   21.499088 C.3        1 MOL1        -0.2987
      11    H5      19.445616   21.173585   22.109527 H          1 MOL1         0.0700
      12    H6      21.129131   21.447297   21.613740 H          1 MOL1         0.0700
      13    H7      19.956173   20.801855   20.446473 H          1 MOL1         0.0700
@<TRIPOS>BOND
    1     1     2    1
    2     1     3    2
    3     1     4    1
    4     4     5    1
    5     4     6    1
    6     4     7    1
    7     7     8    1
    8     7     9    1
    9     7    10    1
   10    10    11    1
   11    10    12    1
   12    10    13    1
@<TRIPOS>SUBSTRUCTURE
       1 MOL1            1 RESIDUE      1      MOL     
@<SCITEGIC>MOL_PROPERTY
VConf Rank
SciTegic.value.IntegerValue
885

@<SCITEGIC>MOL_PROPERTY
Conf_Id
SciTegic.value.IntegerValue
0

@<SCITEGIC>MOL_PROPERTY
Delta U+W
SciTegic.value.DoubleValue
0.000

@<SCITEGIC>MOL_PROPERTY
U+W
SciTegic.value.DoubleValue
-58.332

@<SCITEGIC>MOL_PROPERTY
Grad RMS
SciTegic.value.DoubleValue
0.000000

@<SCITEGIC>MOL_PROPERTY
U
SciTegic.value.DoubleValue
8.390

@<SCITEGIC>MOL_PROPERTY
W
SciTegic.value.DoubleValue
-66.722

@<SCITEGIC>MOL_PROPERTY
W(PB)
SciTegic.value.DoubleValue
-68.455

@<SCITEGIC>MOL_PROPERTY
W(SA)
SciTegic.value.DoubleValue
1.733

@<SCITEGIC>MOL_PROPERTY
Valence
SciTegic.value.DoubleValue
6.333

@<SCITEGIC>MOL_PROPERTY
Coulomb
SciTegic.value.DoubleValue
1.215

@<SCITEGIC>MOL_PROPERTY
VdW
SciTegic.value.DoubleValue
0.842

@<SCITEGIC>MOL_PROPERTY
VdW6
SciTegic.value.DoubleValue
-3.344

@<SCITEGIC>MOL_PROPERTY
VdW12
SciTegic.value.DoubleValue
4.186

@<SCITEGIC>MOL_PROPERTY
Bond
SciTegic.value.DoubleValue
0.091

@<SCITEGIC>MOL_PROPERTY
Angle
SciTegic.value.DoubleValue
2.713

@<SCITEGIC>MOL_PROPERTY
Pdih
SciTegic.value.DoubleValue
3.529

@<SCITEGIC>MOL_PROPERTY
Idih
SciTegic.value.DoubleValue
0.000

@<SCITEGIC>MOL_PROPERTY
Tether
SciTegic.value.DoubleValue
0.000

@<TRIPOS>MOLECULE
guest-6_confgen4.mol2 : confsearch ligand conformer 886
          13          12           1
SMALL
USER_CHARGES
 
@<TRIPOS>ATOM
       1    C1      20.359148   17.490908   23.219538 C.2        1 MOL1         0.6021
       2    O1      19.727007   17.540287   24.255550 O.co2      1 MOL1        -0.6904
       3    O2      21.425900   16.920292   23.110923 O.co2      1 MOL1        -0.6904
       4    C2      19.792051   18.199465   21.994039 C.3        1 MOL1        -0.2102
       5    H1      18.697636   18.149603   22.046831 H          1 MOL1         0.0687
       6    H2      20.098630   17.638302   21.102903 H          1 MOL1         0.0687
       7    C3      20.253264   19.672645   21.880583 C.3        1 MOL1        -0.1974
       8    H3      19.949562   20.222249   22.782537 H          1 MOL1         0.0689
       9    H4      21.350796   19.710839   21.838304 H          1 MOL1         0.0689
      10    C4      19.663408   20.360141   20.632901 C.3        1 MOL1        -0.2987
      11    H5      20.001392   21.402753   20.569739 H          1 MOL1         0.0700
      12    H6      19.977927   19.845645   19.715335 H          1 MOL1         0.0700
      13    H7      18.565955   20.361008   20.666839 H          1 MOL1         0.0700
@<TRIPOS>BOND
    1     1     2    1
    2     1     3    2
    3     1     4    1
    4     4     5    1
    5     4     6    1
    6     4     7    1
    7     7     8    1
    8     7     9    1
    9     7    10    1
   10    10    11    1
   11    10    12    1
   12    10    13    1
@<TRIPOS>SUBSTRUCTURE
       1 MOL1            1 RESIDUE      1      MOL     
@<SCITEGIC>MOL_PROPERTY
VConf Rank
SciTegic.value.IntegerValue
886

@<SCITEGIC>MOL_PROPERTY
Conf_Id
SciTegic.value.IntegerValue
1

@<SCITEGIC>MOL_PROPERTY
Delta U+W
SciTegic.value.DoubleValue
-1.339

@<SCITEGIC>MOL_PROPERTY
U+W
SciTegic.value.DoubleValue
-59.672

@<SCITEGIC>MOL_PROPERTY
Grad RMS
SciTegic.value.DoubleValue
0.000000

@<SCITEGIC>MOL_PROPERTY
U
SciTegic.value.DoubleValue
7.389

@<SCITEGIC>MOL_PROPERTY
W
SciTegic.value.DoubleValue
-67.061

@<SCITEGIC>MOL_PROPERTY
W(PB)
SciTegic.value.DoubleValue
-68.767

@<SCITEGIC>MOL_PROPERTY
W(SA)
SciTegic.value.DoubleValue
1.707

@<SCITEGIC>MOL_PROPERTY
Valence
SciTegic.value.DoubleValue
5.822

@<SCITEGIC>MOL_PROPERTY
Coulomb
SciTegic.value.DoubleValue
1.255

@<SCITEGIC>MOL_PROPERTY
VdW
SciTegic.value.DoubleValue
0.312

@<SCITEGIC>MOL_PROPERTY
VdW6
SciTegic.value.DoubleValue
-3.061

@<SCITEGIC>MOL_PROPERTY
VdW12
SciTegic.value.DoubleValue
3.372

@<SCITEGIC>MOL_PROPERTY
Bond
SciTegic.value.DoubleValue
0.059

@<SCITEGIC>MOL_PROPERTY
Angle
SciTegic.value.DoubleValue
2.241

@<SCITEGIC>MOL_PROPERTY
Pdih
SciTegic.value.DoubleValue
3.522

@<SCITEGIC>MOL_PROPERTY
Idih
SciTegic.value.DoubleValue
0.000

@<SCITEGIC>MOL_PROPERTY
Tether
SciTegic.value.DoubleValue
0.000

@<TRIPOS>MOLECULE
guest-6_confgen4.mol2 : confsearch ligand conformer 887
          13          12           1
SMALL
USER_CHARGES
 
@<TRIPOS>ATOM
       1    C1      19.322563   20.286306   22.906769 C.2        1 MOL1         0.6021
       2    O1      18.108007   20.292498   22.876561 O.co2      1 MOL1        -0.6904
       3    O2      19.968920   20.546582   23.901949 O.co2      1 MOL1        -0.6904
       4    C2      20.073579   19.969530   21.615894 C.3        1 MOL1        -0.2102
       5    H1      21.110622   20.311674   21.719652 H          1 MOL1         0.0687
       6    H2      19.620401   20.570026   20.818135 H          1 MOL1         0.0687
       7    C3      20.042944   18.472322   21.214934 C.3        1 MOL1        -0.1974
       8    H3      19.000604   18.129172   21.154136 H          1 MOL1         0.0689
       9    H4      20.471278   18.360157   20.209537 H          1 MOL1         0.0689
      10    C4      20.828224   17.581288   22.199476 C.3        1 MOL1        -0.2987
      11    H5      20.398728   17.634573   23.208694 H          1 MOL1         0.0700
      12    H6      20.803163   16.532441   21.876385 H          1 MOL1         0.0700
      13    H7      21.879152   17.893441   22.258656 H          1 MOL1         0.0700
@<TRIPOS>BOND
    1     1     2    1
    2     1     3    2
    3     1     4    1
    4     4     5    1
    5     4     6    1
    6     4     7    1
    7     7     8    1
    8     7     9    1
    9     7    10    1
   10    10    11    1
   11    10    12    1
   12    10    13    1
@<TRIPOS>SUBSTRUCTURE
       1 MOL1            1 RESIDUE      1      MOL     
@<SCITEGIC>MOL_PROPERTY
VConf Rank
SciTegic.value.IntegerValue
887

@<SCITEGIC>MOL_PROPERTY
Conf_Id
SciTegic.value.IntegerValue
4

@<SCITEGIC>MOL_PROPERTY
Delta U+W
SciTegic.value.DoubleValue
0.281

@<SCITEGIC>MOL_PROPERTY
U+W
SciTegic.value.DoubleValue
-58.051

@<SCITEGIC>MOL_PROPERTY
Grad RMS
SciTegic.value.DoubleValue
0.000000

@<SCITEGIC>MOL_PROPERTY
U
SciTegic.value.DoubleValue
9.781

@<SCITEGIC>MOL_PROPERTY
W
SciTegic.value.DoubleValue
-67.832

@<SCITEGIC>MOL_PROPERTY
W(PB)
SciTegic.value.DoubleValue
-69.535

@<SCITEGIC>MOL_PROPERTY
W(SA)
SciTegic.value.DoubleValue
1.703

@<SCITEGIC>MOL_PROPERTY
Valence
SciTegic.value.DoubleValue
6.123

@<SCITEGIC>MOL_PROPERTY
Coulomb
SciTegic.value.DoubleValue
3.449

@<SCITEGIC>MOL_PROPERTY
VdW
SciTegic.value.DoubleValue
0.209

@<SCITEGIC>MOL_PROPERTY
VdW6
SciTegic.value.DoubleValue
-3.762

@<SCITEGIC>MOL_PROPERTY
VdW12
SciTegic.value.DoubleValue
3.972

@<SCITEGIC>MOL_PROPERTY
Bond
SciTegic.value.DoubleValue
0.078

@<SCITEGIC>MOL_PROPERTY
Angle
SciTegic.value.DoubleValue
2.428

@<SCITEGIC>MOL_PROPERTY
Pdih
SciTegic.value.DoubleValue
3.616

@<SCITEGIC>MOL_PROPERTY
Idih
SciTegic.value.DoubleValue
0.002

@<SCITEGIC>MOL_PROPERTY
Tether
SciTegic.value.DoubleValue
0.000

@<TRIPOS>MOLECULE
guest-6_confgen4.mol2 : confsearch ligand conformer 888
          13          12           1
SMALL
USER_CHARGES
 
@<TRIPOS>ATOM
       1    C1      18.363015   19.316028   21.882002 C.2        1 MOL1         0.6021
       2    O1      18.172345   20.176640   21.046001 O.co2      1 MOL1        -0.6904
       3    O2      17.619522   18.370087   22.050855 O.co2      1 MOL1        -0.6904
       4    C2      19.580774   19.446731   22.793432 C.3        1 MOL1        -0.2102
       5    H1      19.237200   19.289386   23.822794 H          1 MOL1         0.0687
       6    H2      19.952498   20.477263   22.737649 H          1 MOL1         0.0687
       7    C3      20.723240   18.449000   22.473058 C.3        1 MOL1        -0.1974
       8    H3      21.485453   18.509271   23.261899 H          1 MOL1         0.0689
       9    H4      20.330823   17.422544   22.490955 H          1 MOL1         0.0689
      10    C4      21.386704   18.729436   21.108837 C.3        1 MOL1        -0.2987
      11    H5      21.805716   19.743748   21.077353 H          1 MOL1         0.0700
      12    H6      22.202518   18.019031   20.922106 H          1 MOL1         0.0700
      13    H7      20.661203   18.634009   20.290077 H          1 MOL1         0.0700
@<TRIPOS>BOND
    1     1     2    1
    2     1     3    2
    3     1     4    1
    4     4     5    1
    5     4     6    1
    6     4     7    1
    7     7     8    1
    8     7     9    1
    9     7    10    1
   10    10    11    1
   11    10    12    1
   12    10    13    1
@<TRIPOS>SUBSTRUCTURE
       1 MOL1            1 RESIDUE      1      MOL     
@<SCITEGIC>MOL_PROPERTY
VConf Rank
SciTegic.value.IntegerValue
888

@<SCITEGIC>MOL_PROPERTY
Conf_Id
SciTegic.value.IntegerValue
36

@<SCITEGIC>MOL_PROPERTY
Delta U+W
SciTegic.value.DoubleValue
0.272

@<SCITEGIC>MOL_PROPERTY
U+W
SciTegic.value.DoubleValue
-58.060

@<SCITEGIC>MOL_PROPERTY
Grad RMS
SciTegic.value.DoubleValue
0.000000

@<SCITEGIC>MOL_PROPERTY
U
SciTegic.value.DoubleValue
9.781

@<SCITEGIC>MOL_PROPERTY
W
SciTegic.value.DoubleValue
-67.841

@<SCITEGIC>MOL_PROPERTY
W(PB)
SciTegic.value.DoubleValue
-69.537

@<SCITEGIC>MOL_PROPERTY
W(SA)
SciTegic.value.DoubleValue
1.696

@<SCITEGIC>MOL_PROPERTY
Valence
SciTegic.value.DoubleValue
6.123

@<SCITEGIC>MOL_PROPERTY
Coulomb
SciTegic.value.DoubleValue
3.449

@<SCITEGIC>MOL_PROPERTY
VdW
SciTegic.value.DoubleValue
0.209

@<SCITEGIC>MOL_PROPERTY
VdW6
SciTegic.value.DoubleValue
-3.762

@<SCITEGIC>MOL_PROPERTY
VdW12
SciTegic.value.DoubleValue
3.972

@<SCITEGIC>MOL_PROPERTY
Bond
SciTegic.value.DoubleValue
0.078

@<SCITEGIC>MOL_PROPERTY
Angle
SciTegic.value.DoubleValue
2.428

@<SCITEGIC>MOL_PROPERTY
Pdih
SciTegic.value.DoubleValue
3.616

@<SCITEGIC>MOL_PROPERTY
Idih
SciTegic.value.DoubleValue
0.002

@<SCITEGIC>MOL_PROPERTY
Tether
SciTegic.value.DoubleValue
0.000

@<TRIPOS>MOLECULE
guest-6_confgen4.mol2 : confsearch ligand conformer 889
          13          12           1
SMALL
USER_CHARGES
 
@<TRIPOS>ATOM
       1    C1      20.306476   20.812104   22.909898 C.2        1 MOL1         0.6021
       2    O1      19.203835   21.309318   22.790356 O.co2      1 MOL1        -0.6904
       3    O2      21.209917   21.345879   23.521187 O.co2      1 MOL1        -0.6904
       4    C2      20.601144   19.452837   22.272523 C.3        1 MOL1        -0.2102
       5    H1      20.930168   18.779835   23.073242 H          1 MOL1         0.0687
       6    H2      21.453538   19.586097   21.595764 H          1 MOL1         0.0687
       7    C3      19.418250   18.809588   21.502490 C.3        1 MOL1        -0.1974
       8    H3      18.564146   18.679592   22.181726 H          1 MOL1         0.0689
       9    H4      19.088105   19.486883   20.702471 H          1 MOL1         0.0689
      10    C4      19.807511   17.446194   20.896300 C.3        1 MOL1        -0.2987
      11    H5      20.112167   16.740271   21.680125 H          1 MOL1         0.0700
      12    H6      18.958764   17.006994   20.355940 H          1 MOL1         0.0700
      13    H7      20.640373   17.554050   20.189030 H          1 MOL1         0.0700
@<TRIPOS>BOND
    1     1     2    1
    2     1     3    2
    3     1     4    1
    4     4     5    1
    5     4     6    1
    6     4     7    1
    7     7     8    1
    8     7     9    1
    9     7    10    1
   10    10    11    1
   11    10    12    1
   12    10    13    1
@<TRIPOS>SUBSTRUCTURE
       1 MOL1            1 RESIDUE      1      MOL     
@<SCITEGIC>MOL_PROPERTY
VConf Rank
SciTegic.value.IntegerValue
889

@<SCITEGIC>MOL_PROPERTY
Conf_Id
SciTegic.value.IntegerValue
0

@<SCITEGIC>MOL_PROPERTY
Delta U+W
SciTegic.value.DoubleValue
0.000

@<SCITEGIC>MOL_PROPERTY
U+W
SciTegic.value.DoubleValue
-58.332

@<SCITEGIC>MOL_PROPERTY
Grad RMS
SciTegic.value.DoubleValue
0.000000

@<SCITEGIC>MOL_PROPERTY
U
SciTegic.value.DoubleValue
8.390

@<SCITEGIC>MOL_PROPERTY
W
SciTegic.value.DoubleValue
-66.722

@<SCITEGIC>MOL_PROPERTY
W(PB)
SciTegic.value.DoubleValue
-68.455

@<SCITEGIC>MOL_PROPERTY
W(SA)
SciTegic.value.DoubleValue
1.733

@<SCITEGIC>MOL_PROPERTY
Valence
SciTegic.value.DoubleValue
6.333

@<SCITEGIC>MOL_PROPERTY
Coulomb
SciTegic.value.DoubleValue
1.215

@<SCITEGIC>MOL_PROPERTY
VdW
SciTegic.value.DoubleValue
0.842

@<SCITEGIC>MOL_PROPERTY
VdW6
SciTegic.value.DoubleValue
-3.344

@<SCITEGIC>MOL_PROPERTY
VdW12
SciTegic.value.DoubleValue
4.186

@<SCITEGIC>MOL_PROPERTY
Bond
SciTegic.value.DoubleValue
0.091

@<SCITEGIC>MOL_PROPERTY
Angle
SciTegic.value.DoubleValue
2.713

@<SCITEGIC>MOL_PROPERTY
Pdih
SciTegic.value.DoubleValue
3.529

@<SCITEGIC>MOL_PROPERTY
Idih
SciTegic.value.DoubleValue
0.000

@<SCITEGIC>MOL_PROPERTY
Tether
SciTegic.value.DoubleValue
0.000

@<TRIPOS>MOLECULE
guest-6_confgen4.mol2 : confsearch ligand conformer 890
          13          12           1
SMALL
USER_CHARGES
 
@<TRIPOS>ATOM
       1    C1      19.702141   20.604075   23.221230 C.2        1 MOL1         0.6021
       2    O1      19.991388   20.354023   24.374127 O.co2      1 MOL1        -0.6904
       3    O2      18.905742   21.463260   22.900435 O.co2      1 MOL1        -0.6904
       4    C2      20.360183   19.782342   22.117946 C.3        1 MOL1        -0.2102
       5    H1      21.368920   19.509361   22.451039 H          1 MOL1         0.0687
       6    H2      20.473648   20.424116   21.235750 H          1 MOL1         0.0687
       7    C3      19.557788   18.510401   21.751643 C.3        1 MOL1        -0.1974
       8    H3      19.441946   17.880331   22.644624 H          1 MOL1         0.0689
       9    H4      18.546566   18.795265   21.428990 H          1 MOL1         0.0689
      10    C4      20.248642   17.702546   20.634781 C.3        1 MOL1        -0.2987
      11    H5      19.665463   16.805438   20.389098 H          1 MOL1         0.0700
      12    H6      20.349013   18.302479   19.720690 H          1 MOL1         0.0700
      13    H7      21.251234   17.380501   20.945670 H          1 MOL1         0.0700
@<TRIPOS>BOND
    1     1     2    1
    2     1     3    2
    3     1     4    1
    4     4     5    1
    5     4     6    1
    6     4     7    1
    7     7     8    1
    8     7     9    1
    9     7    10    1
   10    10    11    1
   11    10    12    1
   12    10    13    1
@<TRIPOS>SUBSTRUCTURE
       1 MOL1            1 RESIDUE      1      MOL     
@<SCITEGIC>MOL_PROPERTY
VConf Rank
SciTegic.value.IntegerValue
890

@<SCITEGIC>MOL_PROPERTY
Conf_Id
SciTegic.value.IntegerValue
1

@<SCITEGIC>MOL_PROPERTY
Delta U+W
SciTegic.value.DoubleValue
-1.339

@<SCITEGIC>MOL_PROPERTY
U+W
SciTegic.value.DoubleValue
-59.672

@<SCITEGIC>MOL_PROPERTY
Grad RMS
SciTegic.value.DoubleValue
0.000000

@<SCITEGIC>MOL_PROPERTY
U
SciTegic.value.DoubleValue
7.389

@<SCITEGIC>MOL_PROPERTY
W
SciTegic.value.DoubleValue
-67.061

@<SCITEGIC>MOL_PROPERTY
W(PB)
SciTegic.value.DoubleValue
-68.767

@<SCITEGIC>MOL_PROPERTY
W(SA)
SciTegic.value.DoubleValue
1.707

@<SCITEGIC>MOL_PROPERTY
Valence
SciTegic.value.DoubleValue
5.822

@<SCITEGIC>MOL_PROPERTY
Coulomb
SciTegic.value.DoubleValue
1.255

@<SCITEGIC>MOL_PROPERTY
VdW
SciTegic.value.DoubleValue
0.312

@<SCITEGIC>MOL_PROPERTY
VdW6
SciTegic.value.DoubleValue
-3.061

@<SCITEGIC>MOL_PROPERTY
VdW12
SciTegic.value.DoubleValue
3.372

@<SCITEGIC>MOL_PROPERTY
Bond
SciTegic.value.DoubleValue
0.059

@<SCITEGIC>MOL_PROPERTY
Angle
SciTegic.value.DoubleValue
2.241

@<SCITEGIC>MOL_PROPERTY
Pdih
SciTegic.value.DoubleValue
3.522

@<SCITEGIC>MOL_PROPERTY
Idih
SciTegic.value.DoubleValue
0.000

@<SCITEGIC>MOL_PROPERTY
Tether
SciTegic.value.DoubleValue
0.000

@<TRIPOS>MOLECULE
guest-6_confgen4.mol2 : confsearch ligand conformer 891
          13          12           1
SMALL
USER_CHARGES
 
@<TRIPOS>ATOM
       1    C1      20.793739   17.432244   21.359597 C.2        1 MOL1         0.6021
       2    O1      20.475047   17.142758   20.223493 O.co2      1 MOL1        -0.6904
       3    O2      21.909350   17.256773   21.807398 O.co2      1 MOL1        -0.6904
       4    C2      19.724795   18.013641   22.281586 C.3        1 MOL1        -0.2102
       5    H1      20.066344   17.918263   23.319630 H          1 MOL1         0.0687
       6    H2      18.831357   17.385553   22.183291 H          1 MOL1         0.0687
       7    C3      19.355171   19.487544   21.974459 C.3        1 MOL1        -0.1974
       8    H3      19.054094   19.579397   20.921445 H          1 MOL1         0.0689
       9    H4      18.482902   19.773138   22.578161 H          1 MOL1         0.0689
      10    C4      20.514320   20.461152   22.271762 C.3        1 MOL1        -0.2987
      11    H5      21.391086   20.232047   21.651584 H          1 MOL1         0.0700
      12    H6      20.213546   21.496022   22.062777 H          1 MOL1         0.0700
      13    H7      20.816431   20.401476   23.325593 H          1 MOL1         0.0700
@<TRIPOS>BOND
    1     1     2    1
    2     1     3    2
    3     1     4    1
    4     4     5    1
    5     4     6    1
    6     4     7    1
    7     7     8    1
    8     7     9    1
    9     7    10    1
   10    10    11    1
   11    10    12    1
   12    10    13    1
@<TRIPOS>SUBSTRUCTURE
       1 MOL1            1 RESIDUE      1      MOL     
@<SCITEGIC>MOL_PROPERTY
VConf Rank
SciTegic.value.IntegerValue
891

@<SCITEGIC>MOL_PROPERTY
Conf_Id
SciTegic.value.IntegerValue
4

@<SCITEGIC>MOL_PROPERTY
Delta U+W
SciTegic.value.DoubleValue
0.281

@<SCITEGIC>MOL_PROPERTY
U+W
SciTegic.value.DoubleValue
-58.051

@<SCITEGIC>MOL_PROPERTY
Grad RMS
SciTegic.value.DoubleValue
0.000000

@<SCITEGIC>MOL_PROPERTY
U
SciTegic.value.DoubleValue
9.781

@<SCITEGIC>MOL_PROPERTY
W
SciTegic.value.DoubleValue
-67.832

@<SCITEGIC>MOL_PROPERTY
W(PB)
SciTegic.value.DoubleValue
-69.535

@<SCITEGIC>MOL_PROPERTY
W(SA)
SciTegic.value.DoubleValue
1.703

@<SCITEGIC>MOL_PROPERTY
Valence
SciTegic.value.DoubleValue
6.123

@<SCITEGIC>MOL_PROPERTY
Coulomb
SciTegic.value.DoubleValue
3.449

@<SCITEGIC>MOL_PROPERTY
VdW
SciTegic.value.DoubleValue
0.209

@<SCITEGIC>MOL_PROPERTY
VdW6
SciTegic.value.DoubleValue
-3.762

@<SCITEGIC>MOL_PROPERTY
VdW12
SciTegic.value.DoubleValue
3.972

@<SCITEGIC>MOL_PROPERTY
Bond
SciTegic.value.DoubleValue
0.078

@<SCITEGIC>MOL_PROPERTY
Angle
SciTegic.value.DoubleValue
2.428

@<SCITEGIC>MOL_PROPERTY
Pdih
SciTegic.value.DoubleValue
3.616

@<SCITEGIC>MOL_PROPERTY
Idih
SciTegic.value.DoubleValue
0.002

@<SCITEGIC>MOL_PROPERTY
Tether
SciTegic.value.DoubleValue
0.000

@<TRIPOS>MOLECULE
guest-6_confgen4.mol2 : confsearch ligand conformer 892
          13          12           1
SMALL
USER_CHARGES
 
@<TRIPOS>ATOM
       1    C1      18.921279   17.655139   22.236695 C.2        1 MOL1         0.6021
       2    O1      18.836906   17.392299   23.419785 O.co2      1 MOL1        -0.6904
       3    O2      17.969604   17.656085   21.481439 O.co2      1 MOL1        -0.6904
       4    C2      20.299758   17.965927   21.658829 C.3        1 MOL1        -0.2102
       5    H1      20.414925   17.367043   20.747533 H          1 MOL1         0.0687
       6    H2      21.063515   17.617934   22.365132 H          1 MOL1         0.0687
       7    C3      20.524715   19.462776   21.323903 C.3        1 MOL1        -0.1974
       8    H3      21.472548   19.571188   20.779172 H          1 MOL1         0.0689
       9    H4      19.730834   19.811868   20.648767 H          1 MOL1         0.0689
      10    C4      20.563919   20.350505   22.584985 C.3        1 MOL1        -0.2987
      11    H5      21.365827   20.032388   23.264056 H          1 MOL1         0.0700
      12    H6      20.743990   21.399075   22.314484 H          1 MOL1         0.0700
      13    H7      19.613191   20.300949   23.132237 H          1 MOL1         0.0700
@<TRIPOS>BOND
    1     1     2    1
    2     1     3    2
    3     1     4    1
    4     4     5    1
    5     4     6    1
    6     4     7    1
    7     7     8    1
    8     7     9    1
    9     7    10    1
   10    10    11    1
   11    10    12    1
   12    10    13    1
@<TRIPOS>SUBSTRUCTURE
       1 MOL1            1 RESIDUE      1      MOL     
@<SCITEGIC>MOL_PROPERTY
VConf Rank
SciTegic.value.IntegerValue
892

@<SCITEGIC>MOL_PROPERTY
Conf_Id
SciTegic.value.IntegerValue
36

@<SCITEGIC>MOL_PROPERTY
Delta U+W
SciTegic.value.DoubleValue
0.272

@<SCITEGIC>MOL_PROPERTY
U+W
SciTegic.value.DoubleValue
-58.060

@<SCITEGIC>MOL_PROPERTY
Grad RMS
SciTegic.value.DoubleValue
0.000000

@<SCITEGIC>MOL_PROPERTY
U
SciTegic.value.DoubleValue
9.781

@<SCITEGIC>MOL_PROPERTY
W
SciTegic.value.DoubleValue
-67.841

@<SCITEGIC>MOL_PROPERTY
W(PB)
SciTegic.value.DoubleValue
-69.537

@<SCITEGIC>MOL_PROPERTY
W(SA)
SciTegic.value.DoubleValue
1.696

@<SCITEGIC>MOL_PROPERTY
Valence
SciTegic.value.DoubleValue
6.123

@<SCITEGIC>MOL_PROPERTY
Coulomb
SciTegic.value.DoubleValue
3.449

@<SCITEGIC>MOL_PROPERTY
VdW
SciTegic.value.DoubleValue
0.209

@<SCITEGIC>MOL_PROPERTY
VdW6
SciTegic.value.DoubleValue
-3.762

@<SCITEGIC>MOL_PROPERTY
VdW12
SciTegic.value.DoubleValue
3.972

@<SCITEGIC>MOL_PROPERTY
Bond
SciTegic.value.DoubleValue
0.078

@<SCITEGIC>MOL_PROPERTY
Angle
SciTegic.value.DoubleValue
2.428

@<SCITEGIC>MOL_PROPERTY
Pdih
SciTegic.value.DoubleValue
3.616

@<SCITEGIC>MOL_PROPERTY
Idih
SciTegic.value.DoubleValue
0.002

@<SCITEGIC>MOL_PROPERTY
Tether
SciTegic.value.DoubleValue
0.000

@<TRIPOS>MOLECULE
guest-6_confgen4.mol2 : confsearch ligand conformer 893
          13          12           1
SMALL
USER_CHARGES
 
@<TRIPOS>ATOM
       1    C1      20.281561   19.342746   23.909776 C.2        1 MOL1         0.6021
       2    O1      19.127588   19.267968   24.284055 O.co2      1 MOL1        -0.6904
       3    O2      21.208475   19.560819   24.663481 O.co2      1 MOL1        -0.6904
       4    C2      20.614025   19.158697   22.427793 C.3        1 MOL1        -0.2102
       5    H1      21.330605   18.332114   22.352883 H          1 MOL1         0.0687
       6    H2      21.133896   20.064453   22.093611 H          1 MOL1         0.0687
       7    C3      19.399297   18.882441   21.503630 C.3        1 MOL1        -0.1974
       8    H3      18.878036   17.976040   21.841979 H          1 MOL1         0.0689
       9    H4      18.681040   19.710480   21.582444 H          1 MOL1         0.0689
      10    C4      19.829968   18.711288   20.032894 C.3        1 MOL1        -0.2987
      11    H5      20.525251   17.868711   19.922577 H          1 MOL1         0.0700
      12    H6      18.957927   18.516816   19.394943 H          1 MOL1         0.0700
      13    H7      20.326722   19.617070   19.660985 H          1 MOL1         0.0700
@<TRIPOS>BOND
    1     1     2    1
    2     1     3    2
    3     1     4    1
    4     4     5    1
    5     4     6    1
    6     4     7    1
    7     7     8    1
    8     7     9    1
    9     7    10    1
   10    10    11    1
   11    10    12    1
   12    10    13    1
@<TRIPOS>SUBSTRUCTURE
       1 MOL1            1 RESIDUE      1      MOL     
@<SCITEGIC>MOL_PROPERTY
VConf Rank
SciTegic.value.IntegerValue
893

@<SCITEGIC>MOL_PROPERTY
Conf_Id
SciTegic.value.IntegerValue
0

@<SCITEGIC>MOL_PROPERTY
Delta U+W
SciTegic.value.DoubleValue
0.000

@<SCITEGIC>MOL_PROPERTY
U+W
SciTegic.value.DoubleValue
-58.332

@<SCITEGIC>MOL_PROPERTY
Grad RMS
SciTegic.value.DoubleValue
0.000000

@<SCITEGIC>MOL_PROPERTY
U
SciTegic.value.DoubleValue
8.390

@<SCITEGIC>MOL_PROPERTY
W
SciTegic.value.DoubleValue
-66.722

@<SCITEGIC>MOL_PROPERTY
W(PB)
SciTegic.value.DoubleValue
-68.455

@<SCITEGIC>MOL_PROPERTY
W(SA)
SciTegic.value.DoubleValue
1.733

@<SCITEGIC>MOL_PROPERTY
Valence
SciTegic.value.DoubleValue
6.333

@<SCITEGIC>MOL_PROPERTY
Coulomb
SciTegic.value.DoubleValue
1.215

@<SCITEGIC>MOL_PROPERTY
VdW
SciTegic.value.DoubleValue
0.842

@<SCITEGIC>MOL_PROPERTY
VdW6
SciTegic.value.DoubleValue
-3.344

@<SCITEGIC>MOL_PROPERTY
VdW12
SciTegic.value.DoubleValue
4.186

@<SCITEGIC>MOL_PROPERTY
Bond
SciTegic.value.DoubleValue
0.091

@<SCITEGIC>MOL_PROPERTY
Angle
SciTegic.value.DoubleValue
2.713

@<SCITEGIC>MOL_PROPERTY
Pdih
SciTegic.value.DoubleValue
3.529

@<SCITEGIC>MOL_PROPERTY
Idih
SciTegic.value.DoubleValue
0.000

@<SCITEGIC>MOL_PROPERTY
Tether
SciTegic.value.DoubleValue
0.000

@<TRIPOS>MOLECULE
guest-6_confgen4.mol2 : confsearch ligand conformer 894
          13          12           1
SMALL
USER_CHARGES
 
@<TRIPOS>ATOM
       1    C1      19.122676   20.331864   23.259896 C.2        1 MOL1         0.6021
       2    O1      19.866910   21.151794   23.759085 O.co2      1 MOL1        -0.6904
       3    O2      18.108639   19.931984   23.795793 O.co2      1 MOL1        -0.6904
       4    C2      19.491115   19.759715   21.895199 C.3        1 MOL1        -0.2102
       5    H1      20.012120   20.540074   21.327208 H          1 MOL1         0.0687
       6    H2      18.562139   19.534165   21.357473 H          1 MOL1         0.0687
       7    C3      20.373071   18.491247   21.990002 C.3        1 MOL1        -0.1974
       8    H3      21.295695   18.726557   22.538833 H          1 MOL1         0.0689
       9    H4      19.845394   17.720429   22.568985 H          1 MOL1         0.0689
      10    C4      20.727831   17.938088   20.595208 C.3        1 MOL1        -0.2987
      11    H5      21.352819   17.039784   20.682954 H          1 MOL1         0.0700
      12    H6      19.821406   17.667303   20.037870 H          1 MOL1         0.0700
      13    H7      21.282860   18.681134   20.007515 H          1 MOL1         0.0700
@<TRIPOS>BOND
    1     1     2    1
    2     1     3    2
    3     1     4    1
    4     4     5    1
    5     4     6    1
    6     4     7    1
    7     7     8    1
    8     7     9    1
    9     7    10    1
   10    10    11    1
   11    10    12    1
   12    10    13    1
@<TRIPOS>SUBSTRUCTURE
       1 MOL1            1 RESIDUE      1      MOL     
@<SCITEGIC>MOL_PROPERTY
VConf Rank
SciTegic.value.IntegerValue
894

@<SCITEGIC>MOL_PROPERTY
Conf_Id
SciTegic.value.IntegerValue
1

@<SCITEGIC>MOL_PROPERTY
Delta U+W
SciTegic.value.DoubleValue
-1.339

@<SCITEGIC>MOL_PROPERTY
U+W
SciTegic.value.DoubleValue
-59.672

@<SCITEGIC>MOL_PROPERTY
Grad RMS
SciTegic.value.DoubleValue
0.000000

@<SCITEGIC>MOL_PROPERTY
U
SciTegic.value.DoubleValue
7.389

@<SCITEGIC>MOL_PROPERTY
W
SciTegic.value.DoubleValue
-67.061

@<SCITEGIC>MOL_PROPERTY
W(PB)
SciTegic.value.DoubleValue
-68.767

@<SCITEGIC>MOL_PROPERTY
W(SA)
SciTegic.value.DoubleValue
1.707

@<SCITEGIC>MOL_PROPERTY
Valence
SciTegic.value.DoubleValue
5.822

@<SCITEGIC>MOL_PROPERTY
Coulomb
SciTegic.value.DoubleValue
1.255

@<SCITEGIC>MOL_PROPERTY
VdW
SciTegic.value.DoubleValue
0.312

@<SCITEGIC>MOL_PROPERTY
VdW6
SciTegic.value.DoubleValue
-3.061

@<SCITEGIC>MOL_PROPERTY
VdW12
SciTegic.value.DoubleValue
3.372

@<SCITEGIC>MOL_PROPERTY
Bond
SciTegic.value.DoubleValue
0.059

@<SCITEGIC>MOL_PROPERTY
Angle
SciTegic.value.DoubleValue
2.241

@<SCITEGIC>MOL_PROPERTY
Pdih
SciTegic.value.DoubleValue
3.522

@<SCITEGIC>MOL_PROPERTY
Idih
SciTegic.value.DoubleValue
0.000

@<SCITEGIC>MOL_PROPERTY
Tether
SciTegic.value.DoubleValue
0.000

@<TRIPOS>MOLECULE
guest-6_confgen4.mol2 : confsearch ligand conformer 895
          13          12           1
SMALL
USER_CHARGES
 
@<TRIPOS>ATOM
       1    C1      21.749799   19.033771   21.243852 C.2        1 MOL1         0.6021
       2    O1      22.023276   20.060716   20.655045 O.co2      1 MOL1        -0.6904
       3    O2      22.543647   18.425867   21.933898 O.co2      1 MOL1        -0.6904
       4    C2      20.344787   18.460256   21.077263 C.3        1 MOL1        -0.2102
       5    H1      20.355336   17.408484   21.388632 H          1 MOL1         0.0687
       6    H2      20.112164   18.470895   20.005741 H          1 MOL1         0.0687
       7    C3      19.247226   19.235058   21.850814 C.3        1 MOL1        -0.1974
       8    H3      19.272663   20.295187   21.562024 H          1 MOL1         0.0689
       9    H4      18.260737   18.851414   21.556653 H          1 MOL1         0.0689
      10    C4      19.401675   19.107903   23.380489 C.3        1 MOL1        -0.2987
      11    H5      20.361052   19.523499   23.716204 H          1 MOL1         0.0700
      12    H6      18.599067   19.650467   23.896765 H          1 MOL1         0.0700
      13    H7      19.356755   18.056492   23.693395 H          1 MOL1         0.0700
@<TRIPOS>BOND
    1     1     2    1
    2     1     3    2
    3     1     4    1
    4     4     5    1
    5     4     6    1
    6     4     7    1
    7     7     8    1
    8     7     9    1
    9     7    10    1
   10    10    11    1
   11    10    12    1
   12    10    13    1
@<TRIPOS>SUBSTRUCTURE
       1 MOL1            1 RESIDUE      1      MOL     
@<SCITEGIC>MOL_PROPERTY
VConf Rank
SciTegic.value.IntegerValue
895

@<SCITEGIC>MOL_PROPERTY
Conf_Id
SciTegic.value.IntegerValue
4

@<SCITEGIC>MOL_PROPERTY
Delta U+W
SciTegic.value.DoubleValue
0.281

@<SCITEGIC>MOL_PROPERTY
U+W
SciTegic.value.DoubleValue
-58.051

@<SCITEGIC>MOL_PROPERTY
Grad RMS
SciTegic.value.DoubleValue
0.000000

@<SCITEGIC>MOL_PROPERTY
U
SciTegic.value.DoubleValue
9.781

@<SCITEGIC>MOL_PROPERTY
W
SciTegic.value.DoubleValue
-67.832

@<SCITEGIC>MOL_PROPERTY
W(PB)
SciTegic.value.DoubleValue
-69.535

@<SCITEGIC>MOL_PROPERTY
W(SA)
SciTegic.value.DoubleValue
1.703

@<SCITEGIC>MOL_PROPERTY
Valence
SciTegic.value.DoubleValue
6.123

@<SCITEGIC>MOL_PROPERTY
Coulomb
SciTegic.value.DoubleValue
3.449

@<SCITEGIC>MOL_PROPERTY
VdW
SciTegic.value.DoubleValue
0.209

@<SCITEGIC>MOL_PROPERTY
VdW6
SciTegic.value.DoubleValue
-3.762

@<SCITEGIC>MOL_PROPERTY
VdW12
SciTegic.value.DoubleValue
3.972

@<SCITEGIC>MOL_PROPERTY
Bond
SciTegic.value.DoubleValue
0.078

@<SCITEGIC>MOL_PROPERTY
Angle
SciTegic.value.DoubleValue
2.428

@<SCITEGIC>MOL_PROPERTY
Pdih
SciTegic.value.DoubleValue
3.616

@<SCITEGIC>MOL_PROPERTY
Idih
SciTegic.value.DoubleValue
0.002

@<SCITEGIC>MOL_PROPERTY
Tether
SciTegic.value.DoubleValue
0.000

@<TRIPOS>MOLECULE
guest-6_confgen4.mol2 : confsearch ligand conformer 896
          13          12           1
SMALL
USER_CHARGES
 
@<TRIPOS>ATOM
       1    C1      21.598130   19.691218   22.699482 C.2        1 MOL1         0.6021
       2    O1      22.287633   20.151351   21.811356 O.co2      1 MOL1        -0.6904
       3    O2      21.470676   20.215430   23.788084 O.co2      1 MOL1        -0.6904
       4    C2      20.881647   18.366475   22.449613 C.3        1 MOL1        -0.2102
       5    H1      21.076730   17.721014   23.314315 H          1 MOL1         0.0687
       6    H2      21.338916   17.878129   21.580298 H          1 MOL1         0.0687
       7    C3      19.351296   18.501934   22.242217 C.3        1 MOL1        -0.1974
       8    H3      18.900875   17.500158   22.221292 H          1 MOL1         0.0689
       9    H4      18.909276   19.029009   23.099382 H          1 MOL1         0.0689
      10    C4      18.995736   19.241657   20.935958 C.3        1 MOL1        -0.2987
      11    H5      19.409550   18.718773   20.063753 H          1 MOL1         0.0700
      12    H6      17.906922   19.302901   20.810147 H          1 MOL1         0.0700
      13    H7      19.393623   20.265125   20.941122 H          1 MOL1         0.0700
@<TRIPOS>BOND
    1     1     2    1
    2     1     3    2
    3     1     4    1
    4     4     5    1
    5     4     6    1
    6     4     7    1
    7     7     8    1
    8     7     9    1
    9     7    10    1
   10    10    11    1
   11    10    12    1
   12    10    13    1
@<TRIPOS>SUBSTRUCTURE
       1 MOL1            1 RESIDUE      1      MOL     
@<SCITEGIC>MOL_PROPERTY
VConf Rank
SciTegic.value.IntegerValue
896

@<SCITEGIC>MOL_PROPERTY
Conf_Id
SciTegic.value.IntegerValue
36

@<SCITEGIC>MOL_PROPERTY
Delta U+W
SciTegic.value.DoubleValue
0.272

@<SCITEGIC>MOL_PROPERTY
U+W
SciTegic.value.DoubleValue
-58.060

@<SCITEGIC>MOL_PROPERTY
Grad RMS
SciTegic.value.DoubleValue
0.000000

@<SCITEGIC>MOL_PROPERTY
U
SciTegic.value.DoubleValue
9.781

@<SCITEGIC>MOL_PROPERTY
W
SciTegic.value.DoubleValue
-67.841

@<SCITEGIC>MOL_PROPERTY
W(PB)
SciTegic.value.DoubleValue
-69.537

@<SCITEGIC>MOL_PROPERTY
W(SA)
SciTegic.value.DoubleValue
1.696

@<SCITEGIC>MOL_PROPERTY
Valence
SciTegic.value.DoubleValue
6.123

@<SCITEGIC>MOL_PROPERTY
Coulomb
SciTegic.value.DoubleValue
3.449

@<SCITEGIC>MOL_PROPERTY
VdW
SciTegic.value.DoubleValue
0.209

@<SCITEGIC>MOL_PROPERTY
VdW6
SciTegic.value.DoubleValue
-3.762

@<SCITEGIC>MOL_PROPERTY
VdW12
SciTegic.value.DoubleValue
3.972

@<SCITEGIC>MOL_PROPERTY
Bond
SciTegic.value.DoubleValue
0.078

@<SCITEGIC>MOL_PROPERTY
Angle
SciTegic.value.DoubleValue
2.428

@<SCITEGIC>MOL_PROPERTY
Pdih
SciTegic.value.DoubleValue
3.616

@<SCITEGIC>MOL_PROPERTY
Idih
SciTegic.value.DoubleValue
0.002

@<SCITEGIC>MOL_PROPERTY
Tether
SciTegic.value.DoubleValue
0.000

@<TRIPOS>MOLECULE
guest-6_confgen4.mol2 : confsearch ligand conformer 897
          13          12           1
SMALL
USER_CHARGES
 
@<TRIPOS>ATOM
       1    C1      19.490705   20.977558   21.223475 C.2        1 MOL1         0.6021
       2    O1      20.593228   21.438657   21.001752 O.co2      1 MOL1        -0.6904
       3    O2      18.467026   21.616665   21.087756 O.co2      1 MOL1        -0.6904
       4    C2      19.353022   19.529175   21.696671 C.3        1 MOL1        -0.2102
       5    H1      18.706447   19.010061   20.979176 H          1 MOL1         0.0687
       6    H2      18.819312   19.546626   22.654370 H          1 MOL1         0.0687
       7    C3      20.686234   18.752490   21.855613 C.3        1 MOL1        -0.1974
       8    H3      21.220858   18.738678   20.895540 H          1 MOL1         0.0689
       9    H4      21.333901   19.275947   22.572743 H          1 MOL1         0.0689
      10    C4      20.449072   17.306164   22.334915 C.3        1 MOL1        -0.2987
      11    H5      19.828929   16.751507   21.618466 H          1 MOL1         0.0700
      12    H6      21.402831   16.773014   22.441456 H          1 MOL1         0.0700
      13    H7      19.942828   17.293103   23.309117 H          1 MOL1         0.0700
@<TRIPOS>BOND
    1     1     2    1
    2     1     3    2
    3     1     4    1
    4     4     5    1
    5     4     6    1
    6     4     7    1
    7     7     8    1
    8     7     9    1
    9     7    10    1
   10    10    11    1
   11    10    12    1
   12    10    13    1
@<TRIPOS>SUBSTRUCTURE
       1 MOL1            1 RESIDUE      1      MOL     
@<SCITEGIC>MOL_PROPERTY
VConf Rank
SciTegic.value.IntegerValue
897

@<SCITEGIC>MOL_PROPERTY
Conf_Id
SciTegic.value.IntegerValue
0

@<SCITEGIC>MOL_PROPERTY
Delta U+W
SciTegic.value.DoubleValue
0.000

@<SCITEGIC>MOL_PROPERTY
U+W
SciTegic.value.DoubleValue
-58.332

@<SCITEGIC>MOL_PROPERTY
Grad RMS
SciTegic.value.DoubleValue
0.000000

@<SCITEGIC>MOL_PROPERTY
U
SciTegic.value.DoubleValue
8.390

@<SCITEGIC>MOL_PROPERTY
W
SciTegic.value.DoubleValue
-66.722

@<SCITEGIC>MOL_PROPERTY
W(PB)
SciTegic.value.DoubleValue
-68.455

@<SCITEGIC>MOL_PROPERTY
W(SA)
SciTegic.value.DoubleValue
1.733

@<SCITEGIC>MOL_PROPERTY
Valence
SciTegic.value.DoubleValue
6.333

@<SCITEGIC>MOL_PROPERTY
Coulomb
SciTegic.value.DoubleValue
1.215

@<SCITEGIC>MOL_PROPERTY
VdW
SciTegic.value.DoubleValue
0.842

@<SCITEGIC>MOL_PROPERTY
VdW6
SciTegic.value.DoubleValue
-3.344

@<SCITEGIC>MOL_PROPERTY
VdW12
SciTegic.value.DoubleValue
4.186

@<SCITEGIC>MOL_PROPERTY
Bond
SciTegic.value.DoubleValue
0.091

@<SCITEGIC>MOL_PROPERTY
Angle
SciTegic.value.DoubleValue
2.713

@<SCITEGIC>MOL_PROPERTY
Pdih
SciTegic.value.DoubleValue
3.529

@<SCITEGIC>MOL_PROPERTY
Idih
SciTegic.value.DoubleValue
0.000

@<SCITEGIC>MOL_PROPERTY
Tether
SciTegic.value.DoubleValue
0.000

@<TRIPOS>MOLECULE
guest-6_confgen4.mol2 : confsearch ligand conformer 898
          13          12           1
SMALL
USER_CHARGES
 
@<TRIPOS>ATOM
       1    C1      18.797908   17.301608   21.973616 C.2        1 MOL1         0.6021
       2    O1      17.964213   17.153571   21.102755 O.co2      1 MOL1        -0.6904
       3    O2      18.711030   16.802447   23.077542 O.co2      1 MOL1        -0.6904
       4    C2      20.009612   18.176637   21.670963 C.3        1 MOL1        -0.2102
       5    H1      20.248543   18.072250   20.605583 H          1 MOL1         0.0687
       6    H2      20.864418   17.782676   22.234097 H          1 MOL1         0.0687
       7    C3      19.781589   19.666773   22.022173 C.3        1 MOL1        -0.1974
       8    H3      18.917418   20.047690   21.460095 H          1 MOL1         0.0689
       9    H4      19.533540   19.758069   23.088925 H          1 MOL1         0.0689
      10    C4      21.023448   20.523712   21.704789 C.3        1 MOL1        -0.2987
      11    H5      20.842727   21.576008   21.960277 H          1 MOL1         0.0700
      12    H6      21.894555   20.180414   22.278265 H          1 MOL1         0.0700
      13    H7      21.273674   20.472282   20.636942 H          1 MOL1         0.0700
@<TRIPOS>BOND
    1     1     2    1
    2     1     3    2
    3     1     4    1
    4     4     5    1
    5     4     6    1
    6     4     7    1
    7     7     8    1
    8     7     9    1
    9     7    10    1
   10    10    11    1
   11    10    12    1
   12    10    13    1
@<TRIPOS>SUBSTRUCTURE
       1 MOL1            1 RESIDUE      1      MOL     
@<SCITEGIC>MOL_PROPERTY
VConf Rank
SciTegic.value.IntegerValue
898

@<SCITEGIC>MOL_PROPERTY
Conf_Id
SciTegic.value.IntegerValue
1

@<SCITEGIC>MOL_PROPERTY
Delta U+W
SciTegic.value.DoubleValue
-1.339

@<SCITEGIC>MOL_PROPERTY
U+W
SciTegic.value.DoubleValue
-59.672

@<SCITEGIC>MOL_PROPERTY
Grad RMS
SciTegic.value.DoubleValue
0.000000

@<SCITEGIC>MOL_PROPERTY
U
SciTegic.value.DoubleValue
7.389

@<SCITEGIC>MOL_PROPERTY
W
SciTegic.value.DoubleValue
-67.061

@<SCITEGIC>MOL_PROPERTY
W(PB)
SciTegic.value.DoubleValue
-68.767

@<SCITEGIC>MOL_PROPERTY
W(SA)
SciTegic.value.DoubleValue
1.707

@<SCITEGIC>MOL_PROPERTY
Valence
SciTegic.value.DoubleValue
5.822

@<SCITEGIC>MOL_PROPERTY
Coulomb
SciTegic.value.DoubleValue
1.255

@<SCITEGIC>MOL_PROPERTY
VdW
SciTegic.value.DoubleValue
0.312

@<SCITEGIC>MOL_PROPERTY
VdW6
SciTegic.value.DoubleValue
-3.061

@<SCITEGIC>MOL_PROPERTY
VdW12
SciTegic.value.DoubleValue
3.372

@<SCITEGIC>MOL_PROPERTY
Bond
SciTegic.value.DoubleValue
0.059

@<SCITEGIC>MOL_PROPERTY
Angle
SciTegic.value.DoubleValue
2.241

@<SCITEGIC>MOL_PROPERTY
Pdih
SciTegic.value.DoubleValue
3.522

@<SCITEGIC>MOL_PROPERTY
Idih
SciTegic.value.DoubleValue
0.000

@<SCITEGIC>MOL_PROPERTY
Tether
SciTegic.value.DoubleValue
0.000

@<TRIPOS>MOLECULE
guest-6_confgen4.mol2 : confsearch ligand conformer 899
          13          12           1
SMALL
USER_CHARGES
 
@<TRIPOS>ATOM
       1    C1      19.122362   20.449217   22.097287 C.2        1 MOL1         0.6021
       2    O1      17.947108   20.317509   21.818845 O.co2      1 MOL1        -0.6904
       3    O2      19.520652   21.149875   23.006324 O.co2      1 MOL1        -0.6904
       4    C2      20.152501   19.723341   21.235518 C.3        1 MOL1        -0.2102
       5    H1      21.134685   20.183482   21.399443 H          1 MOL1         0.0687
       6    H2      19.888480   19.905708   20.186985 H          1 MOL1         0.0687
       7    C3      20.229380   18.195977   21.489660 C.3        1 MOL1        -0.1974
       8    H3      19.232197   17.751501   21.363209 H          1 MOL1         0.0689
       9    H4      20.877966   17.737087   20.730957 H          1 MOL1         0.0689
      10    C4      20.776654   17.857593   22.891771 C.3        1 MOL1        -0.2987
      11    H5      20.126640   18.264233   23.677872 H          1 MOL1         0.0700
      12    H6      20.836687   16.770422   23.031594 H          1 MOL1         0.0700
      13    H7      21.782871   18.274064   23.031310 H          1 MOL1         0.0700
@<TRIPOS>BOND
    1     1     2    1
    2     1     3    2
    3     1     4    1
    4     4     5    1
    5     4     6    1
    6     4     7    1
    7     7     8    1
    8     7     9    1
    9     7    10    1
   10    10    11    1
   11    10    12    1
   12    10    13    1
@<TRIPOS>SUBSTRUCTURE
       1 MOL1            1 RESIDUE      1      MOL     
@<SCITEGIC>MOL_PROPERTY
VConf Rank
SciTegic.value.IntegerValue
899

@<SCITEGIC>MOL_PROPERTY
Conf_Id
SciTegic.value.IntegerValue
4

@<SCITEGIC>MOL_PROPERTY
Delta U+W
SciTegic.value.DoubleValue
0.281

@<SCITEGIC>MOL_PROPERTY
U+W
SciTegic.value.DoubleValue
-58.051

@<SCITEGIC>MOL_PROPERTY
Grad RMS
SciTegic.value.DoubleValue
0.000000

@<SCITEGIC>MOL_PROPERTY
U
SciTegic.value.DoubleValue
9.781

@<SCITEGIC>MOL_PROPERTY
W
SciTegic.value.DoubleValue
-67.832

@<SCITEGIC>MOL_PROPERTY
W(PB)
SciTegic.value.DoubleValue
-69.535

@<SCITEGIC>MOL_PROPERTY
W(SA)
SciTegic.value.DoubleValue
1.703

@<SCITEGIC>MOL_PROPERTY
Valence
SciTegic.value.DoubleValue
6.123

@<SCITEGIC>MOL_PROPERTY
Coulomb
SciTegic.value.DoubleValue
3.449

@<SCITEGIC>MOL_PROPERTY
VdW
SciTegic.value.DoubleValue
0.209

@<SCITEGIC>MOL_PROPERTY
VdW6
SciTegic.value.DoubleValue
-3.762

@<SCITEGIC>MOL_PROPERTY
VdW12
SciTegic.value.DoubleValue
3.972

@<SCITEGIC>MOL_PROPERTY
Bond
SciTegic.value.DoubleValue
0.078

@<SCITEGIC>MOL_PROPERTY
Angle
SciTegic.value.DoubleValue
2.428

@<SCITEGIC>MOL_PROPERTY
Pdih
SciTegic.value.DoubleValue
3.616

@<SCITEGIC>MOL_PROPERTY
Idih
SciTegic.value.DoubleValue
0.002

@<SCITEGIC>MOL_PROPERTY
Tether
SciTegic.value.DoubleValue
0.000

@<TRIPOS>MOLECULE
guest-6_confgen4.mol2 : confsearch ligand conformer 900
          13          12           1
SMALL
USER_CHARGES
 
@<TRIPOS>ATOM
       1    C1      19.576916   18.213649   20.463674 C.2        1 MOL1         0.6021
       2    O1      20.398185   18.425655   19.593918 O.co2      1 MOL1        -0.6904
       3    O2      18.968657   17.167273   20.569573 O.co2      1 MOL1        -0.6904
       4    C2      19.264893   19.331731   21.455269 C.3        1 MOL1        -0.2102
       5    H1      18.173591   19.419784   21.516053 H          1 MOL1         0.0687
       6    H2      19.636713   20.278855   21.045400 H          1 MOL1         0.0687
       7    C3      19.843338   19.100655   22.874896 C.3        1 MOL1        -0.1974
       8    H3      19.447682   19.868159   23.554061 H          1 MOL1         0.0689
       9    H4      19.498057   18.130618   23.259253 H          1 MOL1         0.0689
      10    C4      21.384980   19.152099   22.899816 C.3        1 MOL1        -0.2987
      11    H5      21.751108   20.122619   22.540047 H          1 MOL1         0.0700
      12    H6      21.760503   19.004718   23.920775 H          1 MOL1         0.0700
      13    H7      21.816386   18.367361   22.264284 H          1 MOL1         0.0700
@<TRIPOS>BOND
    1     1     2    1
    2     1     3    2
    3     1     4    1
    4     4     5    1
    5     4     6    1
    6     4     7    1
    7     7     8    1
    8     7     9    1
    9     7    10    1
   10    10    11    1
   11    10    12    1
   12    10    13    1
@<TRIPOS>SUBSTRUCTURE
       1 MOL1            1 RESIDUE      1      MOL     
@<SCITEGIC>MOL_PROPERTY
VConf Rank
SciTegic.value.IntegerValue
900

@<SCITEGIC>MOL_PROPERTY
Conf_Id
SciTegic.value.IntegerValue
36

@<SCITEGIC>MOL_PROPERTY
Delta U+W
SciTegic.value.DoubleValue
0.272

@<SCITEGIC>MOL_PROPERTY
U+W
SciTegic.value.DoubleValue
-58.060

@<SCITEGIC>MOL_PROPERTY
Grad RMS
SciTegic.value.DoubleValue
0.000000

@<SCITEGIC>MOL_PROPERTY
U
SciTegic.value.DoubleValue
9.781

@<SCITEGIC>MOL_PROPERTY
W
SciTegic.value.DoubleValue
-67.841

@<SCITEGIC>MOL_PROPERTY
W(PB)
SciTegic.value.DoubleValue
-69.537

@<SCITEGIC>MOL_PROPERTY
W(SA)
SciTegic.value.DoubleValue
1.696

@<SCITEGIC>MOL_PROPERTY
Valence
SciTegic.value.DoubleValue
6.123

@<SCITEGIC>MOL_PROPERTY
Coulomb
SciTegic.value.DoubleValue
3.449

@<SCITEGIC>MOL_PROPERTY
VdW
SciTegic.value.DoubleValue
0.209

@<SCITEGIC>MOL_PROPERTY
VdW6
SciTegic.value.DoubleValue
-3.762

@<SCITEGIC>MOL_PROPERTY
VdW12
SciTegic.value.DoubleValue
3.972

@<SCITEGIC>MOL_PROPERTY
Bond
SciTegic.value.DoubleValue
0.078

@<SCITEGIC>MOL_PROPERTY
Angle
SciTegic.value.DoubleValue
2.428

@<SCITEGIC>MOL_PROPERTY
Pdih
SciTegic.value.DoubleValue
3.616

@<SCITEGIC>MOL_PROPERTY
Idih
SciTegic.value.DoubleValue
0.002

@<SCITEGIC>MOL_PROPERTY
Tether
SciTegic.value.DoubleValue
0.000

@<TRIPOS>MOLECULE
guest-6_confgen4.mol2 : confsearch ligand conformer 901
          13          12           1
SMALL
USER_CHARGES
 
@<TRIPOS>ATOM
       1    C1      20.082448   21.111570   22.118249 C.2        1 MOL1         0.6021
       2    O1      19.138881   21.451757   21.431749 O.co2      1 MOL1        -0.6904
       3    O2      20.766785   21.899622   22.739097 O.co2      1 MOL1        -0.6904
       4    C2      20.450413   19.630414   22.225308 C.3        1 MOL1        -0.2102
       5    H1      20.420901   19.361378   23.287893 H          1 MOL1         0.0687
       6    H2      21.491670   19.526896   21.897579 H          1 MOL1         0.0687
       7    C3      19.549151   18.661659   21.415866 C.3        1 MOL1        -0.1974
       8    H3      18.505749   18.769060   21.743788 H          1 MOL1         0.0689
       9    H4      19.577773   18.934828   20.351763 H          1 MOL1         0.0689
      10    C4      19.994458   17.194955   21.584136 C.3        1 MOL1        -0.2987
      11    H5      19.944907   16.887607   22.637039 H          1 MOL1         0.0700
      12    H6      19.345690   16.525167   21.004703 H          1 MOL1         0.0700
      13    H7      21.025565   17.054730   21.233881 H          1 MOL1         0.0700
@<TRIPOS>BOND
    1     1     2    1
    2     1     3    2
    3     1     4    1
    4     4     5    1
    5     4     6    1
    6     4     7    1
    7     7     8    1
    8     7     9    1
    9     7    10    1
   10    10    11    1
   11    10    12    1
   12    10    13    1
@<TRIPOS>SUBSTRUCTURE
       1 MOL1            1 RESIDUE      1      MOL     
@<SCITEGIC>MOL_PROPERTY
VConf Rank
SciTegic.value.IntegerValue
901

@<SCITEGIC>MOL_PROPERTY
Conf_Id
SciTegic.value.IntegerValue
0

@<SCITEGIC>MOL_PROPERTY
Delta U+W
SciTegic.value.DoubleValue
0.000

@<SCITEGIC>MOL_PROPERTY
U+W
SciTegic.value.DoubleValue
-58.332

@<SCITEGIC>MOL_PROPERTY
Grad RMS
SciTegic.value.DoubleValue
0.000000

@<SCITEGIC>MOL_PROPERTY
U
SciTegic.value.DoubleValue
8.390

@<SCITEGIC>MOL_PROPERTY
W
SciTegic.value.DoubleValue
-66.722

@<SCITEGIC>MOL_PROPERTY
W(PB)
SciTegic.value.DoubleValue
-68.455

@<SCITEGIC>MOL_PROPERTY
W(SA)
SciTegic.value.DoubleValue
1.733

@<SCITEGIC>MOL_PROPERTY
Valence
SciTegic.value.DoubleValue
6.333

@<SCITEGIC>MOL_PROPERTY
Coulomb
SciTegic.value.DoubleValue
1.215

@<SCITEGIC>MOL_PROPERTY
VdW
SciTegic.value.DoubleValue
0.842

@<SCITEGIC>MOL_PROPERTY
VdW6
SciTegic.value.DoubleValue
-3.344

@<SCITEGIC>MOL_PROPERTY
VdW12
SciTegic.value.DoubleValue
4.186

@<SCITEGIC>MOL_PROPERTY
Bond
SciTegic.value.DoubleValue
0.091

@<SCITEGIC>MOL_PROPERTY
Angle
SciTegic.value.DoubleValue
2.713

@<SCITEGIC>MOL_PROPERTY
Pdih
SciTegic.value.DoubleValue
3.529

@<SCITEGIC>MOL_PROPERTY
Idih
SciTegic.value.DoubleValue
0.000

@<SCITEGIC>MOL_PROPERTY
Tether
SciTegic.value.DoubleValue
0.000

@<TRIPOS>MOLECULE
guest-6_confgen4.mol2 : confsearch ligand conformer 902
          13          12           1
SMALL
USER_CHARGES
 
@<TRIPOS>ATOM
       1    C1      19.454174   18.837095   23.864916 C.2        1 MOL1         0.6021
       2    O1      18.975329   17.768276   24.186932 O.co2      1 MOL1        -0.6904
       3    O2      19.254795   19.871273   24.469966 O.co2      1 MOL1        -0.6904
       4    C2      20.338075   18.886747   22.623242 C.3        1 MOL1        -0.2102
       5    H1      20.866872   17.929246   22.542101 H          1 MOL1         0.0687
       6    H2      21.097349   19.663492   22.775520 H          1 MOL1         0.0687
       7    C3      19.541996   19.167185   21.325759 C.3        1 MOL1        -0.1974
       8    H3      18.778324   18.388797   21.188872 H          1 MOL1         0.0689
       9    H4      19.008958   20.123415   21.422288 H          1 MOL1         0.0689
      10    C4      20.463094   19.210987   20.090061 C.3        1 MOL1        -0.2987
      11    H5      19.881137   19.410731   19.180836 H          1 MOL1         0.0700
      12    H6      21.217507   20.002412   20.190375 H          1 MOL1         0.0700
      13    H7      20.985064   18.254480   19.955156 H          1 MOL1         0.0700
@<TRIPOS>BOND
    1     1     2    1
    2     1     3    2
    3     1     4    1
    4     4     5    1
    5     4     6    1
    6     4     7    1
    7     7     8    1
    8     7     9    1
    9     7    10    1
   10    10    11    1
   11    10    12    1
   12    10    13    1
@<TRIPOS>SUBSTRUCTURE
       1 MOL1            1 RESIDUE      1      MOL     
@<SCITEGIC>MOL_PROPERTY
VConf Rank
SciTegic.value.IntegerValue
902

@<SCITEGIC>MOL_PROPERTY
Conf_Id
SciTegic.value.IntegerValue
1

@<SCITEGIC>MOL_PROPERTY
Delta U+W
SciTegic.value.DoubleValue
-1.339

@<SCITEGIC>MOL_PROPERTY
U+W
SciTegic.value.DoubleValue
-59.672

@<SCITEGIC>MOL_PROPERTY
Grad RMS
SciTegic.value.DoubleValue
0.000000

@<SCITEGIC>MOL_PROPERTY
U
SciTegic.value.DoubleValue
7.389

@<SCITEGIC>MOL_PROPERTY
W
SciTegic.value.DoubleValue
-67.061

@<SCITEGIC>MOL_PROPERTY
W(PB)
SciTegic.value.DoubleValue
-68.767

@<SCITEGIC>MOL_PROPERTY
W(SA)
SciTegic.value.DoubleValue
1.707

@<SCITEGIC>MOL_PROPERTY
Valence
SciTegic.value.DoubleValue
5.822

@<SCITEGIC>MOL_PROPERTY
Coulomb
SciTegic.value.DoubleValue
1.255

@<SCITEGIC>MOL_PROPERTY
VdW
SciTegic.value.DoubleValue
0.312

@<SCITEGIC>MOL_PROPERTY
VdW6
SciTegic.value.DoubleValue
-3.061

@<SCITEGIC>MOL_PROPERTY
VdW12
SciTegic.value.DoubleValue
3.372

@<SCITEGIC>MOL_PROPERTY
Bond
SciTegic.value.DoubleValue
0.059

@<SCITEGIC>MOL_PROPERTY
Angle
SciTegic.value.DoubleValue
2.241

@<SCITEGIC>MOL_PROPERTY
Pdih
SciTegic.value.DoubleValue
3.522

@<SCITEGIC>MOL_PROPERTY
Idih
SciTegic.value.DoubleValue
0.000

@<SCITEGIC>MOL_PROPERTY
Tether
SciTegic.value.DoubleValue
0.000

@<TRIPOS>MOLECULE
guest-6_confgen4.mol2 : confsearch ligand conformer 903
          13          12           1
SMALL
USER_CHARGES
 
@<TRIPOS>ATOM
       1    C1      18.960187   17.865414   22.795963 C.2        1 MOL1         0.6021
       2    O1      19.290862   17.437618   23.883962 O.co2      1 MOL1        -0.6904
       3    O2      17.825862   18.207785   22.527644 O.co2      1 MOL1        -0.6904
       4    C2      20.019894   17.941986   21.699658 C.3        1 MOL1        -0.2102
       5    H1      19.515978   18.031590   20.729437 H          1 MOL1         0.0687
       6    H2      20.552704   16.983630   21.692360 H          1 MOL1         0.0687
       7    C3      21.038299   19.096680   21.880964 C.3        1 MOL1        -0.1974
       8    H3      21.507101   19.021282   22.872157 H          1 MOL1         0.0689
       9    H4      21.843422   18.985838   21.141799 H          1 MOL1         0.0689
      10    C4      20.390246   20.486853   21.715505 C.3        1 MOL1        -0.2987
      11    H5      19.608335   20.650015   22.469043 H          1 MOL1         0.0700
      12    H6      21.140840   21.279680   21.830089 H          1 MOL1         0.0700
      13    H7      19.934453   20.591636   20.722195 H          1 MOL1         0.0700
@<TRIPOS>BOND
    1     1     2    1
    2     1     3    2
    3     1     4    1
    4     4     5    1
    5     4     6    1
    6     4     7    1
    7     7     8    1
    8     7     9    1
    9     7    10    1
   10    10    11    1
   11    10    12    1
   12    10    13    1
@<TRIPOS>SUBSTRUCTURE
       1 MOL1            1 RESIDUE      1      MOL     
@<SCITEGIC>MOL_PROPERTY
VConf Rank
SciTegic.value.IntegerValue
903

@<SCITEGIC>MOL_PROPERTY
Conf_Id
SciTegic.value.IntegerValue
4

@<SCITEGIC>MOL_PROPERTY
Delta U+W
SciTegic.value.DoubleValue
0.281

@<SCITEGIC>MOL_PROPERTY
U+W
SciTegic.value.DoubleValue
-58.051

@<SCITEGIC>MOL_PROPERTY
Grad RMS
SciTegic.value.DoubleValue
0.000000

@<SCITEGIC>MOL_PROPERTY
U
SciTegic.value.DoubleValue
9.781

@<SCITEGIC>MOL_PROPERTY
W
SciTegic.value.DoubleValue
-67.832

@<SCITEGIC>MOL_PROPERTY
W(PB)
SciTegic.value.DoubleValue
-69.535

@<SCITEGIC>MOL_PROPERTY
W(SA)
SciTegic.value.DoubleValue
1.703

@<SCITEGIC>MOL_PROPERTY
Valence
SciTegic.value.DoubleValue
6.123

@<SCITEGIC>MOL_PROPERTY
Coulomb
SciTegic.value.DoubleValue
3.449

@<SCITEGIC>MOL_PROPERTY
VdW
SciTegic.value.DoubleValue
0.209

@<SCITEGIC>MOL_PROPERTY
VdW6
SciTegic.value.DoubleValue
-3.762

@<SCITEGIC>MOL_PROPERTY
VdW12
SciTegic.value.DoubleValue
3.972

@<SCITEGIC>MOL_PROPERTY
Bond
SciTegic.value.DoubleValue
0.078

@<SCITEGIC>MOL_PROPERTY
Angle
SciTegic.value.DoubleValue
2.428

@<SCITEGIC>MOL_PROPERTY
Pdih
SciTegic.value.DoubleValue
3.616

@<SCITEGIC>MOL_PROPERTY
Idih
SciTegic.value.DoubleValue
0.002

@<SCITEGIC>MOL_PROPERTY
Tether
SciTegic.value.DoubleValue
0.000

@<TRIPOS>MOLECULE
guest-6_confgen4.mol2 : confsearch ligand conformer 904
          13          12           1
SMALL
USER_CHARGES
 
@<TRIPOS>ATOM
       1    C1      19.731614   18.850213   20.250725 C.2        1 MOL1         0.6021
       2    O1      20.712135   19.144135   19.596436 O.co2      1 MOL1        -0.6904
       3    O2      18.954146   17.971839   19.934337 O.co2      1 MOL1        -0.6904
       4    C2      19.439115   19.648733   21.518611 C.3        1 MOL1        -0.2102
       5    H1      18.381913   19.937983   21.486300 H          1 MOL1         0.0687
       6    H2      20.022491   20.577295   21.491544 H          1 MOL1         0.0687
       7    C3      19.722818   18.878128   22.833532 C.3        1 MOL1        -0.1974
       8    H3      19.345860   19.464339   23.682727 H          1 MOL1         0.0689
       9    H4      19.165905   17.930622   22.831946 H          1 MOL1         0.0689
      10    C4      21.225681   18.598796   23.041625 C.3        1 MOL1        -0.2987
      11    H5      21.798755   19.534877   23.068660 H          1 MOL1         0.0700
      12    H6      21.393376   18.070449   23.989161 H          1 MOL1         0.0700
      13    H7      21.627203   17.975767   22.231415 H          1 MOL1         0.0700
@<TRIPOS>BOND
    1     1     2    1
    2     1     3    2
    3     1     4    1
    4     4     5    1
    5     4     6    1
    6     4     7    1
    7     7     8    1
    8     7     9    1
    9     7    10    1
   10    10    11    1
   11    10    12    1
   12    10    13    1
@<TRIPOS>SUBSTRUCTURE
       1 MOL1            1 RESIDUE      1      MOL     
@<SCITEGIC>MOL_PROPERTY
VConf Rank
SciTegic.value.IntegerValue
904

@<SCITEGIC>MOL_PROPERTY
Conf_Id
SciTegic.value.IntegerValue
36

@<SCITEGIC>MOL_PROPERTY
Delta U+W
SciTegic.value.DoubleValue
0.272

@<SCITEGIC>MOL_PROPERTY
U+W
SciTegic.value.DoubleValue
-58.060

@<SCITEGIC>MOL_PROPERTY
Grad RMS
SciTegic.value.DoubleValue
0.000000

@<SCITEGIC>MOL_PROPERTY
U
SciTegic.value.DoubleValue
9.781

@<SCITEGIC>MOL_PROPERTY
W
SciTegic.value.DoubleValue
-67.841

@<SCITEGIC>MOL_PROPERTY
W(PB)
SciTegic.value.DoubleValue
-69.537

@<SCITEGIC>MOL_PROPERTY
W(SA)
SciTegic.value.DoubleValue
1.696

@<SCITEGIC>MOL_PROPERTY
Valence
SciTegic.value.DoubleValue
6.123

@<SCITEGIC>MOL_PROPERTY
Coulomb
SciTegic.value.DoubleValue
3.449

@<SCITEGIC>MOL_PROPERTY
VdW
SciTegic.value.DoubleValue
0.209

@<SCITEGIC>MOL_PROPERTY
VdW6
SciTegic.value.DoubleValue
-3.762

@<SCITEGIC>MOL_PROPERTY
VdW12
SciTegic.value.DoubleValue
3.972

@<SCITEGIC>MOL_PROPERTY
Bond
SciTegic.value.DoubleValue
0.078

@<SCITEGIC>MOL_PROPERTY
Angle
SciTegic.value.DoubleValue
2.428

@<SCITEGIC>MOL_PROPERTY
Pdih
SciTegic.value.DoubleValue
3.616

@<SCITEGIC>MOL_PROPERTY
Idih
SciTegic.value.DoubleValue
0.002

@<SCITEGIC>MOL_PROPERTY
Tether
SciTegic.value.DoubleValue
0.000

@<TRIPOS>MOLECULE
guest-6_confgen4.mol2 : confsearch ligand conformer 905
          13          12           1
SMALL
USER_CHARGES
 
@<TRIPOS>ATOM
       1    C1      22.140417   18.903901   22.051678 C.2        1 MOL1         0.6021
       2    O1      22.215673   18.656228   23.239249 O.co2      1 MOL1        -0.6904
       3    O2      23.115789   19.029086   21.339095 O.co2      1 MOL1        -0.6904
       4    C2      20.768786   19.071721   21.395062 C.3        1 MOL1        -0.2102
       5    H1      20.704590   18.342062   20.579088 H          1 MOL1         0.0687
       6    H2      20.744476   20.067572   20.936774 H          1 MOL1         0.0687
       7    C3      19.553010   18.903223   22.343459 C.3        1 MOL1        -0.1974
       8    H3      19.580848   17.905733   22.803886 H          1 MOL1         0.0689
       9    H4      19.620821   19.633321   23.162063 H          1 MOL1         0.0689
      10    C4      18.217331   19.089176   21.595650 C.3        1 MOL1        -0.2987
      11    H5      18.111364   18.349857   20.790851 H          1 MOL1         0.0700
      12    H6      17.369592   18.966457   22.282334 H          1 MOL1         0.0700
      13    H7      18.151693   20.091307   21.151861 H          1 MOL1         0.0700
@<TRIPOS>BOND
    1     1     2    1
    2     1     3    2
    3     1     4    1
    4     4     5    1
    5     4     6    1
    6     4     7    1
    7     7     8    1
    8     7     9    1
    9     7    10    1
   10    10    11    1
   11    10    12    1
   12    10    13    1
@<TRIPOS>SUBSTRUCTURE
       1 MOL1            1 RESIDUE      1      MOL     
@<SCITEGIC>MOL_PROPERTY
VConf Rank
SciTegic.value.IntegerValue
905

@<SCITEGIC>MOL_PROPERTY
Conf_Id
SciTegic.value.IntegerValue
0

@<SCITEGIC>MOL_PROPERTY
Delta U+W
SciTegic.value.DoubleValue
0.000

@<SCITEGIC>MOL_PROPERTY
U+W
SciTegic.value.DoubleValue
-58.332

@<SCITEGIC>MOL_PROPERTY
Grad RMS
SciTegic.value.DoubleValue
0.000000

@<SCITEGIC>MOL_PROPERTY
U
SciTegic.value.DoubleValue
8.390

@<SCITEGIC>MOL_PROPERTY
W
SciTegic.value.DoubleValue
-66.722

@<SCITEGIC>MOL_PROPERTY
W(PB)
SciTegic.value.DoubleValue
-68.455

@<SCITEGIC>MOL_PROPERTY
W(SA)
SciTegic.value.DoubleValue
1.733

@<SCITEGIC>MOL_PROPERTY
Valence
SciTegic.value.DoubleValue
6.333

@<SCITEGIC>MOL_PROPERTY
Coulomb
SciTegic.value.DoubleValue
1.215

@<SCITEGIC>MOL_PROPERTY
VdW
SciTegic.value.DoubleValue
0.842

@<SCITEGIC>MOL_PROPERTY
VdW6
SciTegic.value.DoubleValue
-3.344

@<SCITEGIC>MOL_PROPERTY
VdW12
SciTegic.value.DoubleValue
4.186

@<SCITEGIC>MOL_PROPERTY
Bond
SciTegic.value.DoubleValue
0.091

@<SCITEGIC>MOL_PROPERTY
Angle
SciTegic.value.DoubleValue
2.713

@<SCITEGIC>MOL_PROPERTY
Pdih
SciTegic.value.DoubleValue
3.529

@<SCITEGIC>MOL_PROPERTY
Idih
SciTegic.value.DoubleValue
0.000

@<SCITEGIC>MOL_PROPERTY
Tether
SciTegic.value.DoubleValue
0.000

@<TRIPOS>MOLECULE
guest-6_confgen4.mol2 : confsearch ligand conformer 906
          13          12           1
SMALL
USER_CHARGES
 
@<TRIPOS>ATOM
       1    C1      19.804375   21.120513   22.141150 C.2        1 MOL1         0.6021
       2    O1      18.787319   21.489810   22.693037 O.co2      1 MOL1        -0.6904
       3    O2      20.466924   21.829690   21.410767 O.co2      1 MOL1        -0.6904
       4    C2      20.263954   19.683355   22.362201 C.3        1 MOL1        -0.2102
       5    H1      19.974694   19.384717   23.377171 H          1 MOL1         0.0687
       6    H2      21.359801   19.665009   22.319755 H          1 MOL1         0.0687
       7    C3      19.674231   18.694569   21.327612 C.3        1 MOL1        -0.1974
       8    H3      18.576661   18.728761   21.372259 H          1 MOL1         0.0689
       9    H4      19.962133   19.009032   20.314671 H          1 MOL1         0.0689
      10    C4      20.157318   17.251955   21.578179 C.3        1 MOL1        -0.2987
      11    H5      19.729085   16.566243   20.835430 H          1 MOL1         0.0700
      12    H6      21.251158   17.186452   21.509057 H          1 MOL1         0.0700
      13    H7      19.855023   16.904031   22.574734 H          1 MOL1         0.0700
@<TRIPOS>BOND
    1     1     2    1
    2     1     3    2
    3     1     4    1
    4     4     5    1
    5     4     6    1
    6     4     7    1
    7     7     8    1
    8     7     9    1
    9     7    10    1
   10    10    11    1
   11    10    12    1
   12    10    13    1
@<TRIPOS>SUBSTRUCTURE
       1 MOL1            1 RESIDUE      1      MOL     
@<SCITEGIC>MOL_PROPERTY
VConf Rank
SciTegic.value.IntegerValue
906

@<SCITEGIC>MOL_PROPERTY
Conf_Id
SciTegic.value.IntegerValue
1

@<SCITEGIC>MOL_PROPERTY
Delta U+W
SciTegic.value.DoubleValue
-1.339

@<SCITEGIC>MOL_PROPERTY
U+W
SciTegic.value.DoubleValue
-59.672

@<SCITEGIC>MOL_PROPERTY
Grad RMS
SciTegic.value.DoubleValue
0.000000

@<SCITEGIC>MOL_PROPERTY
U
SciTegic.value.DoubleValue
7.389

@<SCITEGIC>MOL_PROPERTY
W
SciTegic.value.DoubleValue
-67.061

@<SCITEGIC>MOL_PROPERTY
W(PB)
SciTegic.value.DoubleValue
-68.767

@<SCITEGIC>MOL_PROPERTY
W(SA)
SciTegic.value.DoubleValue
1.707

@<SCITEGIC>MOL_PROPERTY
Valence
SciTegic.value.DoubleValue
5.822

@<SCITEGIC>MOL_PROPERTY
Coulomb
SciTegic.value.DoubleValue
1.255

@<SCITEGIC>MOL_PROPERTY
VdW
SciTegic.value.DoubleValue
0.312

@<SCITEGIC>MOL_PROPERTY
VdW6
SciTegic.value.DoubleValue
-3.061

@<SCITEGIC>MOL_PROPERTY
VdW12
SciTegic.value.DoubleValue
3.372

@<SCITEGIC>MOL_PROPERTY
Bond
SciTegic.value.DoubleValue
0.059

@<SCITEGIC>MOL_PROPERTY
Angle
SciTegic.value.DoubleValue
2.241

@<SCITEGIC>MOL_PROPERTY
Pdih
SciTegic.value.DoubleValue
3.522

@<SCITEGIC>MOL_PROPERTY
Idih
SciTegic.value.DoubleValue
0.000

@<SCITEGIC>MOL_PROPERTY
Tether
SciTegic.value.DoubleValue
0.000

@<TRIPOS>MOLECULE
guest-6_confgen4.mol2 : confsearch ligand conformer 907
          13          12           1
SMALL
USER_CHARGES
 
@<TRIPOS>ATOM
       1    C1      20.601524   19.381989   20.320002 C.2        1 MOL1         0.6021
       2    O1      20.598319   18.465192   19.522774 O.co2      1 MOL1        -0.6904
       3    O2      20.217379   20.503096   20.052691 O.co2      1 MOL1        -0.6904
       4    C2      21.151002   19.117545   21.719599 C.3        1 MOL1        -0.2102
       5    H1      21.382148   20.079262   22.193897 H          1 MOL1         0.0687
       6    H2      22.102660   18.585618   21.602180 H          1 MOL1         0.0687
       7    C3      20.205532   18.288620   22.626412 C.3        1 MOL1        -0.1974
       8    H3      19.947361   17.345800   22.124057 H          1 MOL1         0.0689
       9    H4      20.736889   18.019209   23.549423 H          1 MOL1         0.0689
      10    C4      18.916961   19.054075   22.991914 C.3        1 MOL1        -0.2987
      11    H5      18.336516   19.301512   22.093201 H          1 MOL1         0.0700
      12    H6      18.280197   18.447886   23.649306 H          1 MOL1         0.0700
      13    H7      19.151696   19.990204   23.515321 H          1 MOL1         0.0700
@<TRIPOS>BOND
    1     1     2    1
    2     1     3    2
    3     1     4    1
    4     4     5    1
    5     4     6    1
    6     4     7    1
    7     7     8    1
    8     7     9    1
    9     7    10    1
   10    10    11    1
   11    10    12    1
   12    10    13    1
@<TRIPOS>SUBSTRUCTURE
       1 MOL1            1 RESIDUE      1      MOL     
@<SCITEGIC>MOL_PROPERTY
VConf Rank
SciTegic.value.IntegerValue
907

@<SCITEGIC>MOL_PROPERTY
Conf_Id
SciTegic.value.IntegerValue
4

@<SCITEGIC>MOL_PROPERTY
Delta U+W
SciTegic.value.DoubleValue
0.281

@<SCITEGIC>MOL_PROPERTY
U+W
SciTegic.value.DoubleValue
-58.051

@<SCITEGIC>MOL_PROPERTY
Grad RMS
SciTegic.value.DoubleValue
0.000000

@<SCITEGIC>MOL_PROPERTY
U
SciTegic.value.DoubleValue
9.781

@<SCITEGIC>MOL_PROPERTY
W
SciTegic.value.DoubleValue
-67.832

@<SCITEGIC>MOL_PROPERTY
W(PB)
SciTegic.value.DoubleValue
-69.535

@<SCITEGIC>MOL_PROPERTY
W(SA)
SciTegic.value.DoubleValue
1.703

@<SCITEGIC>MOL_PROPERTY
Valence
SciTegic.value.DoubleValue
6.123

@<SCITEGIC>MOL_PROPERTY
Coulomb
SciTegic.value.DoubleValue
3.449

@<SCITEGIC>MOL_PROPERTY
VdW
SciTegic.value.DoubleValue
0.209

@<SCITEGIC>MOL_PROPERTY
VdW6
SciTegic.value.DoubleValue
-3.762

@<SCITEGIC>MOL_PROPERTY
VdW12
SciTegic.value.DoubleValue
3.972

@<SCITEGIC>MOL_PROPERTY
Bond
SciTegic.value.DoubleValue
0.078

@<SCITEGIC>MOL_PROPERTY
Angle
SciTegic.value.DoubleValue
2.428

@<SCITEGIC>MOL_PROPERTY
Pdih
SciTegic.value.DoubleValue
3.616

@<SCITEGIC>MOL_PROPERTY
Idih
SciTegic.value.DoubleValue
0.002

@<SCITEGIC>MOL_PROPERTY
Tether
SciTegic.value.DoubleValue
0.000

@<TRIPOS>MOLECULE
guest-6_confgen4.mol2 : confsearch ligand conformer 908
          13          12           1
SMALL
USER_CHARGES
 
@<TRIPOS>ATOM
       1    C1      18.601361   18.025982   22.159017 C.2        1 MOL1         0.6021
       2    O1      18.525220   17.567029   23.281278 O.co2      1 MOL1        -0.6904
       3    O2      17.643495   18.446431   21.541108 O.co2      1 MOL1        -0.6904
       4    C2      19.965174   18.043592   21.473138 C.3        1 MOL1        -0.2102
       5    H1      19.830146   17.631051   20.466180 H          1 MOL1         0.0687
       6    H2      20.636350   17.360363   22.007934 H          1 MOL1         0.0687
       7    C3      20.606427   19.451378   21.371801 C.3        1 MOL1        -0.1974
       8    H3      21.502085   19.394124   20.738247 H          1 MOL1         0.0689
       9    H4      19.909127   20.137926   20.871453 H          1 MOL1         0.0689
      10    C4      20.999882   20.021512   22.750230 C.3        1 MOL1        -0.2987
      11    H5      21.714421   19.360976   23.258676 H          1 MOL1         0.0700
      12    H6      21.467947   21.008504   22.641339 H          1 MOL1         0.0700
      13    H7      20.119376   20.134306   23.396616 H          1 MOL1         0.0700
@<TRIPOS>BOND
    1     1     2    1
    2     1     3    2
    3     1     4    1
    4     4     5    1
    5     4     6    1
    6     4     7    1
    7     7     8    1
    8     7     9    1
    9     7    10    1
   10    10    11    1
   11    10    12    1
   12    10    13    1
@<TRIPOS>SUBSTRUCTURE
       1 MOL1            1 RESIDUE      1      MOL     
@<SCITEGIC>MOL_PROPERTY
VConf Rank
SciTegic.value.IntegerValue
908

@<SCITEGIC>MOL_PROPERTY
Conf_Id
SciTegic.value.IntegerValue
36

@<SCITEGIC>MOL_PROPERTY
Delta U+W
SciTegic.value.DoubleValue
0.272

@<SCITEGIC>MOL_PROPERTY
U+W
SciTegic.value.DoubleValue
-58.060

@<SCITEGIC>MOL_PROPERTY
Grad RMS
SciTegic.value.DoubleValue
0.000000

@<SCITEGIC>MOL_PROPERTY
U
SciTegic.value.DoubleValue
9.781

@<SCITEGIC>MOL_PROPERTY
W
SciTegic.value.DoubleValue
-67.841

@<SCITEGIC>MOL_PROPERTY
W(PB)
SciTegic.value.DoubleValue
-69.537

@<SCITEGIC>MOL_PROPERTY
W(SA)
SciTegic.value.DoubleValue
1.696

@<SCITEGIC>MOL_PROPERTY
Valence
SciTegic.value.DoubleValue
6.123

@<SCITEGIC>MOL_PROPERTY
Coulomb
SciTegic.value.DoubleValue
3.449

@<SCITEGIC>MOL_PROPERTY
VdW
SciTegic.value.DoubleValue
0.209

@<SCITEGIC>MOL_PROPERTY
VdW6
SciTegic.value.DoubleValue
-3.762

@<SCITEGIC>MOL_PROPERTY
VdW12
SciTegic.value.DoubleValue
3.972

@<SCITEGIC>MOL_PROPERTY
Bond
SciTegic.value.DoubleValue
0.078

@<SCITEGIC>MOL_PROPERTY
Angle
SciTegic.value.DoubleValue
2.428

@<SCITEGIC>MOL_PROPERTY
Pdih
SciTegic.value.DoubleValue
3.616

@<SCITEGIC>MOL_PROPERTY
Idih
SciTegic.value.DoubleValue
0.002

@<SCITEGIC>MOL_PROPERTY
Tether
SciTegic.value.DoubleValue
0.000

@<TRIPOS>MOLECULE
guest-6_confgen4.mol2 : confsearch ligand conformer 909
          13          12           1
SMALL
USER_CHARGES
 
@<TRIPOS>ATOM
       1    C1      21.660404   18.911272   23.183700 C.2        1 MOL1         0.6021
       2    O1      21.690761   20.067008   23.558775 O.co2      1 MOL1        -0.6904
       3    O2      22.434153   18.065378   23.584413 O.co2      1 MOL1        -0.6904
       4    C2      20.611687   18.470902   22.160495 C.3        1 MOL1        -0.2102
       5    H1      20.036803   17.653352   22.611559 H          1 MOL1         0.0687
       6    H2      21.148136   18.049513   21.302013 H          1 MOL1         0.0687
       7    C3      19.645810   19.584424   21.677682 C.3        1 MOL1        -0.1974
       8    H3      19.111374   20.007357   22.539808 H          1 MOL1         0.0689
       9    H4      20.224081   20.404049   21.228715 H          1 MOL1         0.0689
      10    C4      18.627191   19.049076   20.651207 C.3        1 MOL1        -0.2987
      11    H5      18.014606   18.248512   21.086363 H          1 MOL1         0.0700
      12    H6      17.953120   19.850460   20.321558 H          1 MOL1         0.0700
      13    H7      19.136265   18.648341   19.764765 H          1 MOL1         0.0700
@<TRIPOS>BOND
    1     1     2    1
    2     1     3    2
    3     1     4    1
    4     4     5    1
    5     4     6    1
    6     4     7    1
    7     7     8    1
    8     7     9    1
    9     7    10    1
   10    10    11    1
   11    10    12    1
   12    10    13    1
@<TRIPOS>SUBSTRUCTURE
       1 MOL1            1 RESIDUE      1      MOL     
@<SCITEGIC>MOL_PROPERTY
VConf Rank
SciTegic.value.IntegerValue
909

@<SCITEGIC>MOL_PROPERTY
Conf_Id
SciTegic.value.IntegerValue
0

@<SCITEGIC>MOL_PROPERTY
Delta U+W
SciTegic.value.DoubleValue
0.000

@<SCITEGIC>MOL_PROPERTY
U+W
SciTegic.value.DoubleValue
-58.332

@<SCITEGIC>MOL_PROPERTY
Grad RMS
SciTegic.value.DoubleValue
0.000000

@<SCITEGIC>MOL_PROPERTY
U
SciTegic.value.DoubleValue
8.390

@<SCITEGIC>MOL_PROPERTY
W
SciTegic.value.DoubleValue
-66.722

@<SCITEGIC>MOL_PROPERTY
W(PB)
SciTegic.value.DoubleValue
-68.455

@<SCITEGIC>MOL_PROPERTY
W(SA)
SciTegic.value.DoubleValue
1.733

@<SCITEGIC>MOL_PROPERTY
Valence
SciTegic.value.DoubleValue
6.333

@<SCITEGIC>MOL_PROPERTY
Coulomb
SciTegic.value.DoubleValue
1.215

@<SCITEGIC>MOL_PROPERTY
VdW
SciTegic.value.DoubleValue
0.842

@<SCITEGIC>MOL_PROPERTY
VdW6
SciTegic.value.DoubleValue
-3.344

@<SCITEGIC>MOL_PROPERTY
VdW12
SciTegic.value.DoubleValue
4.186

@<SCITEGIC>MOL_PROPERTY
Bond
SciTegic.value.DoubleValue
0.091

@<SCITEGIC>MOL_PROPERTY
Angle
SciTegic.value.DoubleValue
2.713

@<SCITEGIC>MOL_PROPERTY
Pdih
SciTegic.value.DoubleValue
3.529

@<SCITEGIC>MOL_PROPERTY
Idih
SciTegic.value.DoubleValue
0.000

@<SCITEGIC>MOL_PROPERTY
Tether
SciTegic.value.DoubleValue
0.000

@<TRIPOS>MOLECULE
guest-6_confgen4.mol2 : confsearch ligand conformer 910
          13          12           1
SMALL
USER_CHARGES
 
@<TRIPOS>ATOM
       1    C1      20.325339   21.017500   22.491633 C.2        1 MOL1         0.6021
       2    O1      21.480973   21.316089   22.716834 O.co2      1 MOL1        -0.6904
       3    O2      19.375878   21.579181   22.999963 O.co2      1 MOL1        -0.6904
       4    C2      20.052187   19.862935   21.533579 C.3        1 MOL1        -0.2102
       5    H1      20.846314   19.851862   20.777102 H          1 MOL1         0.0687
       6    H2      19.110334   20.068837   21.010572 H          1 MOL1         0.0687
       7    C3      19.976620   18.491170   22.246599 C.3        1 MOL1        -0.1974
       8    H3      20.921209   18.300213   22.774906 H          1 MOL1         0.0689
       9    H4      19.184830   18.517191   23.008318 H          1 MOL1         0.0689
      10    C4      19.699823   17.346148   21.251813 C.3        1 MOL1        -0.2987
      11    H5      19.649789   16.382553   21.775495 H          1 MOL1         0.0700
      12    H6      18.744831   17.499559   20.732188 H          1 MOL1         0.0700
      13    H7      20.494548   17.280900   20.497021 H          1 MOL1         0.0700
@<TRIPOS>BOND
    1     1     2    1
    2     1     3    2
    3     1     4    1
    4     4     5    1
    5     4     6    1
    6     4     7    1
    7     7     8    1
    8     7     9    1
    9     7    10    1
   10    10    11    1
   11    10    12    1
   12    10    13    1
@<TRIPOS>SUBSTRUCTURE
       1 MOL1            1 RESIDUE      1      MOL     
@<SCITEGIC>MOL_PROPERTY
VConf Rank
SciTegic.value.IntegerValue
910

@<SCITEGIC>MOL_PROPERTY
Conf_Id
SciTegic.value.IntegerValue
1

@<SCITEGIC>MOL_PROPERTY
Delta U+W
SciTegic.value.DoubleValue
-1.339

@<SCITEGIC>MOL_PROPERTY
U+W
SciTegic.value.DoubleValue
-59.672

@<SCITEGIC>MOL_PROPERTY
Grad RMS
SciTegic.value.DoubleValue
0.000000

@<SCITEGIC>MOL_PROPERTY
U
SciTegic.value.DoubleValue
7.389

@<SCITEGIC>MOL_PROPERTY
W
SciTegic.value.DoubleValue
-67.061

@<SCITEGIC>MOL_PROPERTY
W(PB)
SciTegic.value.DoubleValue
-68.767

@<SCITEGIC>MOL_PROPERTY
W(SA)
SciTegic.value.DoubleValue
1.707

@<SCITEGIC>MOL_PROPERTY
Valence
SciTegic.value.DoubleValue
5.822

@<SCITEGIC>MOL_PROPERTY
Coulomb
SciTegic.value.DoubleValue
1.255

@<SCITEGIC>MOL_PROPERTY
VdW
SciTegic.value.DoubleValue
0.312

@<SCITEGIC>MOL_PROPERTY
VdW6
SciTegic.value.DoubleValue
-3.061

@<SCITEGIC>MOL_PROPERTY
VdW12
SciTegic.value.DoubleValue
3.372

@<SCITEGIC>MOL_PROPERTY
Bond
SciTegic.value.DoubleValue
0.059

@<SCITEGIC>MOL_PROPERTY
Angle
SciTegic.value.DoubleValue
2.241

@<SCITEGIC>MOL_PROPERTY
Pdih
SciTegic.value.DoubleValue
3.522

@<SCITEGIC>MOL_PROPERTY
Idih
SciTegic.value.DoubleValue
0.000

@<SCITEGIC>MOL_PROPERTY
Tether
SciTegic.value.DoubleValue
0.000

@<TRIPOS>MOLECULE
guest-6_confgen4.mol2 : confsearch ligand conformer 911
          13          12           1
SMALL
USER_CHARGES
 
@<TRIPOS>ATOM
       1    C1      19.779644   18.485796   20.306100 C.2        1 MOL1         0.6021
       2    O1      18.666498   18.047957   20.093261 O.co2      1 MOL1        -0.6904
       3    O2      20.363931   19.229128   19.543230 O.co2      1 MOL1        -0.6904
       4    C2      20.493582   18.048790   21.582833 C.3        1 MOL1        -0.2102
       5    H1      21.565398   18.255569   21.474485 H          1 MOL1         0.0687
       6    H2      20.387448   16.960178   21.660596 H          1 MOL1         0.0687
       7    C3      19.949447   18.713330   22.873431 C.3        1 MOL1        -0.1974
       8    H3      18.867698   18.535140   22.950817 H          1 MOL1         0.0689
       9    H4      20.411545   18.234109   23.747322 H          1 MOL1         0.0689
      10    C4      20.232560   20.229070   22.921490 C.3        1 MOL1        -0.2987
      11    H5      19.746969   20.748006   22.084391 H          1 MOL1         0.0700
      12    H6      19.852654   20.664154   23.855016 H          1 MOL1         0.0700
      13    H7      21.310811   20.428782   22.867805 H          1 MOL1         0.0700
@<TRIPOS>BOND
    1     1     2    1
    2     1     3    2
    3     1     4    1
    4     4     5    1
    5     4     6    1
    6     4     7    1
    7     7     8    1
    8     7     9    1
    9     7    10    1
   10    10    11    1
   11    10    12    1
   12    10    13    1
@<TRIPOS>SUBSTRUCTURE
       1 MOL1            1 RESIDUE      1      MOL     
@<SCITEGIC>MOL_PROPERTY
VConf Rank
SciTegic.value.IntegerValue
911

@<SCITEGIC>MOL_PROPERTY
Conf_Id
SciTegic.value.IntegerValue
4

@<SCITEGIC>MOL_PROPERTY
Delta U+W
SciTegic.value.DoubleValue
0.281

@<SCITEGIC>MOL_PROPERTY
U+W
SciTegic.value.DoubleValue
-58.051

@<SCITEGIC>MOL_PROPERTY
Grad RMS
SciTegic.value.DoubleValue
0.000000

@<SCITEGIC>MOL_PROPERTY
U
SciTegic.value.DoubleValue
9.781

@<SCITEGIC>MOL_PROPERTY
W
SciTegic.value.DoubleValue
-67.832

@<SCITEGIC>MOL_PROPERTY
W(PB)
SciTegic.value.DoubleValue
-69.535

@<SCITEGIC>MOL_PROPERTY
W(SA)
SciTegic.value.DoubleValue
1.703

@<SCITEGIC>MOL_PROPERTY
Valence
SciTegic.value.DoubleValue
6.123

@<SCITEGIC>MOL_PROPERTY
Coulomb
SciTegic.value.DoubleValue
3.449

@<SCITEGIC>MOL_PROPERTY
VdW
SciTegic.value.DoubleValue
0.209

@<SCITEGIC>MOL_PROPERTY
VdW6
SciTegic.value.DoubleValue
-3.762

@<SCITEGIC>MOL_PROPERTY
VdW12
SciTegic.value.DoubleValue
3.972

@<SCITEGIC>MOL_PROPERTY
Bond
SciTegic.value.DoubleValue
0.078

@<SCITEGIC>MOL_PROPERTY
Angle
SciTegic.value.DoubleValue
2.428

@<SCITEGIC>MOL_PROPERTY
Pdih
SciTegic.value.DoubleValue
3.616

@<SCITEGIC>MOL_PROPERTY
Idih
SciTegic.value.DoubleValue
0.002

@<SCITEGIC>MOL_PROPERTY
Tether
SciTegic.value.DoubleValue
0.000

@<TRIPOS>MOLECULE
guest-6_confgen4.mol2 : confsearch ligand conformer 912
          13          12           1
SMALL
USER_CHARGES
 
@<TRIPOS>ATOM
       1    C1      18.367678   19.302557   22.193391 C.2        1 MOL1         0.6021
       2    O1      18.004754   20.087867   21.340466 O.co2      1 MOL1        -0.6904
       3    O2      17.687438   18.373648   22.581330 O.co2      1 MOL1        -0.6904
       4    C2      19.735198   19.512737   22.838712 C.3        1 MOL1        -0.2102
       5    H1      19.598448   19.444005   23.924512 H          1 MOL1         0.0687
       6    H2      20.070834   20.535150   22.625861 H          1 MOL1         0.0687
       7    C3      20.812571   18.492673   22.389186 C.3        1 MOL1        -0.1974
       8    H3      21.710817   18.621540   23.008395 H          1 MOL1         0.0689
       9    H4      20.449286   17.471037   22.568645 H          1 MOL1         0.0689
      10    C4      21.196742   18.655679   20.904003 C.3        1 MOL1        -0.2987
      11    H5      21.583733   19.664085   20.707157 H          1 MOL1         0.0700
      12    H6      21.974107   17.932934   20.623934 H          1 MOL1         0.0700
      13    H7      20.329405   18.489263   20.251426 H          1 MOL1         0.0700
@<TRIPOS>BOND
    1     1     2    1
    2     1     3    2
    3     1     4    1
    4     4     5    1
    5     4     6    1
    6     4     7    1
    7     7     8    1
    8     7     9    1
    9     7    10    1
   10    10    11    1
   11    10    12    1
   12    10    13    1
@<TRIPOS>SUBSTRUCTURE
       1 MOL1            1 RESIDUE      1      MOL     
@<SCITEGIC>MOL_PROPERTY
VConf Rank
SciTegic.value.IntegerValue
912

@<SCITEGIC>MOL_PROPERTY
Conf_Id
SciTegic.value.IntegerValue
36

@<SCITEGIC>MOL_PROPERTY
Delta U+W
SciTegic.value.DoubleValue
0.272

@<SCITEGIC>MOL_PROPERTY
U+W
SciTegic.value.DoubleValue
-58.060

@<SCITEGIC>MOL_PROPERTY
Grad RMS
SciTegic.value.DoubleValue
0.000000

@<SCITEGIC>MOL_PROPERTY
U
SciTegic.value.DoubleValue
9.781

@<SCITEGIC>MOL_PROPERTY
W
SciTegic.value.DoubleValue
-67.841

@<SCITEGIC>MOL_PROPERTY
W(PB)
SciTegic.value.DoubleValue
-69.537

@<SCITEGIC>MOL_PROPERTY
W(SA)
SciTegic.value.DoubleValue
1.696

@<SCITEGIC>MOL_PROPERTY
Valence
SciTegic.value.DoubleValue
6.123

@<SCITEGIC>MOL_PROPERTY
Coulomb
SciTegic.value.DoubleValue
3.449

@<SCITEGIC>MOL_PROPERTY
VdW
SciTegic.value.DoubleValue
0.209

@<SCITEGIC>MOL_PROPERTY
VdW6
SciTegic.value.DoubleValue
-3.762

@<SCITEGIC>MOL_PROPERTY
VdW12
SciTegic.value.DoubleValue
3.972

@<SCITEGIC>MOL_PROPERTY
Bond
SciTegic.value.DoubleValue
0.078

@<SCITEGIC>MOL_PROPERTY
Angle
SciTegic.value.DoubleValue
2.428

@<SCITEGIC>MOL_PROPERTY
Pdih
SciTegic.value.DoubleValue
3.616

@<SCITEGIC>MOL_PROPERTY
Idih
SciTegic.value.DoubleValue
0.002

@<SCITEGIC>MOL_PROPERTY
Tether
SciTegic.value.DoubleValue
0.000

@<TRIPOS>MOLECULE
guest-6_confgen4.mol2 : confsearch ligand conformer 913
          13          12           1
SMALL
USER_CHARGES
 
@<TRIPOS>ATOM
       1    C1      18.777980   18.831448   23.544150 C.2        1 MOL1         0.6021
       2    O1      18.313514   17.722581   23.365224 O.co2      1 MOL1        -0.6904
       3    O2      18.496387   19.519360   24.504504 O.co2      1 MOL1        -0.6904
       4    C2      19.764763   19.415356   22.531238 C.3        1 MOL1        -0.2102
       5    H1      20.686608   19.656984   23.073599 H          1 MOL1         0.0687
       6    H2      19.345376   20.363521   22.174257 H          1 MOL1         0.0687
       7    C3      20.094316   18.501618   21.321926 C.3        1 MOL1        -0.1974
       8    H3      20.511742   17.550886   21.681952 H          1 MOL1         0.0689
       9    H4      19.168844   18.258226   20.781540 H          1 MOL1         0.0689
      10    C4      21.093806   19.171638   20.357598 C.3        1 MOL1        -0.2987
      11    H5      22.040098   19.397095   20.866737 H          1 MOL1         0.0700
      12    H6      21.314533   18.510784   19.509183 H          1 MOL1         0.0700
      13    H7      20.686425   20.110146   19.959141 H          1 MOL1         0.0700
@<TRIPOS>BOND
    1     1     2    1
    2     1     3    2
    3     1     4    1
    4     4     5    1
    5     4     6    1
    6     4     7    1
    7     7     8    1
    8     7     9    1
    9     7    10    1
   10    10    11    1
   11    10    12    1
   12    10    13    1
@<TRIPOS>SUBSTRUCTURE
       1 MOL1            1 RESIDUE      1      MOL     
@<SCITEGIC>MOL_PROPERTY
VConf Rank
SciTegic.value.IntegerValue
913

@<SCITEGIC>MOL_PROPERTY
Conf_Id
SciTegic.value.IntegerValue
0

@<SCITEGIC>MOL_PROPERTY
Delta U+W
SciTegic.value.DoubleValue
0.000

@<SCITEGIC>MOL_PROPERTY
U+W
SciTegic.value.DoubleValue
-58.332

@<SCITEGIC>MOL_PROPERTY
Grad RMS
SciTegic.value.DoubleValue
0.000000

@<SCITEGIC>MOL_PROPERTY
U
SciTegic.value.DoubleValue
8.390

@<SCITEGIC>MOL_PROPERTY
W
SciTegic.value.DoubleValue
-66.722

@<SCITEGIC>MOL_PROPERTY
W(PB)
SciTegic.value.DoubleValue
-68.455

@<SCITEGIC>MOL_PROPERTY
W(SA)
SciTegic.value.DoubleValue
1.733

@<SCITEGIC>MOL_PROPERTY
Valence
SciTegic.value.DoubleValue
6.333

@<SCITEGIC>MOL_PROPERTY
Coulomb
SciTegic.value.DoubleValue
1.215

@<SCITEGIC>MOL_PROPERTY
VdW
SciTegic.value.DoubleValue
0.842

@<SCITEGIC>MOL_PROPERTY
VdW6
SciTegic.value.DoubleValue
-3.344

@<SCITEGIC>MOL_PROPERTY
VdW12
SciTegic.value.DoubleValue
4.186

@<SCITEGIC>MOL_PROPERTY
Bond
SciTegic.value.DoubleValue
0.091

@<SCITEGIC>MOL_PROPERTY
Angle
SciTegic.value.DoubleValue
2.713

@<SCITEGIC>MOL_PROPERTY
Pdih
SciTegic.value.DoubleValue
3.529

@<SCITEGIC>MOL_PROPERTY
Idih
SciTegic.value.DoubleValue
0.000

@<SCITEGIC>MOL_PROPERTY
Tether
SciTegic.value.DoubleValue
0.000

@<TRIPOS>MOLECULE
guest-6_confgen4.mol2 : confsearch ligand conformer 914
          13          12           1
SMALL
USER_CHARGES
 
@<TRIPOS>ATOM
       1    C1      20.125619   18.026321   23.679989 C.2        1 MOL1         0.6021
       2    O1      19.319479   17.136022   23.861284 O.co2      1 MOL1        -0.6904
       3    O2      20.672147   18.630393   24.580968 O.co2      1 MOL1        -0.6904
       4    C2      20.455185   18.419599   22.243947 C.3        1 MOL1        -0.2102
       5    H1      20.384013   17.521048   21.619000 H          1 MOL1         0.0687
       6    H2      21.499514   18.753377   22.212494 H          1 MOL1         0.0687
       7    C3      19.525199   19.527126   21.692259 C.3        1 MOL1        -0.1974
       8    H3      18.481569   19.185689   21.737846 H          1 MOL1         0.0689
       9    H4      19.597378   20.418277   22.331369 H          1 MOL1         0.0689
      10    C4      19.883846   19.901638   20.240224 C.3        1 MOL1        -0.2987
      11    H5      19.214302   20.687526   19.866927 H          1 MOL1         0.0700
      12    H6      20.914415   20.274576   20.173893 H          1 MOL1         0.0700
      13    H7      19.790007   19.032544   19.575824 H          1 MOL1         0.0700
@<TRIPOS>BOND
    1     1     2    1
    2     1     3    2
    3     1     4    1
    4     4     5    1
    5     4     6    1
    6     4     7    1
    7     7     8    1
    8     7     9    1
    9     7    10    1
   10    10    11    1
   11    10    12    1
   12    10    13    1
@<TRIPOS>SUBSTRUCTURE
       1 MOL1            1 RESIDUE      1      MOL     
@<SCITEGIC>MOL_PROPERTY
VConf Rank
SciTegic.value.IntegerValue
914

@<SCITEGIC>MOL_PROPERTY
Conf_Id
SciTegic.value.IntegerValue
1

@<SCITEGIC>MOL_PROPERTY
Delta U+W
SciTegic.value.DoubleValue
-1.339

@<SCITEGIC>MOL_PROPERTY
U+W
SciTegic.value.DoubleValue
-59.672

@<SCITEGIC>MOL_PROPERTY
Grad RMS
SciTegic.value.DoubleValue
0.000000

@<SCITEGIC>MOL_PROPERTY
U
SciTegic.value.DoubleValue
7.389

@<SCITEGIC>MOL_PROPERTY
W
SciTegic.value.DoubleValue
-67.061

@<SCITEGIC>MOL_PROPERTY
W(PB)
SciTegic.value.DoubleValue
-68.767

@<SCITEGIC>MOL_PROPERTY
W(SA)
SciTegic.value.DoubleValue
1.707

@<SCITEGIC>MOL_PROPERTY
Valence
SciTegic.value.DoubleValue
5.822

@<SCITEGIC>MOL_PROPERTY
Coulomb
SciTegic.value.DoubleValue
1.255

@<SCITEGIC>MOL_PROPERTY
VdW
SciTegic.value.DoubleValue
0.312

@<SCITEGIC>MOL_PROPERTY
VdW6
SciTegic.value.DoubleValue
-3.061

@<SCITEGIC>MOL_PROPERTY
VdW12
SciTegic.value.DoubleValue
3.372

@<SCITEGIC>MOL_PROPERTY
Bond
SciTegic.value.DoubleValue
0.059

@<SCITEGIC>MOL_PROPERTY
Angle
SciTegic.value.DoubleValue
2.241

@<SCITEGIC>MOL_PROPERTY
Pdih
SciTegic.value.DoubleValue
3.522

@<SCITEGIC>MOL_PROPERTY
Idih
SciTegic.value.DoubleValue
0.000

@<SCITEGIC>MOL_PROPERTY
Tether
SciTegic.value.DoubleValue
0.000

@<TRIPOS>MOLECULE
guest-6_confgen4.mol2 : confsearch ligand conformer 915
          13          12           1
SMALL
USER_CHARGES
 
@<TRIPOS>ATOM
       1    C1      18.901295   18.044052   22.924119 C.2        1 MOL1         0.6021
       2    O1      19.261744   17.613174   24.001393 O.co2      1 MOL1        -0.6904
       3    O2      17.799315   18.515674   22.726333 O.co2      1 MOL1        -0.6904
       4    C2      19.873513   17.954064   21.750483 C.3        1 MOL1        -0.2102
       5    H1      19.309876   18.074710   20.817186 H          1 MOL1         0.0687
       6    H2      20.284105   16.937330   21.743189 H          1 MOL1         0.0687
       7    C3      21.035317   18.978832   21.808805 C.3        1 MOL1        -0.1974
       8    H3      21.567567   18.877287   22.765006 H          1 MOL1         0.0689
       9    H4      21.760826   18.745793   21.017475 H          1 MOL1         0.0689
      10    C4      20.549487   20.432657   21.634767 C.3        1 MOL1        -0.2987
      11    H5      19.854407   20.715165   22.436566 H          1 MOL1         0.0700
      12    H6      21.397229   21.129602   21.661160 H          1 MOL1         0.0700
      13    H7      20.033502   20.561668   20.674294 H          1 MOL1         0.0700
@<TRIPOS>BOND
    1     1     2    1
    2     1     3    2
    3     1     4    1
    4     4     5    1
    5     4     6    1
    6     4     7    1
    7     7     8    1
    8     7     9    1
    9     7    10    1
   10    10    11    1
   11    10    12    1
   12    10    13    1
@<TRIPOS>SUBSTRUCTURE
       1 MOL1            1 RESIDUE      1      MOL     
@<SCITEGIC>MOL_PROPERTY
VConf Rank
SciTegic.value.IntegerValue
915

@<SCITEGIC>MOL_PROPERTY
Conf_Id
SciTegic.value.IntegerValue
4

@<SCITEGIC>MOL_PROPERTY
Delta U+W
SciTegic.value.DoubleValue
0.281

@<SCITEGIC>MOL_PROPERTY
U+W
SciTegic.value.DoubleValue
-58.051

@<SCITEGIC>MOL_PROPERTY
Grad RMS
SciTegic.value.DoubleValue
0.000000

@<SCITEGIC>MOL_PROPERTY
U
SciTegic.value.DoubleValue
9.781

@<SCITEGIC>MOL_PROPERTY
W
SciTegic.value.DoubleValue
-67.832

@<SCITEGIC>MOL_PROPERTY
W(PB)
SciTegic.value.DoubleValue
-69.535

@<SCITEGIC>MOL_PROPERTY
W(SA)
SciTegic.value.DoubleValue
1.703

@<SCITEGIC>MOL_PROPERTY
Valence
SciTegic.value.DoubleValue
6.123

@<SCITEGIC>MOL_PROPERTY
Coulomb
SciTegic.value.DoubleValue
3.449

@<SCITEGIC>MOL_PROPERTY
VdW
SciTegic.value.DoubleValue
0.209

@<SCITEGIC>MOL_PROPERTY
VdW6
SciTegic.value.DoubleValue
-3.762

@<SCITEGIC>MOL_PROPERTY
VdW12
SciTegic.value.DoubleValue
3.972

@<SCITEGIC>MOL_PROPERTY
Bond
SciTegic.value.DoubleValue
0.078

@<SCITEGIC>MOL_PROPERTY
Angle
SciTegic.value.DoubleValue
2.428

@<SCITEGIC>MOL_PROPERTY
Pdih
SciTegic.value.DoubleValue
3.616

@<SCITEGIC>MOL_PROPERTY
Idih
SciTegic.value.DoubleValue
0.002

@<SCITEGIC>MOL_PROPERTY
Tether
SciTegic.value.DoubleValue
0.000

@<TRIPOS>MOLECULE
guest-6_confgen4.mol2 : confsearch ligand conformer 916
          13          12           1
SMALL
USER_CHARGES
 
@<TRIPOS>ATOM
       1    C1      21.088999   17.585326   22.592007 C.2        1 MOL1         0.6021
       2    O1      20.800562   17.352818   23.749007 O.co2      1 MOL1        -0.6904
       3    O2      21.339304   16.719470   21.777306 O.co2      1 MOL1        -0.6904
       4    C2      21.177240   19.042353   22.144783 C.3        1 MOL1        -0.2102
       5    H1      22.121328   19.160505   21.599692 H          1 MOL1         0.0687
       6    H2      21.243609   19.679816   23.035020 H          1 MOL1         0.0687
       7    C3      20.001470   19.502381   21.245185 C.3        1 MOL1        -0.1974
       8    H3      20.220841   20.503809   20.850355 H          1 MOL1         0.0689
       9    H4      19.918005   18.832391   20.377966 H          1 MOL1         0.0689
      10    C4      18.658632   19.542768   22.003525 C.3        1 MOL1        -0.2987
      11    H5      18.713297   20.224561   22.862339 H          1 MOL1         0.0700
      12    H6      17.852520   19.890622   21.344529 H          1 MOL1         0.0700
      13    H7      18.385202   18.546352   22.375304 H          1 MOL1         0.0700
@<TRIPOS>BOND
    1     1     2    1
    2     1     3    2
    3     1     4    1
    4     4     5    1
    5     4     6    1
    6     4     7    1
    7     7     8    1
    8     7     9    1
    9     7    10    1
   10    10    11    1
   11    10    12    1
   12    10    13    1
@<TRIPOS>SUBSTRUCTURE
       1 MOL1            1 RESIDUE      1      MOL     
@<SCITEGIC>MOL_PROPERTY
VConf Rank
SciTegic.value.IntegerValue
916

@<SCITEGIC>MOL_PROPERTY
Conf_Id
SciTegic.value.IntegerValue
36

@<SCITEGIC>MOL_PROPERTY
Delta U+W
SciTegic.value.DoubleValue
0.272

@<SCITEGIC>MOL_PROPERTY
U+W
SciTegic.value.DoubleValue
-58.060

@<SCITEGIC>MOL_PROPERTY
Grad RMS
SciTegic.value.DoubleValue
0.000000

@<SCITEGIC>MOL_PROPERTY
U
SciTegic.value.DoubleValue
9.781

@<SCITEGIC>MOL_PROPERTY
W
SciTegic.value.DoubleValue
-67.841

@<SCITEGIC>MOL_PROPERTY
W(PB)
SciTegic.value.DoubleValue
-69.537

@<SCITEGIC>MOL_PROPERTY
W(SA)
SciTegic.value.DoubleValue
1.696

@<SCITEGIC>MOL_PROPERTY
Valence
SciTegic.value.DoubleValue
6.123

@<SCITEGIC>MOL_PROPERTY
Coulomb
SciTegic.value.DoubleValue
3.449

@<SCITEGIC>MOL_PROPERTY
VdW
SciTegic.value.DoubleValue
0.209

@<SCITEGIC>MOL_PROPERTY
VdW6
SciTegic.value.DoubleValue
-3.762

@<SCITEGIC>MOL_PROPERTY
VdW12
SciTegic.value.DoubleValue
3.972

@<SCITEGIC>MOL_PROPERTY
Bond
SciTegic.value.DoubleValue
0.078

@<SCITEGIC>MOL_PROPERTY
Angle
SciTegic.value.DoubleValue
2.428

@<SCITEGIC>MOL_PROPERTY
Pdih
SciTegic.value.DoubleValue
3.616

@<SCITEGIC>MOL_PROPERTY
Idih
SciTegic.value.DoubleValue
0.002

@<SCITEGIC>MOL_PROPERTY
Tether
SciTegic.value.DoubleValue
0.000

@<TRIPOS>MOLECULE
guest-6_confgen4.mol2 : confsearch ligand conformer 917
          13          12           1
SMALL
USER_CHARGES
 
@<TRIPOS>ATOM
       1    C1      20.214597   16.980815   21.164598 C.2        1 MOL1         0.6021
       2    O1      21.008324   17.125120   20.255476 O.co2      1 MOL1        -0.6904
       3    O2      19.756438   15.900493   21.477313 O.co2      1 MOL1        -0.6904
       4    C2      19.751843   18.196171   21.970483 C.3        1 MOL1        -0.2102
       5    H1      19.992785   18.002824   23.022577 H          1 MOL1         0.0687
       6    H2      18.658868   18.242261   21.895524 H          1 MOL1         0.0687
       7    C3      20.363078   19.553790   21.535491 C.3        1 MOL1        -0.1974
       8    H3      21.458517   19.504524   21.608564 H          1 MOL1         0.0689
       9    H4      20.123023   19.744226   20.480094 H          1 MOL1         0.0689
      10    C4      19.840051   20.717438   22.401632 C.3        1 MOL1        -0.2987
      11    H5      20.094965   20.565832   23.458778 H          1 MOL1         0.0700
      12    H6      20.283166   21.668737   22.079240 H          1 MOL1         0.0700
      13    H7      18.748735   20.807414   22.321279 H          1 MOL1         0.0700
@<TRIPOS>BOND
    1     1     2    1
    2     1     3    2
    3     1     4    1
    4     4     5    1
    5     4     6    1
    6     4     7    1
    7     7     8    1
    8     7     9    1
    9     7    10    1
   10    10    11    1
   11    10    12    1
   12    10    13    1
@<TRIPOS>SUBSTRUCTURE
       1 MOL1            1 RESIDUE      1      MOL     
@<SCITEGIC>MOL_PROPERTY
VConf Rank
SciTegic.value.IntegerValue
917

@<SCITEGIC>MOL_PROPERTY
Conf_Id
SciTegic.value.IntegerValue
0

@<SCITEGIC>MOL_PROPERTY
Delta U+W
SciTegic.value.DoubleValue
0.000

@<SCITEGIC>MOL_PROPERTY
U+W
SciTegic.value.DoubleValue
-58.332

@<SCITEGIC>MOL_PROPERTY
Grad RMS
SciTegic.value.DoubleValue
0.000000

@<SCITEGIC>MOL_PROPERTY
U
SciTegic.value.DoubleValue
8.390

@<SCITEGIC>MOL_PROPERTY
W
SciTegic.value.DoubleValue
-66.722

@<SCITEGIC>MOL_PROPERTY
W(PB)
SciTegic.value.DoubleValue
-68.455

@<SCITEGIC>MOL_PROPERTY
W(SA)
SciTegic.value.DoubleValue
1.733

@<SCITEGIC>MOL_PROPERTY
Valence
SciTegic.value.DoubleValue
6.333

@<SCITEGIC>MOL_PROPERTY
Coulomb
SciTegic.value.DoubleValue
1.215

@<SCITEGIC>MOL_PROPERTY
VdW
SciTegic.value.DoubleValue
0.842

@<SCITEGIC>MOL_PROPERTY
VdW6
SciTegic.value.DoubleValue
-3.344

@<SCITEGIC>MOL_PROPERTY
VdW12
SciTegic.value.DoubleValue
4.186

@<SCITEGIC>MOL_PROPERTY
Bond
SciTegic.value.DoubleValue
0.091

@<SCITEGIC>MOL_PROPERTY
Angle
SciTegic.value.DoubleValue
2.713

@<SCITEGIC>MOL_PROPERTY
Pdih
SciTegic.value.DoubleValue
3.529

@<SCITEGIC>MOL_PROPERTY
Idih
SciTegic.value.DoubleValue
0.000

@<SCITEGIC>MOL_PROPERTY
Tether
SciTegic.value.DoubleValue
0.000

@<TRIPOS>MOLECULE
guest-6_confgen4.mol2 : confsearch ligand conformer 918
          13          12           1
SMALL
USER_CHARGES
 
@<TRIPOS>ATOM
       1    C1      20.715958   17.151123   21.226817 C.2        1 MOL1         0.6021
       2    O1      21.677463   17.161901   20.484690 O.co2      1 MOL1        -0.6904
       3    O2      19.925933   16.230547   21.288135 O.co2      1 MOL1        -0.6904
       4    C2      20.477268   18.366927   22.115831 C.3        1 MOL1        -0.2102
       5    H1      21.452758   18.791105   22.383246 H          1 MOL1         0.0687
       6    H2      20.008359   18.023047   23.045825 H          1 MOL1         0.0687
       7    C3      19.594654   19.444748   21.441187 C.3        1 MOL1        -0.1974
       8    H3      20.069079   19.774344   20.506249 H          1 MOL1         0.0689
       9    H4      18.624379   19.006179   21.169075 H          1 MOL1         0.0689
      10    C4      19.372469   20.659378   22.364550 C.3        1 MOL1        -0.2987
      11    H5      18.745077   21.411965   21.869321 H          1 MOL1         0.0700
      12    H6      18.871752   20.359402   23.294524 H          1 MOL1         0.0700
      13    H7      20.327527   21.133471   22.626574 H          1 MOL1         0.0700
@<TRIPOS>BOND
    1     1     2    1
    2     1     3    2
    3     1     4    1
    4     4     5    1
    5     4     6    1
    6     4     7    1
    7     7     8    1
    8     7     9    1
    9     7    10    1
   10    10    11    1
   11    10    12    1
   12    10    13    1
@<TRIPOS>SUBSTRUCTURE
       1 MOL1            1 RESIDUE      1      MOL     
@<SCITEGIC>MOL_PROPERTY
VConf Rank
SciTegic.value.IntegerValue
918

@<SCITEGIC>MOL_PROPERTY
Conf_Id
SciTegic.value.IntegerValue
1

@<SCITEGIC>MOL_PROPERTY
Delta U+W
SciTegic.value.DoubleValue
-1.339

@<SCITEGIC>MOL_PROPERTY
U+W
SciTegic.value.DoubleValue
-59.672

@<SCITEGIC>MOL_PROPERTY
Grad RMS
SciTegic.value.DoubleValue
0.000000

@<SCITEGIC>MOL_PROPERTY
U
SciTegic.value.DoubleValue
7.389

@<SCITEGIC>MOL_PROPERTY
W
SciTegic.value.DoubleValue
-67.061

@<SCITEGIC>MOL_PROPERTY
W(PB)
SciTegic.value.DoubleValue
-68.767

@<SCITEGIC>MOL_PROPERTY
W(SA)
SciTegic.value.DoubleValue
1.707

@<SCITEGIC>MOL_PROPERTY
Valence
SciTegic.value.DoubleValue
5.822

@<SCITEGIC>MOL_PROPERTY
Coulomb
SciTegic.value.DoubleValue
1.255

@<SCITEGIC>MOL_PROPERTY
VdW
SciTegic.value.DoubleValue
0.312

@<SCITEGIC>MOL_PROPERTY
VdW6
SciTegic.value.DoubleValue
-3.061

@<SCITEGIC>MOL_PROPERTY
VdW12
SciTegic.value.DoubleValue
3.372

@<SCITEGIC>MOL_PROPERTY
Bond
SciTegic.value.DoubleValue
0.059

@<SCITEGIC>MOL_PROPERTY
Angle
SciTegic.value.DoubleValue
2.241

@<SCITEGIC>MOL_PROPERTY
Pdih
SciTegic.value.DoubleValue
3.522

@<SCITEGIC>MOL_PROPERTY
Idih
SciTegic.value.DoubleValue
0.000

@<SCITEGIC>MOL_PROPERTY
Tether
SciTegic.value.DoubleValue
0.000

@<TRIPOS>MOLECULE
guest-6_confgen4.mol2 : confsearch ligand conformer 919
          13          12           1
SMALL
USER_CHARGES
 
@<TRIPOS>ATOM
       1    C1      20.619816   17.550859   22.976130 C.2        1 MOL1         0.6021
       2    O1      21.692893   17.639885   23.538872 O.co2      1 MOL1        -0.6904
       3    O2      19.638891   17.042591   23.481457 O.co2      1 MOL1        -0.6904
       4    C2      20.510963   18.073648   21.545896 C.3        1 MOL1        -0.2102
       5    H1      19.615639   17.642534   21.081329 H          1 MOL1         0.0687
       6    H2      21.373448   17.687138   20.989913 H          1 MOL1         0.0687
       7    C3      20.477584   19.619668   21.436133 C.3        1 MOL1        -0.1974
       8    H3      21.357477   20.043208   21.940437 H          1 MOL1         0.0689
       9    H4      20.551299   19.907048   20.378375 H          1 MOL1         0.0689
      10    C4      19.191683   20.226400   22.034685 C.3        1 MOL1        -0.2987
      11    H5      19.107553   19.995739   23.104986 H          1 MOL1         0.0700
      12    H6      19.190966   21.318490   21.923173 H          1 MOL1         0.0700
      13    H7      18.299972   19.832802   21.529390 H          1 MOL1         0.0700
@<TRIPOS>BOND
    1     1     2    1
    2     1     3    2
    3     1     4    1
    4     4     5    1
    5     4     6    1
    6     4     7    1
    7     7     8    1
    8     7     9    1
    9     7    10    1
   10    10    11    1
   11    10    12    1
   12    10    13    1
@<TRIPOS>SUBSTRUCTURE
       1 MOL1            1 RESIDUE      1      MOL     
@<SCITEGIC>MOL_PROPERTY
VConf Rank
SciTegic.value.IntegerValue
919

@<SCITEGIC>MOL_PROPERTY
Conf_Id
SciTegic.value.IntegerValue
4

@<SCITEGIC>MOL_PROPERTY
Delta U+W
SciTegic.value.DoubleValue
0.281

@<SCITEGIC>MOL_PROPERTY
U+W
SciTegic.value.DoubleValue
-58.051

@<SCITEGIC>MOL_PROPERTY
Grad RMS
SciTegic.value.DoubleValue
0.000000

@<SCITEGIC>MOL_PROPERTY
U
SciTegic.value.DoubleValue
9.781

@<SCITEGIC>MOL_PROPERTY
W
SciTegic.value.DoubleValue
-67.832

@<SCITEGIC>MOL_PROPERTY
W(PB)
SciTegic.value.DoubleValue
-69.535

@<SCITEGIC>MOL_PROPERTY
W(SA)
SciTegic.value.DoubleValue
1.703

@<SCITEGIC>MOL_PROPERTY
Valence
SciTegic.value.DoubleValue
6.123

@<SCITEGIC>MOL_PROPERTY
Coulomb
SciTegic.value.DoubleValue
3.449

@<SCITEGIC>MOL_PROPERTY
VdW
SciTegic.value.DoubleValue
0.209

@<SCITEGIC>MOL_PROPERTY
VdW6
SciTegic.value.DoubleValue
-3.762

@<SCITEGIC>MOL_PROPERTY
VdW12
SciTegic.value.DoubleValue
3.972

@<SCITEGIC>MOL_PROPERTY
Bond
SciTegic.value.DoubleValue
0.078

@<SCITEGIC>MOL_PROPERTY
Angle
SciTegic.value.DoubleValue
2.428

@<SCITEGIC>MOL_PROPERTY
Pdih
SciTegic.value.DoubleValue
3.616

@<SCITEGIC>MOL_PROPERTY
Idih
SciTegic.value.DoubleValue
0.002

@<SCITEGIC>MOL_PROPERTY
Tether
SciTegic.value.DoubleValue
0.000

@<TRIPOS>MOLECULE
guest-6_confgen4.mol2 : confsearch ligand conformer 920
          13          12           1
SMALL
USER_CHARGES
 
@<TRIPOS>ATOM
       1    C1      18.826104   18.535368   20.831679 C.2        1 MOL1         0.6021
       2    O1      19.324855   18.218383   19.770230 O.co2      1 MOL1        -0.6904
       3    O2      17.845717   17.991514   21.299825 O.co2      1 MOL1        -0.6904
       4    C2      19.440024   19.701376   21.602556 C.3        1 MOL1        -0.2102
       5    H1      18.619991   20.368144   21.894707 H          1 MOL1         0.0687
       6    H2      20.084871   20.271541   20.922578 H          1 MOL1         0.0687
       7    C3      20.235650   19.279184   22.864329 C.3        1 MOL1        -0.1974
       8    H3      20.509794   20.177480   23.434226 H          1 MOL1         0.0689
       9    H4      19.592899   18.673940   23.518908 H          1 MOL1         0.0689
      10    C4      21.516242   18.491465   22.518630 C.3        1 MOL1        -0.2987
      11    H5      22.183766   19.087316   21.882419 H          1 MOL1         0.0700
      12    H6      22.065054   18.225479   23.431401 H          1 MOL1         0.0700
      13    H7      21.276042   17.561984   21.985530 H          1 MOL1         0.0700
@<TRIPOS>BOND
    1     1     2    1
    2     1     3    2
    3     1     4    1
    4     4     5    1
    5     4     6    1
    6     4     7    1
    7     7     8    1
    8     7     9    1
    9     7    10    1
   10    10    11    1
   11    10    12    1
   12    10    13    1
@<TRIPOS>SUBSTRUCTURE
       1 MOL1            1 RESIDUE      1      MOL     
@<SCITEGIC>MOL_PROPERTY
VConf Rank
SciTegic.value.IntegerValue
920

@<SCITEGIC>MOL_PROPERTY
Conf_Id
SciTegic.value.IntegerValue
36

@<SCITEGIC>MOL_PROPERTY
Delta U+W
SciTegic.value.DoubleValue
0.272

@<SCITEGIC>MOL_PROPERTY
U+W
SciTegic.value.DoubleValue
-58.060

@<SCITEGIC>MOL_PROPERTY
Grad RMS
SciTegic.value.DoubleValue
0.000000

@<SCITEGIC>MOL_PROPERTY
U
SciTegic.value.DoubleValue
9.781

@<SCITEGIC>MOL_PROPERTY
W
SciTegic.value.DoubleValue
-67.841

@<SCITEGIC>MOL_PROPERTY
W(PB)
SciTegic.value.DoubleValue
-69.537

@<SCITEGIC>MOL_PROPERTY
W(SA)
SciTegic.value.DoubleValue
1.696

@<SCITEGIC>MOL_PROPERTY
Valence
SciTegic.value.DoubleValue
6.123

@<SCITEGIC>MOL_PROPERTY
Coulomb
SciTegic.value.DoubleValue
3.449

@<SCITEGIC>MOL_PROPERTY
VdW
SciTegic.value.DoubleValue
0.209

@<SCITEGIC>MOL_PROPERTY
VdW6
SciTegic.value.DoubleValue
-3.762

@<SCITEGIC>MOL_PROPERTY
VdW12
SciTegic.value.DoubleValue
3.972

@<SCITEGIC>MOL_PROPERTY
Bond
SciTegic.value.DoubleValue
0.078

@<SCITEGIC>MOL_PROPERTY
Angle
SciTegic.value.DoubleValue
2.428

@<SCITEGIC>MOL_PROPERTY
Pdih
SciTegic.value.DoubleValue
3.616

@<SCITEGIC>MOL_PROPERTY
Idih
SciTegic.value.DoubleValue
0.002

@<SCITEGIC>MOL_PROPERTY
Tether
SciTegic.value.DoubleValue
0.000

@<TRIPOS>MOLECULE
guest-6_confgen4.mol2 : confsearch ligand conformer 921
          13          12           1
SMALL
USER_CHARGES
 
@<TRIPOS>ATOM
       1    C1      19.371862   18.066873   23.624177 C.2        1 MOL1         0.6021
       2    O1      18.315765   17.594180   23.251954 O.co2      1 MOL1        -0.6904
       3    O2      19.789320   17.942122   24.757738 O.co2      1 MOL1        -0.6904
       4    C2      20.237502   18.860775   22.643835 C.3        1 MOL1        -0.2102
       5    H1      21.219565   18.374523   22.605780 H          1 MOL1         0.0687
       6    H2      20.390200   19.857566   23.074450 H          1 MOL1         0.0687
       7    C3      19.664440   18.993850   21.208618 C.3        1 MOL1        -0.1974
       8    H3      19.509434   17.993839   20.780008 H          1 MOL1         0.0689
       9    H4      18.679006   19.478642   21.249260 H          1 MOL1         0.0689
      10    C4      20.602313   19.807416   20.294103 C.3        1 MOL1        -0.2987
      11    H5      21.585780   19.326186   20.212049 H          1 MOL1         0.0700
      12    H6      20.180486   19.890774   19.283969 H          1 MOL1         0.0700
      13    H7      20.748719   20.822898   20.685110 H          1 MOL1         0.0700
@<TRIPOS>BOND
    1     1     2    1
    2     1     3    2
    3     1     4    1
    4     4     5    1
    5     4     6    1
    6     4     7    1
    7     7     8    1
    8     7     9    1
    9     7    10    1
   10    10    11    1
   11    10    12    1
   12    10    13    1
@<TRIPOS>SUBSTRUCTURE
       1 MOL1            1 RESIDUE      1      MOL     
@<SCITEGIC>MOL_PROPERTY
VConf Rank
SciTegic.value.IntegerValue
921

@<SCITEGIC>MOL_PROPERTY
Conf_Id
SciTegic.value.IntegerValue
0

@<SCITEGIC>MOL_PROPERTY
Delta U+W
SciTegic.value.DoubleValue
0.000

@<SCITEGIC>MOL_PROPERTY
U+W
SciTegic.value.DoubleValue
-58.332

@<SCITEGIC>MOL_PROPERTY
Grad RMS
SciTegic.value.DoubleValue
0.000000

@<SCITEGIC>MOL_PROPERTY
U
SciTegic.value.DoubleValue
8.390

@<SCITEGIC>MOL_PROPERTY
W
SciTegic.value.DoubleValue
-66.722

@<SCITEGIC>MOL_PROPERTY
W(PB)
SciTegic.value.DoubleValue
-68.455

@<SCITEGIC>MOL_PROPERTY
W(SA)
SciTegic.value.DoubleValue
1.733

@<SCITEGIC>MOL_PROPERTY
Valence
SciTegic.value.DoubleValue
6.333

@<SCITEGIC>MOL_PROPERTY
Coulomb
SciTegic.value.DoubleValue
1.215

@<SCITEGIC>MOL_PROPERTY
VdW
SciTegic.value.DoubleValue
0.842

@<SCITEGIC>MOL_PROPERTY
VdW6
SciTegic.value.DoubleValue
-3.344

@<SCITEGIC>MOL_PROPERTY
VdW12
SciTegic.value.DoubleValue
4.186

@<SCITEGIC>MOL_PROPERTY
Bond
SciTegic.value.DoubleValue
0.091

@<SCITEGIC>MOL_PROPERTY
Angle
SciTegic.value.DoubleValue
2.713

@<SCITEGIC>MOL_PROPERTY
Pdih
SciTegic.value.DoubleValue
3.529

@<SCITEGIC>MOL_PROPERTY
Idih
SciTegic.value.DoubleValue
0.000

@<SCITEGIC>MOL_PROPERTY
Tether
SciTegic.value.DoubleValue
0.000

@<TRIPOS>MOLECULE
guest-6_confgen4.mol2 : confsearch ligand conformer 922
          13          12           1
SMALL
USER_CHARGES
 
@<TRIPOS>ATOM
       1    C1      18.100694   18.574762   22.654715 C.2        1 MOL1         0.6021
       2    O1      18.111434   17.990841   23.719741 O.co2      1 MOL1        -0.6904
       3    O2      17.174910   18.522537   21.870140 O.co2      1 MOL1        -0.6904
       4    C2      19.323235   19.402864   22.273744 C.3        1 MOL1        -0.2102
       5    H1      19.757216   19.813928   23.193367 H          1 MOL1         0.0687
       6    H2      18.984895   20.252410   21.668091 H          1 MOL1         0.0687
       7    C3      20.387892   18.587863   21.500356 C.3        1 MOL1        -0.1974
       8    H3      20.711941   17.734443   22.112309 H          1 MOL1         0.0689
       9    H4      19.939514   18.173123   20.586698 H          1 MOL1         0.0689
      10    C4      21.609714   19.452470   21.130361 C.3        1 MOL1        -0.2987
      11    H5      22.352793   18.857807   20.583122 H          1 MOL1         0.0700
      12    H6      21.315038   20.296588   20.493033 H          1 MOL1         0.0700
      13    H7      22.093402   19.854502   22.030346 H          1 MOL1         0.0700
@<TRIPOS>BOND
    1     1     2    1
    2     1     3    2
    3     1     4    1
    4     4     5    1
    5     4     6    1
    6     4     7    1
    7     7     8    1
    8     7     9    1
    9     7    10    1
   10    10    11    1
   11    10    12    1
   12    10    13    1
@<TRIPOS>SUBSTRUCTURE
       1 MOL1            1 RESIDUE      1      MOL     
@<SCITEGIC>MOL_PROPERTY
VConf Rank
SciTegic.value.IntegerValue
922

@<SCITEGIC>MOL_PROPERTY
Conf_Id
SciTegic.value.IntegerValue
1

@<SCITEGIC>MOL_PROPERTY
Delta U+W
SciTegic.value.DoubleValue
-1.339

@<SCITEGIC>MOL_PROPERTY
U+W
SciTegic.value.DoubleValue
-59.672

@<SCITEGIC>MOL_PROPERTY
Grad RMS
SciTegic.value.DoubleValue
0.000000

@<SCITEGIC>MOL_PROPERTY
U
SciTegic.value.DoubleValue
7.389

@<SCITEGIC>MOL_PROPERTY
W
SciTegic.value.DoubleValue
-67.061

@<SCITEGIC>MOL_PROPERTY
W(PB)
SciTegic.value.DoubleValue
-68.767

@<SCITEGIC>MOL_PROPERTY
W(SA)
SciTegic.value.DoubleValue
1.707

@<SCITEGIC>MOL_PROPERTY
Valence
SciTegic.value.DoubleValue
5.822

@<SCITEGIC>MOL_PROPERTY
Coulomb
SciTegic.value.DoubleValue
1.255

@<SCITEGIC>MOL_PROPERTY
VdW
SciTegic.value.DoubleValue
0.312

@<SCITEGIC>MOL_PROPERTY
VdW6
SciTegic.value.DoubleValue
-3.061

@<SCITEGIC>MOL_PROPERTY
VdW12
SciTegic.value.DoubleValue
3.372

@<SCITEGIC>MOL_PROPERTY
Bond
SciTegic.value.DoubleValue
0.059

@<SCITEGIC>MOL_PROPERTY
Angle
SciTegic.value.DoubleValue
2.241

@<SCITEGIC>MOL_PROPERTY
Pdih
SciTegic.value.DoubleValue
3.522

@<SCITEGIC>MOL_PROPERTY
Idih
SciTegic.value.DoubleValue
0.000

@<SCITEGIC>MOL_PROPERTY
Tether
SciTegic.value.DoubleValue
0.000

@<TRIPOS>MOLECULE
guest-6_confgen4.mol2 : confsearch ligand conformer 923
          13          12           1
SMALL
USER_CHARGES
 
@<TRIPOS>ATOM
       1    C1      18.864813   20.209686   21.715005 C.2        1 MOL1         0.6021
       2    O1      19.263354   21.307640   21.380699 O.co2      1 MOL1        -0.6904
       3    O2      17.874252   19.685532   21.246010 O.co2      1 MOL1        -0.6904
       4    C2      19.630398   19.467401   22.807534 C.3        1 MOL1        -0.2102
       5    H1      18.987451   18.675579   23.211174 H          1 MOL1         0.0687
       6    H2      19.807331   20.178258   23.623478 H          1 MOL1         0.0687
       7    C3      20.983131   18.870834   22.341100 C.3        1 MOL1        -0.1974
       8    H3      21.602869   19.664640   21.900963 H          1 MOL1         0.0689
       9    H4      21.529856   18.491774   23.215330 H          1 MOL1         0.0689
      10    C4      20.803661   17.725341   21.323472 C.3        1 MOL1        -0.2987
      11    H5      20.298433   18.079830   20.415227 H          1 MOL1         0.0700
      12    H6      21.777619   17.312976   21.029437 H          1 MOL1         0.0700
      13    H7      20.205017   16.910516   21.751347 H          1 MOL1         0.0700
@<TRIPOS>BOND
    1     1     2    1
    2     1     3    2
    3     1     4    1
    4     4     5    1
    5     4     6    1
    6     4     7    1
    7     7     8    1
    8     7     9    1
    9     7    10    1
   10    10    11    1
   11    10    12    1
   12    10    13    1
@<TRIPOS>SUBSTRUCTURE
       1 MOL1            1 RESIDUE      1      MOL     
@<SCITEGIC>MOL_PROPERTY
VConf Rank
SciTegic.value.IntegerValue
923

@<SCITEGIC>MOL_PROPERTY
Conf_Id
SciTegic.value.IntegerValue
4

@<SCITEGIC>MOL_PROPERTY
Delta U+W
SciTegic.value.DoubleValue
0.281

@<SCITEGIC>MOL_PROPERTY
U+W
SciTegic.value.DoubleValue
-58.051

@<SCITEGIC>MOL_PROPERTY
Grad RMS
SciTegic.value.DoubleValue
0.000000

@<SCITEGIC>MOL_PROPERTY
U
SciTegic.value.DoubleValue
9.781

@<SCITEGIC>MOL_PROPERTY
W
SciTegic.value.DoubleValue
-67.832

@<SCITEGIC>MOL_PROPERTY
W(PB)
SciTegic.value.DoubleValue
-69.535

@<SCITEGIC>MOL_PROPERTY
W(SA)
SciTegic.value.DoubleValue
1.703

@<SCITEGIC>MOL_PROPERTY
Valence
SciTegic.value.DoubleValue
6.123

@<SCITEGIC>MOL_PROPERTY
Coulomb
SciTegic.value.DoubleValue
3.449

@<SCITEGIC>MOL_PROPERTY
VdW
SciTegic.value.DoubleValue
0.209

@<SCITEGIC>MOL_PROPERTY
VdW6
SciTegic.value.DoubleValue
-3.762

@<SCITEGIC>MOL_PROPERTY
VdW12
SciTegic.value.DoubleValue
3.972

@<SCITEGIC>MOL_PROPERTY
Bond
SciTegic.value.DoubleValue
0.078

@<SCITEGIC>MOL_PROPERTY
Angle
SciTegic.value.DoubleValue
2.428

@<SCITEGIC>MOL_PROPERTY
Pdih
SciTegic.value.DoubleValue
3.616

@<SCITEGIC>MOL_PROPERTY
Idih
SciTegic.value.DoubleValue
0.002

@<SCITEGIC>MOL_PROPERTY
Tether
SciTegic.value.DoubleValue
0.000

@<TRIPOS>MOLECULE
guest-6_confgen4.mol2 : confsearch ligand conformer 924
          13          12           1
SMALL
USER_CHARGES
 
@<TRIPOS>ATOM
       1    C1      21.404278   18.016116   22.801520 C.2        1 MOL1         0.6021
       2    O1      21.399507   18.250737   23.993508 O.co2      1 MOL1        -0.6904
       3    O2      21.623094   16.915163   22.336634 O.co2      1 MOL1        -0.6904
       4    C2      21.158073   19.170780   21.833605 C.3        1 MOL1        -0.2102
       5    H1      21.938898   19.125403   21.065074 H          1 MOL1         0.0687
       6    H2      21.297929   20.116364   22.371748 H          1 MOL1         0.0687
       7    C3      19.764515   19.143794   21.154926 C.3        1 MOL1        -0.1974
       8    H3      19.730701   19.913351   20.371657 H          1 MOL1         0.0689
       9    H4      19.618208   18.176623   20.653831 H          1 MOL1         0.0689
      10    C4      18.616048   19.391604   22.154696 C.3        1 MOL1        -0.2987
      11    H5      18.730904   20.364105   22.651124 H          1 MOL1         0.0700
      12    H6      17.646678   19.385657   21.639544 H          1 MOL1         0.0700
      13    H7      18.592176   18.613479   22.929150 H          1 MOL1         0.0700
@<TRIPOS>BOND
    1     1     2    1
    2     1     3    2
    3     1     4    1
    4     4     5    1
    5     4     6    1
    6     4     7    1
    7     7     8    1
    8     7     9    1
    9     7    10    1
   10    10    11    1
   11    10    12    1
   12    10    13    1
@<TRIPOS>SUBSTRUCTURE
       1 MOL1            1 RESIDUE      1      MOL     
@<SCITEGIC>MOL_PROPERTY
VConf Rank
SciTegic.value.IntegerValue
924

@<SCITEGIC>MOL_PROPERTY
Conf_Id
SciTegic.value.IntegerValue
36

@<SCITEGIC>MOL_PROPERTY
Delta U+W
SciTegic.value.DoubleValue
0.272

@<SCITEGIC>MOL_PROPERTY
U+W
SciTegic.value.DoubleValue
-58.060

@<SCITEGIC>MOL_PROPERTY
Grad RMS
SciTegic.value.DoubleValue
0.000000

@<SCITEGIC>MOL_PROPERTY
U
SciTegic.value.DoubleValue
9.781

@<SCITEGIC>MOL_PROPERTY
W
SciTegic.value.DoubleValue
-67.841

@<SCITEGIC>MOL_PROPERTY
W(PB)
SciTegic.value.DoubleValue
-69.537

@<SCITEGIC>MOL_PROPERTY
W(SA)
SciTegic.value.DoubleValue
1.696

@<SCITEGIC>MOL_PROPERTY
Valence
SciTegic.value.DoubleValue
6.123

@<SCITEGIC>MOL_PROPERTY
Coulomb
SciTegic.value.DoubleValue
3.449

@<SCITEGIC>MOL_PROPERTY
VdW
SciTegic.value.DoubleValue
0.209

@<SCITEGIC>MOL_PROPERTY
VdW6
SciTegic.value.DoubleValue
-3.762

@<SCITEGIC>MOL_PROPERTY
VdW12
SciTegic.value.DoubleValue
3.972

@<SCITEGIC>MOL_PROPERTY
Bond
SciTegic.value.DoubleValue
0.078

@<SCITEGIC>MOL_PROPERTY
Angle
SciTegic.value.DoubleValue
2.428

@<SCITEGIC>MOL_PROPERTY
Pdih
SciTegic.value.DoubleValue
3.616

@<SCITEGIC>MOL_PROPERTY
Idih
SciTegic.value.DoubleValue
0.002

@<SCITEGIC>MOL_PROPERTY
Tether
SciTegic.value.DoubleValue
0.000

@<TRIPOS>MOLECULE
guest-6_confgen4.mol2 : confsearch ligand conformer 925
          13          12           1
SMALL
USER_CHARGES
 
@<TRIPOS>ATOM
       1    C1      21.979497   18.175613   22.014533 C.2        1 MOL1         0.6021
       2    O1      22.651301   19.147077   21.727713 O.co2      1 MOL1        -0.6904
       3    O2      22.462542   17.100605   22.307488 O.co2      1 MOL1        -0.6904
       4    C2      20.453111   18.279669   22.015305 C.3        1 MOL1        -0.2102
       5    H1      20.106003   17.998965   23.016833 H          1 MOL1         0.0687
       6    H2      20.072603   17.521622   21.320383 H          1 MOL1         0.0687
       7    C3      19.881740   19.670704   21.635155 C.3        1 MOL1        -0.1974
       8    H3      20.266559   20.429337   22.330960 H          1 MOL1         0.0689
       9    H4      20.233181   19.951446   20.632445 H          1 MOL1         0.0689
      10    C4      18.339993   19.680010   21.662827 C.3        1 MOL1        -0.2987
      11    H5      17.963477   19.432444   22.664062 H          1 MOL1         0.0700
      12    H6      17.954545   20.671482   21.391408 H          1 MOL1         0.0700
      13    H7      17.929842   18.950670   20.951939 H          1 MOL1         0.0700
@<TRIPOS>BOND
    1     1     2    1
    2     1     3    2
    3     1     4    1
    4     4     5    1
    5     4     6    1
    6     4     7    1
    7     7     8    1
    8     7     9    1
    9     7    10    1
   10    10    11    1
   11    10    12    1
   12    10    13    1
@<TRIPOS>SUBSTRUCTURE
       1 MOL1            1 RESIDUE      1      MOL     
@<SCITEGIC>MOL_PROPERTY
VConf Rank
SciTegic.value.IntegerValue
925

@<SCITEGIC>MOL_PROPERTY
Conf_Id
SciTegic.value.IntegerValue
0

@<SCITEGIC>MOL_PROPERTY
Delta U+W
SciTegic.value.DoubleValue
0.000

@<SCITEGIC>MOL_PROPERTY
U+W
SciTegic.value.DoubleValue
-58.332

@<SCITEGIC>MOL_PROPERTY
Grad RMS
SciTegic.value.DoubleValue
0.000000

@<SCITEGIC>MOL_PROPERTY
U
SciTegic.value.DoubleValue
8.390

@<SCITEGIC>MOL_PROPERTY
W
SciTegic.value.DoubleValue
-66.722

@<SCITEGIC>MOL_PROPERTY
W(PB)
SciTegic.value.DoubleValue
-68.455

@<SCITEGIC>MOL_PROPERTY
W(SA)
SciTegic.value.DoubleValue
1.733

@<SCITEGIC>MOL_PROPERTY
Valence
SciTegic.value.DoubleValue
6.333

@<SCITEGIC>MOL_PROPERTY
Coulomb
SciTegic.value.DoubleValue
1.215

@<SCITEGIC>MOL_PROPERTY
VdW
SciTegic.value.DoubleValue
0.842

@<SCITEGIC>MOL_PROPERTY
VdW6
SciTegic.value.DoubleValue
-3.344

@<SCITEGIC>MOL_PROPERTY
VdW12
SciTegic.value.DoubleValue
4.186

@<SCITEGIC>MOL_PROPERTY
Bond
SciTegic.value.DoubleValue
0.091

@<SCITEGIC>MOL_PROPERTY
Angle
SciTegic.value.DoubleValue
2.713

@<SCITEGIC>MOL_PROPERTY
Pdih
SciTegic.value.DoubleValue
3.529

@<SCITEGIC>MOL_PROPERTY
Idih
SciTegic.value.DoubleValue
0.000

@<SCITEGIC>MOL_PROPERTY
Tether
SciTegic.value.DoubleValue
0.000

@<TRIPOS>MOLECULE
guest-6_confgen4.mol2 : confsearch ligand conformer 926
          13          12           1
SMALL
USER_CHARGES
 
@<TRIPOS>ATOM
       1    C1      21.821902   20.058640   21.579497 C.2        1 MOL1         0.6021
       2    O1      22.081701   20.903991   22.412112 O.co2      1 MOL1        -0.6904
       3    O2      22.280731   20.061186   20.454851 O.co2      1 MOL1        -0.6904
       4    C2      20.852798   18.944613   21.960655 C.3        1 MOL1        -0.2102
       5    H1      20.978920   18.733276   23.029509 H          1 MOL1         0.0687
       6    H2      21.143069   18.038241   21.415447 H          1 MOL1         0.0687
       7    C3      19.376561   19.298308   21.658211 C.3        1 MOL1        -0.1974
       8    H3      19.100082   20.212748   22.201515 H          1 MOL1         0.0689
       9    H4      19.264242   19.517453   20.587145 H          1 MOL1         0.0689
      10    C4      18.423303   18.153089   22.054522 C.3        1 MOL1        -0.2987
      11    H5      17.382318   18.422206   21.832741 H          1 MOL1         0.0700
      12    H6      18.661245   17.234861   21.501533 H          1 MOL1         0.0700
      13    H7      18.495803   17.935526   23.128285 H          1 MOL1         0.0700
@<TRIPOS>BOND
    1     1     2    1
    2     1     3    2
    3     1     4    1
    4     4     5    1
    5     4     6    1
    6     4     7    1
    7     7     8    1
    8     7     9    1
    9     7    10    1
   10    10    11    1
   11    10    12    1
   12    10    13    1
@<TRIPOS>SUBSTRUCTURE
       1 MOL1            1 RESIDUE      1      MOL     
@<SCITEGIC>MOL_PROPERTY
VConf Rank
SciTegic.value.IntegerValue
926

@<SCITEGIC>MOL_PROPERTY
Conf_Id
SciTegic.value.IntegerValue
1

@<SCITEGIC>MOL_PROPERTY
Delta U+W
SciTegic.value.DoubleValue
-1.339

@<SCITEGIC>MOL_PROPERTY
U+W
SciTegic.value.DoubleValue
-59.672

@<SCITEGIC>MOL_PROPERTY
Grad RMS
SciTegic.value.DoubleValue
0.000000

@<SCITEGIC>MOL_PROPERTY
U
SciTegic.value.DoubleValue
7.389

@<SCITEGIC>MOL_PROPERTY
W
SciTegic.value.DoubleValue
-67.061

@<SCITEGIC>MOL_PROPERTY
W(PB)
SciTegic.value.DoubleValue
-68.767

@<SCITEGIC>MOL_PROPERTY
W(SA)
SciTegic.value.DoubleValue
1.707

@<SCITEGIC>MOL_PROPERTY
Valence
SciTegic.value.DoubleValue
5.822

@<SCITEGIC>MOL_PROPERTY
Coulomb
SciTegic.value.DoubleValue
1.255

@<SCITEGIC>MOL_PROPERTY
VdW
SciTegic.value.DoubleValue
0.312

@<SCITEGIC>MOL_PROPERTY
VdW6
SciTegic.value.DoubleValue
-3.061

@<SCITEGIC>MOL_PROPERTY
VdW12
SciTegic.value.DoubleValue
3.372

@<SCITEGIC>MOL_PROPERTY
Bond
SciTegic.value.DoubleValue
0.059

@<SCITEGIC>MOL_PROPERTY
Angle
SciTegic.value.DoubleValue
2.241

@<SCITEGIC>MOL_PROPERTY
Pdih
SciTegic.value.DoubleValue
3.522

@<SCITEGIC>MOL_PROPERTY
Idih
SciTegic.value.DoubleValue
0.000

@<SCITEGIC>MOL_PROPERTY
Tether
SciTegic.value.DoubleValue
0.000

@<TRIPOS>MOLECULE
guest-6_confgen4.mol2 : confsearch ligand conformer 927
          13          12           1
SMALL
USER_CHARGES
 
@<TRIPOS>ATOM
       1    C1      20.122428   17.189129   21.779151 C.2        1 MOL1         0.6021
       2    O1      20.900132   16.751604   20.954622 O.co2      1 MOL1        -0.6904
       3    O2      19.901963   16.648663   22.844607 O.co2      1 MOL1        -0.6904
       4    C2      19.356804   18.465887   21.440868 C.3        1 MOL1        -0.2102
       5    H1      18.493311   18.546274   22.112586 H          1 MOL1         0.0687
       6    H2      18.958566   18.349178   20.425894 H          1 MOL1         0.0687
       7    C3      20.211981   19.756888   21.513854 C.3        1 MOL1        -0.1974
       8    H3      21.095693   19.649522   20.869301 H          1 MOL1         0.0689
       9    H4      19.629369   20.597646   21.113149 H          1 MOL1         0.0689
      10    C4      20.654572   20.091268   22.953379 C.3        1 MOL1        -0.2987
      11    H5      21.278128   19.289567   23.370848 H          1 MOL1         0.0700
      12    H6      21.240190   21.019596   22.972260 H          1 MOL1         0.0700
      13    H7      19.785048   20.224786   23.610259 H          1 MOL1         0.0700
@<TRIPOS>BOND
    1     1     2    1
    2     1     3    2
    3     1     4    1
    4     4     5    1
    5     4     6    1
    6     4     7    1
    7     7     8    1
    8     7     9    1
    9     7    10    1
   10    10    11    1
   11    10    12    1
   12    10    13    1
@<TRIPOS>SUBSTRUCTURE
       1 MOL1            1 RESIDUE      1      MOL     
@<SCITEGIC>MOL_PROPERTY
VConf Rank
SciTegic.value.IntegerValue
927

@<SCITEGIC>MOL_PROPERTY
Conf_Id
SciTegic.value.IntegerValue
4

@<SCITEGIC>MOL_PROPERTY
Delta U+W
SciTegic.value.DoubleValue
0.281

@<SCITEGIC>MOL_PROPERTY
U+W
SciTegic.value.DoubleValue
-58.051

@<SCITEGIC>MOL_PROPERTY
Grad RMS
SciTegic.value.DoubleValue
0.000000

@<SCITEGIC>MOL_PROPERTY
U
SciTegic.value.DoubleValue
9.781

@<SCITEGIC>MOL_PROPERTY
W
SciTegic.value.DoubleValue
-67.832

@<SCITEGIC>MOL_PROPERTY
W(PB)
SciTegic.value.DoubleValue
-69.535

@<SCITEGIC>MOL_PROPERTY
W(SA)
SciTegic.value.DoubleValue
1.703

@<SCITEGIC>MOL_PROPERTY
Valence
SciTegic.value.DoubleValue
6.123

@<SCITEGIC>MOL_PROPERTY
Coulomb
SciTegic.value.DoubleValue
3.449

@<SCITEGIC>MOL_PROPERTY
VdW
SciTegic.value.DoubleValue
0.209

@<SCITEGIC>MOL_PROPERTY
VdW6
SciTegic.value.DoubleValue
-3.762

@<SCITEGIC>MOL_PROPERTY
VdW12
SciTegic.value.DoubleValue
3.972

@<SCITEGIC>MOL_PROPERTY
Bond
SciTegic.value.DoubleValue
0.078

@<SCITEGIC>MOL_PROPERTY
Angle
SciTegic.value.DoubleValue
2.428

@<SCITEGIC>MOL_PROPERTY
Pdih
SciTegic.value.DoubleValue
3.616

@<SCITEGIC>MOL_PROPERTY
Idih
SciTegic.value.DoubleValue
0.002

@<SCITEGIC>MOL_PROPERTY
Tether
SciTegic.value.DoubleValue
0.000

@<TRIPOS>MOLECULE
guest-6_confgen4.mol2 : confsearch ligand conformer 928
          13          12           1
SMALL
USER_CHARGES
 
@<TRIPOS>ATOM
       1    C1      21.205117   19.288106   23.383879 C.2        1 MOL1         0.6021
       2    O1      20.570631   19.784715   24.293117 O.co2      1 MOL1        -0.6904
       3    O2      22.103030   18.487353   23.553127 O.co2      1 MOL1        -0.6904
       4    C2      20.883267   19.718041   21.954791 C.3        1 MOL1        -0.2102
       5    H1      21.833785   19.958138   21.463615 H          1 MOL1         0.0687
       6    H2      20.301363   20.647254   21.989964 H          1 MOL1         0.0687
       7    C3      20.129873   18.647418   21.124428 C.3        1 MOL1        -0.1974
       8    H3      20.074641   18.976849   20.077864 H          1 MOL1         0.0689
       9    H4      20.701137   17.708512   21.130157 H          1 MOL1         0.0689
      10    C4      18.701547   18.391455   21.648159 C.3        1 MOL1        -0.2987
      11    H5      18.105795   19.313485   21.629982 H          1 MOL1         0.0700
      12    H6      18.190030   17.644325   21.027480 H          1 MOL1         0.0700
      13    H7      18.720795   18.017523   22.680453 H          1 MOL1         0.0700
@<TRIPOS>BOND
    1     1     2    1
    2     1     3    2
    3     1     4    1
    4     4     5    1
    5     4     6    1
    6     4     7    1
    7     7     8    1
    8     7     9    1
    9     7    10    1
   10    10    11    1
   11    10    12    1
   12    10    13    1
@<TRIPOS>SUBSTRUCTURE
       1 MOL1            1 RESIDUE      1      MOL     
@<SCITEGIC>MOL_PROPERTY
VConf Rank
SciTegic.value.IntegerValue
928

@<SCITEGIC>MOL_PROPERTY
Conf_Id
SciTegic.value.IntegerValue
36

@<SCITEGIC>MOL_PROPERTY
Delta U+W
SciTegic.value.DoubleValue
0.272

@<SCITEGIC>MOL_PROPERTY
U+W
SciTegic.value.DoubleValue
-58.060

@<SCITEGIC>MOL_PROPERTY
Grad RMS
SciTegic.value.DoubleValue
0.000000

@<SCITEGIC>MOL_PROPERTY
U
SciTegic.value.DoubleValue
9.781

@<SCITEGIC>MOL_PROPERTY
W
SciTegic.value.DoubleValue
-67.841

@<SCITEGIC>MOL_PROPERTY
W(PB)
SciTegic.value.DoubleValue
-69.537

@<SCITEGIC>MOL_PROPERTY
W(SA)
SciTegic.value.DoubleValue
1.696

@<SCITEGIC>MOL_PROPERTY
Valence
SciTegic.value.DoubleValue
6.123

@<SCITEGIC>MOL_PROPERTY
Coulomb
SciTegic.value.DoubleValue
3.449

@<SCITEGIC>MOL_PROPERTY
VdW
SciTegic.value.DoubleValue
0.209

@<SCITEGIC>MOL_PROPERTY
VdW6
SciTegic.value.DoubleValue
-3.762

@<SCITEGIC>MOL_PROPERTY
VdW12
SciTegic.value.DoubleValue
3.972

@<SCITEGIC>MOL_PROPERTY
Bond
SciTegic.value.DoubleValue
0.078

@<SCITEGIC>MOL_PROPERTY
Angle
SciTegic.value.DoubleValue
2.428

@<SCITEGIC>MOL_PROPERTY
Pdih
SciTegic.value.DoubleValue
3.616

@<SCITEGIC>MOL_PROPERTY
Idih
SciTegic.value.DoubleValue
0.002

@<SCITEGIC>MOL_PROPERTY
Tether
SciTegic.value.DoubleValue
0.000

@<TRIPOS>MOLECULE
guest-6_confgen4.mol2 : confsearch ligand conformer 929
          13          12           1
SMALL
USER_CHARGES
 
@<TRIPOS>ATOM
       1    C1      19.097125   20.832484   21.241410 C.2        1 MOL1         0.6021
       2    O1      18.396223   20.439605   20.329428 O.co2      1 MOL1        -0.6904
       3    O2      19.134871   21.994158   21.593381 O.co2      1 MOL1        -0.6904
       4    C2      19.983871   19.843048   21.999948 C.3        1 MOL1        -0.2102
       5    H1      19.705845   19.899158   23.059142 H          1 MOL1         0.0687
       6    H2      21.017094   20.201519   21.920670 H          1 MOL1         0.0687
       7    C3      19.902737   18.371682   21.515739 C.3        1 MOL1        -0.1974
       8    H3      18.866031   18.015331   21.593258 H          1 MOL1         0.0689
       9    H4      20.178822   18.318070   20.453356 H          1 MOL1         0.0689
      10    C4      20.827711   17.450294   22.336289 C.3        1 MOL1        -0.2987
      11    H5      20.551973   17.462297   23.398996 H          1 MOL1         0.0700
      12    H6      20.756785   16.414486   21.979458 H          1 MOL1         0.0700
      13    H7      21.875302   17.767512   22.249976 H          1 MOL1         0.0700
@<TRIPOS>BOND
    1     1     2    1
    2     1     3    2
    3     1     4    1
    4     4     5    1
    5     4     6    1
    6     4     7    1
    7     7     8    1
    8     7     9    1
    9     7    10    1
   10    10    11    1
   11    10    12    1
   12    10    13    1
@<TRIPOS>SUBSTRUCTURE
       1 MOL1            1 RESIDUE      1      MOL     
@<SCITEGIC>MOL_PROPERTY
VConf Rank
SciTegic.value.IntegerValue
929

@<SCITEGIC>MOL_PROPERTY
Conf_Id
SciTegic.value.IntegerValue
0

@<SCITEGIC>MOL_PROPERTY
Delta U+W
SciTegic.value.DoubleValue
0.000

@<SCITEGIC>MOL_PROPERTY
U+W
SciTegic.value.DoubleValue
-58.332

@<SCITEGIC>MOL_PROPERTY
Grad RMS
SciTegic.value.DoubleValue
0.000000

@<SCITEGIC>MOL_PROPERTY
U
SciTegic.value.DoubleValue
8.390

@<SCITEGIC>MOL_PROPERTY
W
SciTegic.value.DoubleValue
-66.722

@<SCITEGIC>MOL_PROPERTY
W(PB)
SciTegic.value.DoubleValue
-68.455

@<SCITEGIC>MOL_PROPERTY
W(SA)
SciTegic.value.DoubleValue
1.733

@<SCITEGIC>MOL_PROPERTY
Valence
SciTegic.value.DoubleValue
6.333

@<SCITEGIC>MOL_PROPERTY
Coulomb
SciTegic.value.DoubleValue
1.215

@<SCITEGIC>MOL_PROPERTY
VdW
SciTegic.value.DoubleValue
0.842

@<SCITEGIC>MOL_PROPERTY
VdW6
SciTegic.value.DoubleValue
-3.344

@<SCITEGIC>MOL_PROPERTY
VdW12
SciTegic.value.DoubleValue
4.186

@<SCITEGIC>MOL_PROPERTY
Bond
SciTegic.value.DoubleValue
0.091

@<SCITEGIC>MOL_PROPERTY
Angle
SciTegic.value.DoubleValue
2.713

@<SCITEGIC>MOL_PROPERTY
Pdih
SciTegic.value.DoubleValue
3.529

@<SCITEGIC>MOL_PROPERTY
Idih
SciTegic.value.DoubleValue
0.000

@<SCITEGIC>MOL_PROPERTY
Tether
SciTegic.value.DoubleValue
0.000

@<TRIPOS>MOLECULE
guest-6_confgen4.mol2 : confsearch ligand conformer 930
          13          12           1
SMALL
USER_CHARGES
 
@<TRIPOS>ATOM
       1    C1      18.623818   19.566694   23.354315 C.2        1 MOL1         0.6021
       2    O1      17.475327   19.746657   23.002257 O.co2      1 MOL1        -0.6904
       3    O2      19.104131   20.060298   24.354822 O.co2      1 MOL1        -0.6904
       4    C2      19.516186   18.688980   22.483226 C.3        1 MOL1        -0.2102
       5    H1      18.889035   17.916922   22.021028 H          1 MOL1         0.0687
       6    H2      20.232232   18.175553   23.136441 H          1 MOL1         0.0687
       7    C3      20.268802   19.487746   21.391718 C.3        1 MOL1        -0.1974
       8    H3      19.542253   20.005466   20.749912 H          1 MOL1         0.0689
       9    H4      20.885789   20.264048   21.865538 H          1 MOL1         0.0689
      10    C4      21.161127   18.572867   20.529139 C.3        1 MOL1        -0.2987
      11    H5      21.686027   19.156661   19.761724 H          1 MOL1         0.0700
      12    H6      21.915900   18.066387   21.145054 H          1 MOL1         0.0700
      13    H7      20.562050   17.805858   20.020848 H          1 MOL1         0.0700
@<TRIPOS>BOND
    1     1     2    1
    2     1     3    2
    3     1     4    1
    4     4     5    1
    5     4     6    1
    6     4     7    1
    7     7     8    1
    8     7     9    1
    9     7    10    1
   10    10    11    1
   11    10    12    1
   12    10    13    1
@<TRIPOS>SUBSTRUCTURE
       1 MOL1            1 RESIDUE      1      MOL     
@<SCITEGIC>MOL_PROPERTY
VConf Rank
SciTegic.value.IntegerValue
930

@<SCITEGIC>MOL_PROPERTY
Conf_Id
SciTegic.value.IntegerValue
1

@<SCITEGIC>MOL_PROPERTY
Delta U+W
SciTegic.value.DoubleValue
-1.339

@<SCITEGIC>MOL_PROPERTY
U+W
SciTegic.value.DoubleValue
-59.672

@<SCITEGIC>MOL_PROPERTY
Grad RMS
SciTegic.value.DoubleValue
0.000000

@<SCITEGIC>MOL_PROPERTY
U
SciTegic.value.DoubleValue
7.389

@<SCITEGIC>MOL_PROPERTY
W
SciTegic.value.DoubleValue
-67.061

@<SCITEGIC>MOL_PROPERTY
W(PB)
SciTegic.value.DoubleValue
-68.767

@<SCITEGIC>MOL_PROPERTY
W(SA)
SciTegic.value.DoubleValue
1.707

@<SCITEGIC>MOL_PROPERTY
Valence
SciTegic.value.DoubleValue
5.822

@<SCITEGIC>MOL_PROPERTY
Coulomb
SciTegic.value.DoubleValue
1.255

@<SCITEGIC>MOL_PROPERTY
VdW
SciTegic.value.DoubleValue
0.312

@<SCITEGIC>MOL_PROPERTY
VdW6
SciTegic.value.DoubleValue
-3.061

@<SCITEGIC>MOL_PROPERTY
VdW12
SciTegic.value.DoubleValue
3.372

@<SCITEGIC>MOL_PROPERTY
Bond
SciTegic.value.DoubleValue
0.059

@<SCITEGIC>MOL_PROPERTY
Angle
SciTegic.value.DoubleValue
2.241

@<SCITEGIC>MOL_PROPERTY
Pdih
SciTegic.value.DoubleValue
3.522

@<SCITEGIC>MOL_PROPERTY
Idih
SciTegic.value.DoubleValue
0.000

@<SCITEGIC>MOL_PROPERTY
Tether
SciTegic.value.DoubleValue
0.000

@<TRIPOS>MOLECULE
guest-6_confgen4.mol2 : confsearch ligand conformer 931
          13          12           1
SMALL
USER_CHARGES
 
@<TRIPOS>ATOM
       1    C1      18.821248   17.746234   22.132544 C.2        1 MOL1         0.6021
       2    O1      19.181541   16.589911   22.228480 O.co2      1 MOL1        -0.6904
       3    O2      17.890669   18.211814   22.759571 O.co2      1 MOL1        -0.6904
       4    C2      19.555400   18.649865   21.145022 C.3        1 MOL1        -0.2102
       5    H1      18.931113   19.528627   20.941725 H          1 MOL1         0.0687
       6    H2      19.643674   18.098992   20.201024 H          1 MOL1         0.0687
       7    C3      20.963987   19.093271   21.616841 C.3        1 MOL1        -0.1974
       8    H3      21.567306   18.206613   21.857187 H          1 MOL1         0.0689
       9    H4      21.474485   19.608097   20.791481 H          1 MOL1         0.0689
      10    C4      20.908562   20.032738   22.839239 C.3        1 MOL1        -0.2987
      11    H5      20.442829   19.533954   23.699550 H          1 MOL1         0.0700
      12    H6      21.919235   20.343026   23.134802 H          1 MOL1         0.0700
      13    H7      20.328134   20.936869   22.613311 H          1 MOL1         0.0700
@<TRIPOS>BOND
    1     1     2    1
    2     1     3    2
    3     1     4    1
    4     4     5    1
    5     4     6    1
    6     4     7    1
    7     7     8    1
    8     7     9    1
    9     7    10    1
   10    10    11    1
   11    10    12    1
   12    10    13    1
@<TRIPOS>SUBSTRUCTURE
       1 MOL1            1 RESIDUE      1      MOL     
@<SCITEGIC>MOL_PROPERTY
VConf Rank
SciTegic.value.IntegerValue
931

@<SCITEGIC>MOL_PROPERTY
Conf_Id
SciTegic.value.IntegerValue
4

@<SCITEGIC>MOL_PROPERTY
Delta U+W
SciTegic.value.DoubleValue
0.281

@<SCITEGIC>MOL_PROPERTY
U+W
SciTegic.value.DoubleValue
-58.051

@<SCITEGIC>MOL_PROPERTY
Grad RMS
SciTegic.value.DoubleValue
0.000000

@<SCITEGIC>MOL_PROPERTY
U
SciTegic.value.DoubleValue
9.781

@<SCITEGIC>MOL_PROPERTY
W
SciTegic.value.DoubleValue
-67.832

@<SCITEGIC>MOL_PROPERTY
W(PB)
SciTegic.value.DoubleValue
-69.535

@<SCITEGIC>MOL_PROPERTY
W(SA)
SciTegic.value.DoubleValue
1.703

@<SCITEGIC>MOL_PROPERTY
Valence
SciTegic.value.DoubleValue
6.123

@<SCITEGIC>MOL_PROPERTY
Coulomb
SciTegic.value.DoubleValue
3.449

@<SCITEGIC>MOL_PROPERTY
VdW
SciTegic.value.DoubleValue
0.209

@<SCITEGIC>MOL_PROPERTY
VdW6
SciTegic.value.DoubleValue
-3.762

@<SCITEGIC>MOL_PROPERTY
VdW12
SciTegic.value.DoubleValue
3.972

@<SCITEGIC>MOL_PROPERTY
Bond
SciTegic.value.DoubleValue
0.078

@<SCITEGIC>MOL_PROPERTY
Angle
SciTegic.value.DoubleValue
2.428

@<SCITEGIC>MOL_PROPERTY
Pdih
SciTegic.value.DoubleValue
3.616

@<SCITEGIC>MOL_PROPERTY
Idih
SciTegic.value.DoubleValue
0.002

@<SCITEGIC>MOL_PROPERTY
Tether
SciTegic.value.DoubleValue
0.000

@<TRIPOS>MOLECULE
guest-6_confgen4.mol2 : confsearch ligand conformer 932
          13          12           1
SMALL
USER_CHARGES
 
@<TRIPOS>ATOM
       1    C1      20.401965   20.103170   23.353466 C.2        1 MOL1         0.6021
       2    O1      20.251460   21.245212   22.967469 O.co2      1 MOL1        -0.6904
       3    O2      20.058018   19.717130   24.452907 O.co2      1 MOL1        -0.6904
       4    C2      21.091516   19.107789   22.423702 C.3        1 MOL1        -0.2102
       5    H1      21.862010   18.592655   23.009673 H          1 MOL1         0.0687
       6    H2      21.612766   19.665615   21.636037 H          1 MOL1         0.0687
       7    C3      20.136803   18.061111   21.794160 C.3        1 MOL1        -0.1974
       8    H3      20.731566   17.302242   21.267618 H          1 MOL1         0.0689
       9    H4      19.589492   17.536925   22.590150 H          1 MOL1         0.0689
      10    C4      19.137131   18.693965   20.804170 C.3        1 MOL1        -0.2987
      11    H5      19.663768   19.204754   19.987383 H          1 MOL1         0.0700
      12    H6      18.490431   17.924633   20.362579 H          1 MOL1         0.0700
      13    H7      18.494083   19.427975   21.307703 H          1 MOL1         0.0700
@<TRIPOS>BOND
    1     1     2    1
    2     1     3    2
    3     1     4    1
    4     4     5    1
    5     4     6    1
    6     4     7    1
    7     7     8    1
    8     7     9    1
    9     7    10    1
   10    10    11    1
   11    10    12    1
   12    10    13    1
@<TRIPOS>SUBSTRUCTURE
       1 MOL1            1 RESIDUE      1      MOL     
@<SCITEGIC>MOL_PROPERTY
VConf Rank
SciTegic.value.IntegerValue
932

@<SCITEGIC>MOL_PROPERTY
Conf_Id
SciTegic.value.IntegerValue
36

@<SCITEGIC>MOL_PROPERTY
Delta U+W
SciTegic.value.DoubleValue
0.272

@<SCITEGIC>MOL_PROPERTY
U+W
SciTegic.value.DoubleValue
-58.060

@<SCITEGIC>MOL_PROPERTY
Grad RMS
SciTegic.value.DoubleValue
0.000000

@<SCITEGIC>MOL_PROPERTY
U
SciTegic.value.DoubleValue
9.781

@<SCITEGIC>MOL_PROPERTY
W
SciTegic.value.DoubleValue
-67.841

@<SCITEGIC>MOL_PROPERTY
W(PB)
SciTegic.value.DoubleValue
-69.537

@<SCITEGIC>MOL_PROPERTY
W(SA)
SciTegic.value.DoubleValue
1.696

@<SCITEGIC>MOL_PROPERTY
Valence
SciTegic.value.DoubleValue
6.123

@<SCITEGIC>MOL_PROPERTY
Coulomb
SciTegic.value.DoubleValue
3.449

@<SCITEGIC>MOL_PROPERTY
VdW
SciTegic.value.DoubleValue
0.209

@<SCITEGIC>MOL_PROPERTY
VdW6
SciTegic.value.DoubleValue
-3.762

@<SCITEGIC>MOL_PROPERTY
VdW12
SciTegic.value.DoubleValue
3.972

@<SCITEGIC>MOL_PROPERTY
Bond
SciTegic.value.DoubleValue
0.078

@<SCITEGIC>MOL_PROPERTY
Angle
SciTegic.value.DoubleValue
2.428

@<SCITEGIC>MOL_PROPERTY
Pdih
SciTegic.value.DoubleValue
3.616

@<SCITEGIC>MOL_PROPERTY
Idih
SciTegic.value.DoubleValue
0.002

@<SCITEGIC>MOL_PROPERTY
Tether
SciTegic.value.DoubleValue
0.000

@<TRIPOS>MOLECULE
guest-6_confgen4.mol2 : confsearch ligand conformer 933
          13          12           1
SMALL
USER_CHARGES
 
@<TRIPOS>ATOM
       1    C1      18.698740   20.171181   20.627132 C.2        1 MOL1         0.6021
       2    O1      19.486881   20.639838   19.829309 O.co2      1 MOL1        -0.6904
       3    O2      17.509086   20.413850   20.602010 O.co2      1 MOL1        -0.6904
       4    C2      19.197083   19.229537   21.725150 C.3        1 MOL1        -0.2102
       5    H1      18.647506   18.286286   21.622289 H          1 MOL1         0.0687
       6    H2      18.906436   19.666116   22.688094 H          1 MOL1         0.0687
       7    C3      20.722574   18.948851   21.717919 C.3        1 MOL1        -0.1974
       8    H3      21.012237   18.514097   20.751049 H          1 MOL1         0.0689
       9    H4      21.271495   19.895638   21.818089 H          1 MOL1         0.0689
      10    C4      21.131089   17.992693   22.856651 C.3        1 MOL1        -0.2987
      11    H5      20.618608   17.026373   22.761191 H          1 MOL1         0.0700
      12    H6      22.212764   17.806186   22.835372 H          1 MOL1         0.0700
      13    H7      20.879892   18.418998   23.836797 H          1 MOL1         0.0700
@<TRIPOS>BOND
    1     1     2    1
    2     1     3    2
    3     1     4    1
    4     4     5    1
    5     4     6    1
    6     4     7    1
    7     7     8    1
    8     7     9    1
    9     7    10    1
   10    10    11    1
   11    10    12    1
   12    10    13    1
@<TRIPOS>SUBSTRUCTURE
       1 MOL1            1 RESIDUE      1      MOL     
@<SCITEGIC>MOL_PROPERTY
VConf Rank
SciTegic.value.IntegerValue
933

@<SCITEGIC>MOL_PROPERTY
Conf_Id
SciTegic.value.IntegerValue
0

@<SCITEGIC>MOL_PROPERTY
Delta U+W
SciTegic.value.DoubleValue
0.000

@<SCITEGIC>MOL_PROPERTY
U+W
SciTegic.value.DoubleValue
-58.332

@<SCITEGIC>MOL_PROPERTY
Grad RMS
SciTegic.value.DoubleValue
0.000000

@<SCITEGIC>MOL_PROPERTY
U
SciTegic.value.DoubleValue
8.390

@<SCITEGIC>MOL_PROPERTY
W
SciTegic.value.DoubleValue
-66.722

@<SCITEGIC>MOL_PROPERTY
W(PB)
SciTegic.value.DoubleValue
-68.455

@<SCITEGIC>MOL_PROPERTY
W(SA)
SciTegic.value.DoubleValue
1.733

@<SCITEGIC>MOL_PROPERTY
Valence
SciTegic.value.DoubleValue
6.333

@<SCITEGIC>MOL_PROPERTY
Coulomb
SciTegic.value.DoubleValue
1.215

@<SCITEGIC>MOL_PROPERTY
VdW
SciTegic.value.DoubleValue
0.842

@<SCITEGIC>MOL_PROPERTY
VdW6
SciTegic.value.DoubleValue
-3.344

@<SCITEGIC>MOL_PROPERTY
VdW12
SciTegic.value.DoubleValue
4.186

@<SCITEGIC>MOL_PROPERTY
Bond
SciTegic.value.DoubleValue
0.091

@<SCITEGIC>MOL_PROPERTY
Angle
SciTegic.value.DoubleValue
2.713

@<SCITEGIC>MOL_PROPERTY
Pdih
SciTegic.value.DoubleValue
3.529

@<SCITEGIC>MOL_PROPERTY
Idih
SciTegic.value.DoubleValue
0.000

@<SCITEGIC>MOL_PROPERTY
Tether
SciTegic.value.DoubleValue
0.000

@<TRIPOS>MOLECULE
guest-6_confgen4.mol2 : confsearch ligand conformer 934
          13          12           1
SMALL
USER_CHARGES
 
@<TRIPOS>ATOM
       1    C1      18.269502   19.035239   23.057579 C.2        1 MOL1         0.6021
       2    O1      17.409547   18.227878   22.767740 O.co2      1 MOL1        -0.6904
       3    O2      18.048353   20.060200   23.670692 O.co2      1 MOL1        -0.6904
       4    C2      19.700749   18.756180   22.611309 C.3        1 MOL1        -0.2102
       5    H1      19.853908   17.670110   22.615056 H          1 MOL1         0.0687
       6    H2      20.380704   19.181138   23.359701 H          1 MOL1         0.0687
       7    C3      20.020777   19.334387   21.211628 C.3        1 MOL1        -0.1974
       8    H3      19.327519   18.909427   20.472289 H          1 MOL1         0.0689
       9    H4      19.854540   20.420738   21.217112 H          1 MOL1         0.0689
      10    C4      21.473442   19.035610   20.789978 C.3        1 MOL1        -0.2987
      11    H5      21.681238   19.453003   19.796063 H          1 MOL1         0.0700
      12    H6      22.186741   19.476561   21.498724 H          1 MOL1         0.0700
      13    H7      21.655655   17.953665   20.748152 H          1 MOL1         0.0700
@<TRIPOS>BOND
    1     1     2    1
    2     1     3    2
    3     1     4    1
    4     4     5    1
    5     4     6    1
    6     4     7    1
    7     7     8    1
    8     7     9    1
    9     7    10    1
   10    10    11    1
   11    10    12    1
   12    10    13    1
@<TRIPOS>SUBSTRUCTURE
       1 MOL1            1 RESIDUE      1      MOL     
@<SCITEGIC>MOL_PROPERTY
VConf Rank
SciTegic.value.IntegerValue
934

@<SCITEGIC>MOL_PROPERTY
Conf_Id
SciTegic.value.IntegerValue
1

@<SCITEGIC>MOL_PROPERTY
Delta U+W
SciTegic.value.DoubleValue
-1.339

@<SCITEGIC>MOL_PROPERTY
U+W
SciTegic.value.DoubleValue
-59.672

@<SCITEGIC>MOL_PROPERTY
Grad RMS
SciTegic.value.DoubleValue
0.000000

@<SCITEGIC>MOL_PROPERTY
U
SciTegic.value.DoubleValue
7.389

@<SCITEGIC>MOL_PROPERTY
W
SciTegic.value.DoubleValue
-67.061

@<SCITEGIC>MOL_PROPERTY
W(PB)
SciTegic.value.DoubleValue
-68.767

@<SCITEGIC>MOL_PROPERTY
W(SA)
SciTegic.value.DoubleValue
1.707

@<SCITEGIC>MOL_PROPERTY
Valence
SciTegic.value.DoubleValue
5.822

@<SCITEGIC>MOL_PROPERTY
Coulomb
SciTegic.value.DoubleValue
1.255

@<SCITEGIC>MOL_PROPERTY
VdW
SciTegic.value.DoubleValue
0.312

@<SCITEGIC>MOL_PROPERTY
VdW6
SciTegic.value.DoubleValue
-3.061

@<SCITEGIC>MOL_PROPERTY
VdW12
SciTegic.value.DoubleValue
3.372

@<SCITEGIC>MOL_PROPERTY
Bond
SciTegic.value.DoubleValue
0.059

@<SCITEGIC>MOL_PROPERTY
Angle
SciTegic.value.DoubleValue
2.241

@<SCITEGIC>MOL_PROPERTY
Pdih
SciTegic.value.DoubleValue
3.522

@<SCITEGIC>MOL_PROPERTY
Idih
SciTegic.value.DoubleValue
0.000

@<SCITEGIC>MOL_PROPERTY
Tether
SciTegic.value.DoubleValue
0.000

@<TRIPOS>MOLECULE
guest-6_confgen4.mol2 : confsearch ligand conformer 935
          13          12           1
SMALL
USER_CHARGES
 
@<TRIPOS>ATOM
       1    C1      20.455476   17.215282   21.821619 C.2        1 MOL1         0.6021
       2    O1      20.444942   16.565288   22.848019 O.co2      1 MOL1        -0.6904
       3    O2      19.992021   16.816557   20.771795 O.co2      1 MOL1        -0.6904
       4    C2      21.118465   18.590256   21.846551 C.3        1 MOL1        -0.2102
       5    H1      21.330166   18.897084   20.814889 H          1 MOL1         0.0687
       6    H2      22.086901   18.477285   22.348304 H          1 MOL1         0.0687
       7    C3      20.288026   19.682228   22.568567 C.3        1 MOL1        -0.1974
       8    H3      20.046345   19.347102   23.586999 H          1 MOL1         0.0689
       9    H4      20.898761   20.589577   22.671495 H          1 MOL1         0.0689
      10    C4      18.989196   20.032081   21.813204 C.3        1 MOL1        -0.2987
      11    H5      18.332541   19.155851   21.730419 H          1 MOL1         0.0700
      12    H6      18.435913   20.820600   22.339711 H          1 MOL1         0.0700
      13    H7      19.209430   20.390819   20.799204 H          1 MOL1         0.0700
@<TRIPOS>BOND
    1     1     2    1
    2     1     3    2
    3     1     4    1
    4     4     5    1
    5     4     6    1
    6     4     7    1
    7     7     8    1
    8     7     9    1
    9     7    10    1
   10    10    11    1
   11    10    12    1
   12    10    13    1
@<TRIPOS>SUBSTRUCTURE
       1 MOL1            1 RESIDUE      1      MOL     
@<SCITEGIC>MOL_PROPERTY
VConf Rank
SciTegic.value.IntegerValue
935

@<SCITEGIC>MOL_PROPERTY
Conf_Id
SciTegic.value.IntegerValue
4

@<SCITEGIC>MOL_PROPERTY
Delta U+W
SciTegic.value.DoubleValue
0.281

@<SCITEGIC>MOL_PROPERTY
U+W
SciTegic.value.DoubleValue
-58.051

@<SCITEGIC>MOL_PROPERTY
Grad RMS
SciTegic.value.DoubleValue
0.000000

@<SCITEGIC>MOL_PROPERTY
U
SciTegic.value.DoubleValue
9.781

@<SCITEGIC>MOL_PROPERTY
W
SciTegic.value.DoubleValue
-67.832

@<SCITEGIC>MOL_PROPERTY
W(PB)
SciTegic.value.DoubleValue
-69.535

@<SCITEGIC>MOL_PROPERTY
W(SA)
SciTegic.value.DoubleValue
1.703

@<SCITEGIC>MOL_PROPERTY
Valence
SciTegic.value.DoubleValue
6.123

@<SCITEGIC>MOL_PROPERTY
Coulomb
SciTegic.value.DoubleValue
3.449

@<SCITEGIC>MOL_PROPERTY
VdW
SciTegic.value.DoubleValue
0.209

@<SCITEGIC>MOL_PROPERTY
VdW6
SciTegic.value.DoubleValue
-3.762

@<SCITEGIC>MOL_PROPERTY
VdW12
SciTegic.value.DoubleValue
3.972

@<SCITEGIC>MOL_PROPERTY
Bond
SciTegic.value.DoubleValue
0.078

@<SCITEGIC>MOL_PROPERTY
Angle
SciTegic.value.DoubleValue
2.428

@<SCITEGIC>MOL_PROPERTY
Pdih
SciTegic.value.DoubleValue
3.616

@<SCITEGIC>MOL_PROPERTY
Idih
SciTegic.value.DoubleValue
0.002

@<SCITEGIC>MOL_PROPERTY
Tether
SciTegic.value.DoubleValue
0.000

@<TRIPOS>MOLECULE
guest-6_confgen4.mol2 : confsearch ligand conformer 936
          13          12           1
SMALL
USER_CHARGES
 
@<TRIPOS>ATOM
       1    C1      20.634674   17.889856   23.331065 C.2        1 MOL1         0.6021
       2    O1      19.796038   17.898020   24.210001 O.co2      1 MOL1        -0.6904
       3    O2      21.252720   16.896151   23.004465 O.co2      1 MOL1        -0.6904
       4    C2      20.956265   19.203398   22.622609 C.3        1 MOL1        -0.2102
       5    H1      22.047793   19.306475   22.604521 H          1 MOL1         0.0687
       6    H2      20.569805   20.032786   23.227631 H          1 MOL1         0.0687
       7    C3      20.405667   19.295747   21.176354 C.3        1 MOL1        -0.1974
       8    H3      20.807827   20.197684   20.695056 H          1 MOL1         0.0689
       9    H4      20.765301   18.438207   20.590513 H          1 MOL1         0.0689
      10    C4      18.864392   19.346385   21.133521 C.3        1 MOL1        -0.2987
      11    H5      18.484362   20.209858   21.695110 H          1 MOL1         0.0700
      12    H6      18.508746   19.431253   20.098432 H          1 MOL1         0.0700
      13    H7      18.427419   18.437355   21.567739 H          1 MOL1         0.0700
@<TRIPOS>BOND
    1     1     2    1
    2     1     3    2
    3     1     4    1
    4     4     5    1
    5     4     6    1
    6     4     7    1
    7     7     8    1
    8     7     9    1
    9     7    10    1
   10    10    11    1
   11    10    12    1
   12    10    13    1
@<TRIPOS>SUBSTRUCTURE
       1 MOL1            1 RESIDUE      1      MOL     
@<SCITEGIC>MOL_PROPERTY
VConf Rank
SciTegic.value.IntegerValue
936

@<SCITEGIC>MOL_PROPERTY
Conf_Id
SciTegic.value.IntegerValue
36

@<SCITEGIC>MOL_PROPERTY
Delta U+W
SciTegic.value.DoubleValue
0.272

@<SCITEGIC>MOL_PROPERTY
U+W
SciTegic.value.DoubleValue
-58.060

@<SCITEGIC>MOL_PROPERTY
Grad RMS
SciTegic.value.DoubleValue
0.000000

@<SCITEGIC>MOL_PROPERTY
U
SciTegic.value.DoubleValue
9.781

@<SCITEGIC>MOL_PROPERTY
W
SciTegic.value.DoubleValue
-67.841

@<SCITEGIC>MOL_PROPERTY
W(PB)
SciTegic.value.DoubleValue
-69.537

@<SCITEGIC>MOL_PROPERTY
W(SA)
SciTegic.value.DoubleValue
1.696

@<SCITEGIC>MOL_PROPERTY
Valence
SciTegic.value.DoubleValue
6.123

@<SCITEGIC>MOL_PROPERTY
Coulomb
SciTegic.value.DoubleValue
3.449

@<SCITEGIC>MOL_PROPERTY
VdW
SciTegic.value.DoubleValue
0.209

@<SCITEGIC>MOL_PROPERTY
VdW6
SciTegic.value.DoubleValue
-3.762

@<SCITEGIC>MOL_PROPERTY
VdW12
SciTegic.value.DoubleValue
3.972

@<SCITEGIC>MOL_PROPERTY
Bond
SciTegic.value.DoubleValue
0.078

@<SCITEGIC>MOL_PROPERTY
Angle
SciTegic.value.DoubleValue
2.428

@<SCITEGIC>MOL_PROPERTY
Pdih
SciTegic.value.DoubleValue
3.616

@<SCITEGIC>MOL_PROPERTY
Idih
SciTegic.value.DoubleValue
0.002

@<SCITEGIC>MOL_PROPERTY
Tether
SciTegic.value.DoubleValue
0.000

@<TRIPOS>MOLECULE
guest-6_confgen4.mol2 : confsearch ligand conformer 937
          13          12           1
SMALL
USER_CHARGES
 
@<TRIPOS>ATOM
       1    C1      18.095849   18.719828   22.690424 C.2        1 MOL1         0.6021
       2    O1      17.490802   19.637961   22.172468 O.co2      1 MOL1        -0.6904
       3    O2      17.581079   17.946099   23.472186 O.co2      1 MOL1        -0.6904
       4    C2      19.574542   18.502726   22.363291 C.3        1 MOL1        -0.2102
       5    H1      19.677045   17.484409   21.969765 H          1 MOL1         0.0687
       6    H2      20.128018   18.537692   23.309218 H          1 MOL1         0.0687
       7    C3      20.188809   19.514520   21.360841 C.3        1 MOL1        -0.1974
       8    H3      19.630923   19.479984   20.414624 H          1 MOL1         0.0689
       9    H4      20.082384   20.534579   21.755690 H          1 MOL1         0.0689
      10    C4      21.678093   19.217836   21.092799 C.3        1 MOL1        -0.2987
      11    H5      21.808453   18.213834   20.667935 H          1 MOL1         0.0700
      12    H6      22.094873   19.943331   20.382019 H          1 MOL1         0.0700
      13    H7      22.263522   19.276848   22.019791 H          1 MOL1         0.0700
@<TRIPOS>BOND
    1     1     2    1
    2     1     3    2
    3     1     4    1
    4     4     5    1
    5     4     6    1
    6     4     7    1
    7     7     8    1
    8     7     9    1
    9     7    10    1
   10    10    11    1
   11    10    12    1
   12    10    13    1
@<TRIPOS>SUBSTRUCTURE
       1 MOL1            1 RESIDUE      1      MOL     
@<SCITEGIC>MOL_PROPERTY
VConf Rank
SciTegic.value.IntegerValue
937

@<SCITEGIC>MOL_PROPERTY
Conf_Id
SciTegic.value.IntegerValue
0

@<SCITEGIC>MOL_PROPERTY
Delta U+W
SciTegic.value.DoubleValue
0.000

@<SCITEGIC>MOL_PROPERTY
U+W
SciTegic.value.DoubleValue
-58.332

@<SCITEGIC>MOL_PROPERTY
Grad RMS
SciTegic.value.DoubleValue
0.000000

@<SCITEGIC>MOL_PROPERTY
U
SciTegic.value.DoubleValue
8.390

@<SCITEGIC>MOL_PROPERTY
W
SciTegic.value.DoubleValue
-66.722

@<SCITEGIC>MOL_PROPERTY
W(PB)
SciTegic.value.DoubleValue
-68.455

@<SCITEGIC>MOL_PROPERTY
W(SA)
SciTegic.value.DoubleValue
1.733

@<SCITEGIC>MOL_PROPERTY
Valence
SciTegic.value.DoubleValue
6.333

@<SCITEGIC>MOL_PROPERTY
Coulomb
SciTegic.value.DoubleValue
1.215

@<SCITEGIC>MOL_PROPERTY
VdW
SciTegic.value.DoubleValue
0.842

@<SCITEGIC>MOL_PROPERTY
VdW6
SciTegic.value.DoubleValue
-3.344

@<SCITEGIC>MOL_PROPERTY
VdW12
SciTegic.value.DoubleValue
4.186

@<SCITEGIC>MOL_PROPERTY
Bond
SciTegic.value.DoubleValue
0.091

@<SCITEGIC>MOL_PROPERTY
Angle
SciTegic.value.DoubleValue
2.713

@<SCITEGIC>MOL_PROPERTY
Pdih
SciTegic.value.DoubleValue
3.529

@<SCITEGIC>MOL_PROPERTY
Idih
SciTegic.value.DoubleValue
0.000

@<SCITEGIC>MOL_PROPERTY
Tether
SciTegic.value.DoubleValue
0.000

@<TRIPOS>MOLECULE
guest-6_confgen4.mol2 : confsearch ligand conformer 938
          13          12           1
SMALL
USER_CHARGES
 
@<TRIPOS>ATOM
       1    C1      17.899727   19.078861   22.134993 C.2        1 MOL1         0.6021
       2    O1      17.514686   18.758631   23.241590 O.co2      1 MOL1        -0.6904
       3    O2      17.213838   18.996374   21.135938 O.co2      1 MOL1        -0.6904
       4    C2      19.327435   19.594519   21.989228 C.3        1 MOL1        -0.2102
       5    H1      19.592474   20.130276   22.908868 H          1 MOL1         0.0687
       6    H2      19.344368   20.326350   21.172431 H          1 MOL1         0.0687
       7    C3      20.352019   18.467062   21.715517 C.3        1 MOL1        -0.1974
       8    H3      20.319178   17.735203   22.534739 H          1 MOL1         0.0689
       9    H4      20.071100   17.931408   20.797921 H          1 MOL1         0.0689
      10    C4      21.784124   19.020408   21.573481 C.3        1 MOL1        -0.2987
      11    H5      22.495562   18.206981   21.379953 H          1 MOL1         0.0700
      12    H6      21.849091   19.732908   20.740607 H          1 MOL1         0.0700
      13    H7      22.099074   19.535157   22.490758 H          1 MOL1         0.0700
@<TRIPOS>BOND
    1     1     2    1
    2     1     3    2
    3     1     4    1
    4     4     5    1
    5     4     6    1
    6     4     7    1
    7     7     8    1
    8     7     9    1
    9     7    10    1
   10    10    11    1
   11    10    12    1
   12    10    13    1
@<TRIPOS>SUBSTRUCTURE
       1 MOL1            1 RESIDUE      1      MOL     
@<SCITEGIC>MOL_PROPERTY
VConf Rank
SciTegic.value.IntegerValue
938

@<SCITEGIC>MOL_PROPERTY
Conf_Id
SciTegic.value.IntegerValue
1

@<SCITEGIC>MOL_PROPERTY
Delta U+W
SciTegic.value.DoubleValue
-1.339

@<SCITEGIC>MOL_PROPERTY
U+W
SciTegic.value.DoubleValue
-59.672

@<SCITEGIC>MOL_PROPERTY
Grad RMS
SciTegic.value.DoubleValue
0.000000

@<SCITEGIC>MOL_PROPERTY
U
SciTegic.value.DoubleValue
7.389

@<SCITEGIC>MOL_PROPERTY
W
SciTegic.value.DoubleValue
-67.061

@<SCITEGIC>MOL_PROPERTY
W(PB)
SciTegic.value.DoubleValue
-68.767

@<SCITEGIC>MOL_PROPERTY
W(SA)
SciTegic.value.DoubleValue
1.707

@<SCITEGIC>MOL_PROPERTY
Valence
SciTegic.value.DoubleValue
5.822

@<SCITEGIC>MOL_PROPERTY
Coulomb
SciTegic.value.DoubleValue
1.255

@<SCITEGIC>MOL_PROPERTY
VdW
SciTegic.value.DoubleValue
0.312

@<SCITEGIC>MOL_PROPERTY
VdW6
SciTegic.value.DoubleValue
-3.061

@<SCITEGIC>MOL_PROPERTY
VdW12
SciTegic.value.DoubleValue
3.372

@<SCITEGIC>MOL_PROPERTY
Bond
SciTegic.value.DoubleValue
0.059

@<SCITEGIC>MOL_PROPERTY
Angle
SciTegic.value.DoubleValue
2.241

@<SCITEGIC>MOL_PROPERTY
Pdih
SciTegic.value.DoubleValue
3.522

@<SCITEGIC>MOL_PROPERTY
Idih
SciTegic.value.DoubleValue
0.000

@<SCITEGIC>MOL_PROPERTY
Tether
SciTegic.value.DoubleValue
0.000

@<TRIPOS>MOLECULE
guest-6_confgen4.mol2 : confsearch ligand conformer 939
          13          12           1
SMALL
USER_CHARGES
 
@<TRIPOS>ATOM
       1    C1      20.207996   18.034466   23.524395 C.2        1 MOL1         0.6021
       2    O1      19.261955   17.308809   23.757906 O.co2      1 MOL1        -0.6904
       3    O2      21.360854   17.725405   23.750896 O.co2      1 MOL1        -0.6904
       4    C2      19.927800   19.420737   22.949528 C.3        1 MOL1        -0.2102
       5    H1      20.815292   20.048329   23.097086 H          1 MOL1         0.0687
       6    H2      19.122655   19.865627   23.546354 H          1 MOL1         0.0687
       7    C3      19.519274   19.416912   21.454057 C.3        1 MOL1        -0.1974
       8    H3      18.655153   18.753104   21.310610 H          1 MOL1         0.0689
       9    H4      19.193038   20.426038   21.167511 H          1 MOL1         0.0689
      10    C4      20.672599   18.978292   20.528108 C.3        1 MOL1        -0.2987
      11    H5      20.995341   17.954108   20.757699 H          1 MOL1         0.0700
      12    H6      20.356647   19.005563   19.477143 H          1 MOL1         0.0700
      13    H7      21.539581   19.642619   20.639482 H          1 MOL1         0.0700
@<TRIPOS>BOND
    1     1     2    1
    2     1     3    2
    3     1     4    1
    4     4     5    1
    5     4     6    1
    6     4     7    1
    7     7     8    1
    8     7     9    1
    9     7    10    1
   10    10    11    1
   11    10    12    1
   12    10    13    1
@<TRIPOS>SUBSTRUCTURE
       1 MOL1            1 RESIDUE      1      MOL     
@<SCITEGIC>MOL_PROPERTY
VConf Rank
SciTegic.value.IntegerValue
939

@<SCITEGIC>MOL_PROPERTY
Conf_Id
SciTegic.value.IntegerValue
4

@<SCITEGIC>MOL_PROPERTY
Delta U+W
SciTegic.value.DoubleValue
0.281

@<SCITEGIC>MOL_PROPERTY
U+W
SciTegic.value.DoubleValue
-58.051

@<SCITEGIC>MOL_PROPERTY
Grad RMS
SciTegic.value.DoubleValue
0.000000

@<SCITEGIC>MOL_PROPERTY
U
SciTegic.value.DoubleValue
9.781

@<SCITEGIC>MOL_PROPERTY
W
SciTegic.value.DoubleValue
-67.832

@<SCITEGIC>MOL_PROPERTY
W(PB)
SciTegic.value.DoubleValue
-69.535

@<SCITEGIC>MOL_PROPERTY
W(SA)
SciTegic.value.DoubleValue
1.703

@<SCITEGIC>MOL_PROPERTY
Valence
SciTegic.value.DoubleValue
6.123

@<SCITEGIC>MOL_PROPERTY
Coulomb
SciTegic.value.DoubleValue
3.449

@<SCITEGIC>MOL_PROPERTY
VdW
SciTegic.value.DoubleValue
0.209

@<SCITEGIC>MOL_PROPERTY
VdW6
SciTegic.value.DoubleValue
-3.762

@<SCITEGIC>MOL_PROPERTY
VdW12
SciTegic.value.DoubleValue
3.972

@<SCITEGIC>MOL_PROPERTY
Bond
SciTegic.value.DoubleValue
0.078

@<SCITEGIC>MOL_PROPERTY
Angle
SciTegic.value.DoubleValue
2.428

@<SCITEGIC>MOL_PROPERTY
Pdih
SciTegic.value.DoubleValue
3.616

@<SCITEGIC>MOL_PROPERTY
Idih
SciTegic.value.DoubleValue
0.002

@<SCITEGIC>MOL_PROPERTY
Tether
SciTegic.value.DoubleValue
0.000

@<TRIPOS>MOLECULE
guest-6_confgen4.mol2 : confsearch ligand conformer 940
          13          12           1
SMALL
USER_CHARGES
 
@<TRIPOS>ATOM
       1    C1      18.632336   19.756708   21.376694 C.2        1 MOL1         0.6021
       2    O1      18.006108   18.968653   20.696464 O.co2      1 MOL1        -0.6904
       3    O2      18.109232   20.565465   22.117216 O.co2      1 MOL1        -0.6904
       4    C2      20.155303   19.757003   21.270413 C.3        1 MOL1        -0.2102
       5    H1      20.473739   20.798027   21.139065 H          1 MOL1         0.0687
       6    H2      20.444057   19.220021   20.358515 H          1 MOL1         0.0687
       7    C3      20.877368   19.148206   22.499773 C.3        1 MOL1        -0.1974
       8    H3      21.957576   19.325405   22.406913 H          1 MOL1         0.0689
       9    H4      20.549790   19.665889   23.412253 H          1 MOL1         0.0689
      10    C4      20.625704   17.632795   22.641625 C.3        1 MOL1        -0.2987
      11    H5      20.966725   17.093058   21.748439 H          1 MOL1         0.0700
      12    H6      21.165878   17.230421   23.508460 H          1 MOL1         0.0700
      13    H7      19.557195   17.421524   22.781187 H          1 MOL1         0.0700
@<TRIPOS>BOND
    1     1     2    1
    2     1     3    2
    3     1     4    1
    4     4     5    1
    5     4     6    1
    6     4     7    1
    7     7     8    1
    8     7     9    1
    9     7    10    1
   10    10    11    1
   11    10    12    1
   12    10    13    1
@<TRIPOS>SUBSTRUCTURE
       1 MOL1            1 RESIDUE      1      MOL     
@<SCITEGIC>MOL_PROPERTY
VConf Rank
SciTegic.value.IntegerValue
940

@<SCITEGIC>MOL_PROPERTY
Conf_Id
SciTegic.value.IntegerValue
36

@<SCITEGIC>MOL_PROPERTY
Delta U+W
SciTegic.value.DoubleValue
0.272

@<SCITEGIC>MOL_PROPERTY
U+W
SciTegic.value.DoubleValue
-58.060

@<SCITEGIC>MOL_PROPERTY
Grad RMS
SciTegic.value.DoubleValue
0.000000

@<SCITEGIC>MOL_PROPERTY
U
SciTegic.value.DoubleValue
9.781

@<SCITEGIC>MOL_PROPERTY
W
SciTegic.value.DoubleValue
-67.841

@<SCITEGIC>MOL_PROPERTY
W(PB)
SciTegic.value.DoubleValue
-69.537

@<SCITEGIC>MOL_PROPERTY
W(SA)
SciTegic.value.DoubleValue
1.696

@<SCITEGIC>MOL_PROPERTY
Valence
SciTegic.value.DoubleValue
6.123

@<SCITEGIC>MOL_PROPERTY
Coulomb
SciTegic.value.DoubleValue
3.449

@<SCITEGIC>MOL_PROPERTY
VdW
SciTegic.value.DoubleValue
0.209

@<SCITEGIC>MOL_PROPERTY
VdW6
SciTegic.value.DoubleValue
-3.762

@<SCITEGIC>MOL_PROPERTY
VdW12
SciTegic.value.DoubleValue
3.972

@<SCITEGIC>MOL_PROPERTY
Bond
SciTegic.value.DoubleValue
0.078

@<SCITEGIC>MOL_PROPERTY
Angle
SciTegic.value.DoubleValue
2.428

@<SCITEGIC>MOL_PROPERTY
Pdih
SciTegic.value.DoubleValue
3.616

@<SCITEGIC>MOL_PROPERTY
Idih
SciTegic.value.DoubleValue
0.002

@<SCITEGIC>MOL_PROPERTY
Tether
SciTegic.value.DoubleValue
0.000

@<TRIPOS>MOLECULE
guest-6_confgen4.mol2 : confsearch ligand conformer 941
          13          12           1
SMALL
USER_CHARGES
 
@<TRIPOS>ATOM
       1    C1      20.844084   20.672685   20.782842 C.2        1 MOL1         0.6021
       2    O1      22.024997   20.515874   21.024057 O.co2      1 MOL1        -0.6904
       3    O2      20.422652   21.592975   20.111829 O.co2      1 MOL1        -0.6904
       4    C2      19.816806   19.682827   21.335619 C.3        1 MOL1        -0.2102
       5    H1      19.265049   19.272060   20.481703 H          1 MOL1         0.0687
       6    H2      19.099186   20.255720   21.934912 H          1 MOL1         0.0687
       7    C3      20.400880   18.524679   22.186212 C.3        1 MOL1        -0.1974
       8    H3      21.121908   17.953619   21.584744 H          1 MOL1         0.0689
       9    H4      20.955911   18.938492   23.039707 H          1 MOL1         0.0689
      10    C4      19.294642   17.580687   22.699002 C.3        1 MOL1        -0.2987
      11    H5      18.744473   17.129364   21.862854 H          1 MOL1         0.0700
      12    H6      19.726687   16.768493   23.298114 H          1 MOL1         0.0700
      13    H7      18.577116   18.122170   23.329458 H          1 MOL1         0.0700
@<TRIPOS>BOND
    1     1     2    1
    2     1     3    2
    3     1     4    1
    4     4     5    1
    5     4     6    1
    6     4     7    1
    7     7     8    1
    8     7     9    1
    9     7    10    1
   10    10    11    1
   11    10    12    1
   12    10    13    1
@<TRIPOS>SUBSTRUCTURE
       1 MOL1            1 RESIDUE      1      MOL     
@<SCITEGIC>MOL_PROPERTY
VConf Rank
SciTegic.value.IntegerValue
941

@<SCITEGIC>MOL_PROPERTY
Conf_Id
SciTegic.value.IntegerValue
0

@<SCITEGIC>MOL_PROPERTY
Delta U+W
SciTegic.value.DoubleValue
0.000

@<SCITEGIC>MOL_PROPERTY
U+W
SciTegic.value.DoubleValue
-58.332

@<SCITEGIC>MOL_PROPERTY
Grad RMS
SciTegic.value.DoubleValue
0.000000

@<SCITEGIC>MOL_PROPERTY
U
SciTegic.value.DoubleValue
8.390

@<SCITEGIC>MOL_PROPERTY
W
SciTegic.value.DoubleValue
-66.722

@<SCITEGIC>MOL_PROPERTY
W(PB)
SciTegic.value.DoubleValue
-68.455

@<SCITEGIC>MOL_PROPERTY
W(SA)
SciTegic.value.DoubleValue
1.733

@<SCITEGIC>MOL_PROPERTY
Valence
SciTegic.value.DoubleValue
6.333

@<SCITEGIC>MOL_PROPERTY
Coulomb
SciTegic.value.DoubleValue
1.215

@<SCITEGIC>MOL_PROPERTY
VdW
SciTegic.value.DoubleValue
0.842

@<SCITEGIC>MOL_PROPERTY
VdW6
SciTegic.value.DoubleValue
-3.344

@<SCITEGIC>MOL_PROPERTY
VdW12
SciTegic.value.DoubleValue
4.186

@<SCITEGIC>MOL_PROPERTY
Bond
SciTegic.value.DoubleValue
0.091

@<SCITEGIC>MOL_PROPERTY
Angle
SciTegic.value.DoubleValue
2.713

@<SCITEGIC>MOL_PROPERTY
Pdih
SciTegic.value.DoubleValue
3.529

@<SCITEGIC>MOL_PROPERTY
Idih
SciTegic.value.DoubleValue
0.000

@<SCITEGIC>MOL_PROPERTY
Tether
SciTegic.value.DoubleValue
0.000

@<TRIPOS>MOLECULE
guest-6_confgen4.mol2 : confsearch ligand conformer 942
          13          12           1
SMALL
USER_CHARGES
 
@<TRIPOS>ATOM
       1    C1      18.033661   18.299168   22.126976 C.2        1 MOL1         0.6021
       2    O1      17.566577   18.452876   23.237637 O.co2      1 MOL1        -0.6904
       3    O2      17.671223   17.428796   21.361174 O.co2      1 MOL1        -0.6904
       4    C2      19.148206   19.237658   21.676949 C.3        1 MOL1        -0.2102
       5    H1      18.976975   20.217436   22.139265 H          1 MOL1         0.0687
       6    H2      19.063257   19.372932   20.591821 H          1 MOL1         0.0687
       7    C3      20.559909   18.716864   22.039873 C.3        1 MOL1        -0.1974
       8    H3      20.630070   18.575772   23.127527 H          1 MOL1         0.0689
       9    H4      20.716410   17.731184   21.579693 H          1 MOL1         0.0689
      10    C4      21.663115   19.687087   21.572011 C.3        1 MOL1        -0.2987
      11    H5      22.655847   19.301083   21.837992 H          1 MOL1         0.0700
      12    H6      21.632206   19.821119   20.482683 H          1 MOL1         0.0700
      13    H7      21.545219   20.672161   22.042422 H          1 MOL1         0.0700
@<TRIPOS>BOND
    1     1     2    1
    2     1     3    2
    3     1     4    1
    4     4     5    1
    5     4     6    1
    6     4     7    1
    7     7     8    1
    8     7     9    1
    9     7    10    1
   10    10    11    1
   11    10    12    1
   12    10    13    1
@<TRIPOS>SUBSTRUCTURE
       1 MOL1            1 RESIDUE      1      MOL     
@<SCITEGIC>MOL_PROPERTY
VConf Rank
SciTegic.value.IntegerValue
942

@<SCITEGIC>MOL_PROPERTY
Conf_Id
SciTegic.value.IntegerValue
1

@<SCITEGIC>MOL_PROPERTY
Delta U+W
SciTegic.value.DoubleValue
-1.339

@<SCITEGIC>MOL_PROPERTY
U+W
SciTegic.value.DoubleValue
-59.672

@<SCITEGIC>MOL_PROPERTY
Grad RMS
SciTegic.value.DoubleValue
0.000000

@<SCITEGIC>MOL_PROPERTY
U
SciTegic.value.DoubleValue
7.389

@<SCITEGIC>MOL_PROPERTY
W
SciTegic.value.DoubleValue
-67.061

@<SCITEGIC>MOL_PROPERTY
W(PB)
SciTegic.value.DoubleValue
-68.767

@<SCITEGIC>MOL_PROPERTY
W(SA)
SciTegic.value.DoubleValue
1.707

@<SCITEGIC>MOL_PROPERTY
Valence
SciTegic.value.DoubleValue
5.822

@<SCITEGIC>MOL_PROPERTY
Coulomb
SciTegic.value.DoubleValue
1.255

@<SCITEGIC>MOL_PROPERTY
VdW
SciTegic.value.DoubleValue
0.312

@<SCITEGIC>MOL_PROPERTY
VdW6
SciTegic.value.DoubleValue
-3.061

@<SCITEGIC>MOL_PROPERTY
VdW12
SciTegic.value.DoubleValue
3.372

@<SCITEGIC>MOL_PROPERTY
Bond
SciTegic.value.DoubleValue
0.059

@<SCITEGIC>MOL_PROPERTY
Angle
SciTegic.value.DoubleValue
2.241

@<SCITEGIC>MOL_PROPERTY
Pdih
SciTegic.value.DoubleValue
3.522

@<SCITEGIC>MOL_PROPERTY
Idih
SciTegic.value.DoubleValue
0.000

@<SCITEGIC>MOL_PROPERTY
Tether
SciTegic.value.DoubleValue
0.000

@<TRIPOS>MOLECULE
guest-6_confgen4.mol2 : confsearch ligand conformer 943
          13          12           1
SMALL
USER_CHARGES
 
@<TRIPOS>ATOM
       1    C1      18.534986   18.731179   21.205854 C.2        1 MOL1         0.6021
       2    O1      17.654932   19.500572   21.536970 O.co2      1 MOL1        -0.6904
       3    O2      18.700758   18.355550   20.062470 O.co2      1 MOL1        -0.6904
       4    C2      19.457025   18.181287   22.291299 C.3        1 MOL1        -0.2102
       5    H1      19.963101   17.288665   21.903484 H          1 MOL1         0.0687
       6    H2      18.822759   17.849796   23.122086 H          1 MOL1         0.0687
       7    C3      20.500377   19.201589   22.814500 C.3        1 MOL1        -0.1974
       8    H3      19.985708   20.108280   23.162280 H          1 MOL1         0.0689
       9    H4      21.013887   18.775735   23.687328 H          1 MOL1         0.0689
      10    C4      21.548459   19.574878   21.745806 C.3        1 MOL1        -0.2987
      11    H5      21.073531   20.045357   20.874646 H          1 MOL1         0.0700
      12    H6      22.282099   20.282195   22.153936 H          1 MOL1         0.0700
      13    H7      22.090561   18.684925   21.400115 H          1 MOL1         0.0700
@<TRIPOS>BOND
    1     1     2    1
    2     1     3    2
    3     1     4    1
    4     4     5    1
    5     4     6    1
    6     4     7    1
    7     7     8    1
    8     7     9    1
    9     7    10    1
   10    10    11    1
   11    10    12    1
   12    10    13    1
@<TRIPOS>SUBSTRUCTURE
       1 MOL1            1 RESIDUE      1      MOL     
@<SCITEGIC>MOL_PROPERTY
VConf Rank
SciTegic.value.IntegerValue
943

@<SCITEGIC>MOL_PROPERTY
Conf_Id
SciTegic.value.IntegerValue
4

@<SCITEGIC>MOL_PROPERTY
Delta U+W
SciTegic.value.DoubleValue
0.281

@<SCITEGIC>MOL_PROPERTY
U+W
SciTegic.value.DoubleValue
-58.051

@<SCITEGIC>MOL_PROPERTY
Grad RMS
SciTegic.value.DoubleValue
0.000000

@<SCITEGIC>MOL_PROPERTY
U
SciTegic.value.DoubleValue
9.781

@<SCITEGIC>MOL_PROPERTY
W
SciTegic.value.DoubleValue
-67.832

@<SCITEGIC>MOL_PROPERTY
W(PB)
SciTegic.value.DoubleValue
-69.535

@<SCITEGIC>MOL_PROPERTY
W(SA)
SciTegic.value.DoubleValue
1.703

@<SCITEGIC>MOL_PROPERTY
Valence
SciTegic.value.DoubleValue
6.123

@<SCITEGIC>MOL_PROPERTY
Coulomb
SciTegic.value.DoubleValue
3.449

@<SCITEGIC>MOL_PROPERTY
VdW
SciTegic.value.DoubleValue
0.209

@<SCITEGIC>MOL_PROPERTY
VdW6
SciTegic.value.DoubleValue
-3.762

@<SCITEGIC>MOL_PROPERTY
VdW12
SciTegic.value.DoubleValue
3.972

@<SCITEGIC>MOL_PROPERTY
Bond
SciTegic.value.DoubleValue
0.078

@<SCITEGIC>MOL_PROPERTY
Angle
SciTegic.value.DoubleValue
2.428

@<SCITEGIC>MOL_PROPERTY
Pdih
SciTegic.value.DoubleValue
3.616

@<SCITEGIC>MOL_PROPERTY
Idih
SciTegic.value.DoubleValue
0.002

@<SCITEGIC>MOL_PROPERTY
Tether
SciTegic.value.DoubleValue
0.000

@<TRIPOS>MOLECULE
guest-6_confgen4.mol2 : confsearch ligand conformer 944
          13          12           1
SMALL
USER_CHARGES
 
@<TRIPOS>ATOM
       1    C1      20.767967   19.473206   23.587837 C.2        1 MOL1         0.6021
       2    O1      21.662886   18.721380   23.919170 O.co2      1 MOL1        -0.6904
       3    O2      20.784343   20.669041   23.801868 O.co2      1 MOL1        -0.6904
       4    C2      19.541166   18.881637   22.898105 C.3        1 MOL1        -0.2102
       5    H1      18.655547   19.287034   23.401810 H          1 MOL1         0.0687
       6    H2      19.532368   17.797598   23.065644 H          1 MOL1         0.0687
       7    C3      19.456755   19.188056   21.380765 C.3        1 MOL1        -0.1974
       8    H3      18.479762   18.859220   21.000998 H          1 MOL1         0.0689
       9    H4      19.508046   20.274310   21.221572 H          1 MOL1         0.0689
      10    C4      20.571616   18.490114   20.574608 C.3        1 MOL1        -0.2987
      11    H5      20.524731   17.400638   20.702027 H          1 MOL1         0.0700
      12    H6      20.471374   18.711458   19.504069 H          1 MOL1         0.0700
      13    H7      21.564449   18.829484   20.898546 H          1 MOL1         0.0700
@<TRIPOS>BOND
    1     1     2    1
    2     1     3    2
    3     1     4    1
    4     4     5    1
    5     4     6    1
    6     4     7    1
    7     7     8    1
    8     7     9    1
    9     7    10    1
   10    10    11    1
   11    10    12    1
   12    10    13    1
@<TRIPOS>SUBSTRUCTURE
       1 MOL1            1 RESIDUE      1      MOL     
@<SCITEGIC>MOL_PROPERTY
VConf Rank
SciTegic.value.IntegerValue
944

@<SCITEGIC>MOL_PROPERTY
Conf_Id
SciTegic.value.IntegerValue
36

@<SCITEGIC>MOL_PROPERTY
Delta U+W
SciTegic.value.DoubleValue
0.272

@<SCITEGIC>MOL_PROPERTY
U+W
SciTegic.value.DoubleValue
-58.060

@<SCITEGIC>MOL_PROPERTY
Grad RMS
SciTegic.value.DoubleValue
0.000000

@<SCITEGIC>MOL_PROPERTY
U
SciTegic.value.DoubleValue
9.781

@<SCITEGIC>MOL_PROPERTY
W
SciTegic.value.DoubleValue
-67.841

@<SCITEGIC>MOL_PROPERTY
W(PB)
SciTegic.value.DoubleValue
-69.537

@<SCITEGIC>MOL_PROPERTY
W(SA)
SciTegic.value.DoubleValue
1.696

@<SCITEGIC>MOL_PROPERTY
Valence
SciTegic.value.DoubleValue
6.123

@<SCITEGIC>MOL_PROPERTY
Coulomb
SciTegic.value.DoubleValue
3.449

@<SCITEGIC>MOL_PROPERTY
VdW
SciTegic.value.DoubleValue
0.209

@<SCITEGIC>MOL_PROPERTY
VdW6
SciTegic.value.DoubleValue
-3.762

@<SCITEGIC>MOL_PROPERTY
VdW12
SciTegic.value.DoubleValue
3.972

@<SCITEGIC>MOL_PROPERTY
Bond
SciTegic.value.DoubleValue
0.078

@<SCITEGIC>MOL_PROPERTY
Angle
SciTegic.value.DoubleValue
2.428

@<SCITEGIC>MOL_PROPERTY
Pdih
SciTegic.value.DoubleValue
3.616

@<SCITEGIC>MOL_PROPERTY
Idih
SciTegic.value.DoubleValue
0.002

@<SCITEGIC>MOL_PROPERTY
Tether
SciTegic.value.DoubleValue
0.000

@<TRIPOS>MOLECULE
guest-6_confgen4.mol2 : confsearch ligand conformer 945
          13          12           1
SMALL
USER_CHARGES
 
@<TRIPOS>ATOM
       1    C1      19.523281   20.050110   20.032812 C.2        1 MOL1         0.6021
       2    O1      20.626293   20.430346   19.692058 O.co2      1 MOL1        -0.6904
       3    O2      18.515031   20.295439   19.401907 O.co2      1 MOL1        -0.6904
       4    C2      19.364771   19.223057   21.310130 C.3        1 MOL1        -0.2102
       5    H1      18.885444   18.277253   21.030776 H          1 MOL1         0.0687
       6    H2      18.663119   19.757465   21.961613 H          1 MOL1         0.0687
       7    C3      20.678716   18.934762   22.082392 C.3        1 MOL1        -0.1974
       8    H3      21.381544   18.401772   21.426870 H          1 MOL1         0.0689
       9    H4      21.158990   19.883812   22.358790 H          1 MOL1         0.0689
      10    C4      20.421320   18.097928   23.351759 C.3        1 MOL1        -0.2987
      11    H5      19.969323   17.129731   23.099138 H          1 MOL1         0.0700
      12    H6      21.361625   17.904308   23.884294 H          1 MOL1         0.0700
      13    H7      19.744935   18.623662   24.038513 H          1 MOL1         0.0700
@<TRIPOS>BOND
    1     1     2    1
    2     1     3    2
    3     1     4    1
    4     4     5    1
    5     4     6    1
    6     4     7    1
    7     7     8    1
    8     7     9    1
    9     7    10    1
   10    10    11    1
   11    10    12    1
   12    10    13    1
@<TRIPOS>SUBSTRUCTURE
       1 MOL1            1 RESIDUE      1      MOL     
@<SCITEGIC>MOL_PROPERTY
VConf Rank
SciTegic.value.IntegerValue
945

@<SCITEGIC>MOL_PROPERTY
Conf_Id
SciTegic.value.IntegerValue
0

@<SCITEGIC>MOL_PROPERTY
Delta U+W
SciTegic.value.DoubleValue
0.000

@<SCITEGIC>MOL_PROPERTY
U+W
SciTegic.value.DoubleValue
-58.332

@<SCITEGIC>MOL_PROPERTY
Grad RMS
SciTegic.value.DoubleValue
0.000000

@<SCITEGIC>MOL_PROPERTY
U
SciTegic.value.DoubleValue
8.390

@<SCITEGIC>MOL_PROPERTY
W
SciTegic.value.DoubleValue
-66.722

@<SCITEGIC>MOL_PROPERTY
W(PB)
SciTegic.value.DoubleValue
-68.455

@<SCITEGIC>MOL_PROPERTY
W(SA)
SciTegic.value.DoubleValue
1.733

@<SCITEGIC>MOL_PROPERTY
Valence
SciTegic.value.DoubleValue
6.333

@<SCITEGIC>MOL_PROPERTY
Coulomb
SciTegic.value.DoubleValue
1.215

@<SCITEGIC>MOL_PROPERTY
VdW
SciTegic.value.DoubleValue
0.842

@<SCITEGIC>MOL_PROPERTY
VdW6
SciTegic.value.DoubleValue
-3.344

@<SCITEGIC>MOL_PROPERTY
VdW12
SciTegic.value.DoubleValue
4.186

@<SCITEGIC>MOL_PROPERTY
Bond
SciTegic.value.DoubleValue
0.091

@<SCITEGIC>MOL_PROPERTY
Angle
SciTegic.value.DoubleValue
2.713

@<SCITEGIC>MOL_PROPERTY
Pdih
SciTegic.value.DoubleValue
3.529

@<SCITEGIC>MOL_PROPERTY
Idih
SciTegic.value.DoubleValue
0.000

@<SCITEGIC>MOL_PROPERTY
Tether
SciTegic.value.DoubleValue
0.000

@<TRIPOS>MOLECULE
guest-6_confgen4.mol2 : confsearch ligand conformer 946
          13          12           1
SMALL
USER_CHARGES
 
@<TRIPOS>ATOM
       1    C1      21.524370   20.267098   21.059126 C.2        1 MOL1         0.6021
       2    O1      21.512292   21.427140   21.419011 O.co2      1 MOL1        -0.6904
       3    O2      22.039695   19.890468   20.025709 O.co2      1 MOL1        -0.6904
       4    C2      20.839244   19.230439   21.943117 C.3        1 MOL1        -0.2102
       5    H1      20.944711   19.548983   22.987351 H          1 MOL1         0.0687
       6    H2      21.379656   18.281755   21.838365 H          1 MOL1         0.0687
       7    C3      19.344050   19.032949   21.594919 C.3        1 MOL1        -0.1974
       8    H3      18.815091   19.991214   21.693676 H          1 MOL1         0.0689
       9    H4      19.250132   18.723629   20.544527 H          1 MOL1         0.0689
      10    C4      18.680998   17.980001   22.505386 C.3        1 MOL1        -0.2987
      11    H5      17.622307   17.854005   22.243545 H          1 MOL1         0.0700
      12    H6      19.174268   17.004561   22.401672 H          1 MOL1         0.0700
      13    H7      18.735860   18.281894   23.559619 H          1 MOL1         0.0700
@<TRIPOS>BOND
    1     1     2    1
    2     1     3    2
    3     1     4    1
    4     4     5    1
    5     4     6    1
    6     4     7    1
    7     7     8    1
    8     7     9    1
    9     7    10    1
   10    10    11    1
   11    10    12    1
   12    10    13    1
@<TRIPOS>SUBSTRUCTURE
       1 MOL1            1 RESIDUE      1      MOL     
@<SCITEGIC>MOL_PROPERTY
VConf Rank
SciTegic.value.IntegerValue
946

@<SCITEGIC>MOL_PROPERTY
Conf_Id
SciTegic.value.IntegerValue
1

@<SCITEGIC>MOL_PROPERTY
Delta U+W
SciTegic.value.DoubleValue
-1.339

@<SCITEGIC>MOL_PROPERTY
U+W
SciTegic.value.DoubleValue
-59.672

@<SCITEGIC>MOL_PROPERTY
Grad RMS
SciTegic.value.DoubleValue
0.000000

@<SCITEGIC>MOL_PROPERTY
U
SciTegic.value.DoubleValue
7.389

@<SCITEGIC>MOL_PROPERTY
W
SciTegic.value.DoubleValue
-67.061

@<SCITEGIC>MOL_PROPERTY
W(PB)
SciTegic.value.DoubleValue
-68.767

@<SCITEGIC>MOL_PROPERTY
W(SA)
SciTegic.value.DoubleValue
1.707

@<SCITEGIC>MOL_PROPERTY
Valence
SciTegic.value.DoubleValue
5.822

@<SCITEGIC>MOL_PROPERTY
Coulomb
SciTegic.value.DoubleValue
1.255

@<SCITEGIC>MOL_PROPERTY
VdW
SciTegic.value.DoubleValue
0.312

@<SCITEGIC>MOL_PROPERTY
VdW6
SciTegic.value.DoubleValue
-3.061

@<SCITEGIC>MOL_PROPERTY
VdW12
SciTegic.value.DoubleValue
3.372

@<SCITEGIC>MOL_PROPERTY
Bond
SciTegic.value.DoubleValue
0.059

@<SCITEGIC>MOL_PROPERTY
Angle
SciTegic.value.DoubleValue
2.241

@<SCITEGIC>MOL_PROPERTY
Pdih
SciTegic.value.DoubleValue
3.522

@<SCITEGIC>MOL_PROPERTY
Idih
SciTegic.value.DoubleValue
0.000

@<SCITEGIC>MOL_PROPERTY
Tether
SciTegic.value.DoubleValue
0.000

@<TRIPOS>MOLECULE
guest-6_confgen4.mol2 : confsearch ligand conformer 947
          13          12           1
SMALL
USER_CHARGES
 
@<TRIPOS>ATOM
       1    C1      21.212762   20.295822   21.483051 C.2        1 MOL1         0.6021
       2    O1      21.911603   20.779125   22.351462 O.co2      1 MOL1        -0.6904
       3    O2      21.599107   20.090399   20.349718 O.co2      1 MOL1        -0.6904
       4    C2      19.762967   19.963406   21.827029 C.3        1 MOL1        -0.2102
       5    H1      19.197699   19.849197   20.893908 H          1 MOL1         0.0687
       6    H2      19.342825   20.832385   22.347358 H          1 MOL1         0.0687
       7    C3      19.593884   18.701490   22.711516 C.3        1 MOL1        -0.1974
       8    H3      20.196692   18.808696   23.624233 H          1 MOL1         0.0689
       9    H4      18.546063   18.624762   23.032542 H          1 MOL1         0.0689
      10    C4      19.991065   17.406037   21.973968 C.3        1 MOL1        -0.2987
      11    H5      21.047850   17.429403   21.676499 H          1 MOL1         0.0700
      12    H6      19.841069   16.531431   22.620234 H          1 MOL1         0.0700
      13    H7      19.384599   17.267854   21.069260 H          1 MOL1         0.0700
@<TRIPOS>BOND
    1     1     2    1
    2     1     3    2
    3     1     4    1
    4     4     5    1
    5     4     6    1
    6     4     7    1
    7     7     8    1
    8     7     9    1
    9     7    10    1
   10    10    11    1
   11    10    12    1
   12    10    13    1
@<TRIPOS>SUBSTRUCTURE
       1 MOL1            1 RESIDUE      1      MOL     
@<SCITEGIC>MOL_PROPERTY
VConf Rank
SciTegic.value.IntegerValue
947

@<SCITEGIC>MOL_PROPERTY
Conf_Id
SciTegic.value.IntegerValue
4

@<SCITEGIC>MOL_PROPERTY
Delta U+W
SciTegic.value.DoubleValue
0.281

@<SCITEGIC>MOL_PROPERTY
U+W
SciTegic.value.DoubleValue
-58.051

@<SCITEGIC>MOL_PROPERTY
Grad RMS
SciTegic.value.DoubleValue
0.000000

@<SCITEGIC>MOL_PROPERTY
U
SciTegic.value.DoubleValue
9.781

@<SCITEGIC>MOL_PROPERTY
W
SciTegic.value.DoubleValue
-67.832

@<SCITEGIC>MOL_PROPERTY
W(PB)
SciTegic.value.DoubleValue
-69.535

@<SCITEGIC>MOL_PROPERTY
W(SA)
SciTegic.value.DoubleValue
1.703

@<SCITEGIC>MOL_PROPERTY
Valence
SciTegic.value.DoubleValue
6.123

@<SCITEGIC>MOL_PROPERTY
Coulomb
SciTegic.value.DoubleValue
3.449

@<SCITEGIC>MOL_PROPERTY
VdW
SciTegic.value.DoubleValue
0.209

@<SCITEGIC>MOL_PROPERTY
VdW6
SciTegic.value.DoubleValue
-3.762

@<SCITEGIC>MOL_PROPERTY
VdW12
SciTegic.value.DoubleValue
3.972

@<SCITEGIC>MOL_PROPERTY
Bond
SciTegic.value.DoubleValue
0.078

@<SCITEGIC>MOL_PROPERTY
Angle
SciTegic.value.DoubleValue
2.428

@<SCITEGIC>MOL_PROPERTY
Pdih
SciTegic.value.DoubleValue
3.616

@<SCITEGIC>MOL_PROPERTY
Idih
SciTegic.value.DoubleValue
0.002

@<SCITEGIC>MOL_PROPERTY
Tether
SciTegic.value.DoubleValue
0.000

@<TRIPOS>MOLECULE
guest-6_confgen4.mol2 : confsearch ligand conformer 948
          13          12           1
SMALL
USER_CHARGES
 
@<TRIPOS>ATOM
       1    C1      21.583105   19.766129   22.648012 C.2        1 MOL1         0.6021
       2    O1      22.562837   19.369982   22.048764 O.co2      1 MOL1        -0.6904
       3    O2      21.444462   20.914483   23.019708 O.co2      1 MOL1        -0.6904
       4    C2      20.483035   18.762393   22.984290 C.3        1 MOL1        -0.2102
       5    H1      20.234353   18.892688   24.044275 H          1 MOL1         0.0687
       6    H2      20.887414   17.748454   22.876164 H          1 MOL1         0.0687
       7    C3      19.198606   18.918785   22.130404 C.3        1 MOL1        -0.1974
       8    H3      18.414490   18.265429   22.536804 H          1 MOL1         0.0689
       9    H4      18.825258   19.949170   22.213100 H          1 MOL1         0.0689
      10    C4      19.429563   18.565825   20.646489 C.3        1 MOL1        -0.2987
      11    H5      19.782192   17.531623   20.539389 H          1 MOL1         0.0700
      12    H6      18.497824   18.667836   20.075041 H          1 MOL1         0.0700
      13    H7      20.177873   19.230379   20.194577 H          1 MOL1         0.0700
@<TRIPOS>BOND
    1     1     2    1
    2     1     3    2
    3     1     4    1
    4     4     5    1
    5     4     6    1
    6     4     7    1
    7     7     8    1
    8     7     9    1
    9     7    10    1
   10    10    11    1
   11    10    12    1
   12    10    13    1
@<TRIPOS>SUBSTRUCTURE
       1 MOL1            1 RESIDUE      1      MOL     
@<SCITEGIC>MOL_PROPERTY
VConf Rank
SciTegic.value.IntegerValue
948

@<SCITEGIC>MOL_PROPERTY
Conf_Id
SciTegic.value.IntegerValue
36

@<SCITEGIC>MOL_PROPERTY
Delta U+W
SciTegic.value.DoubleValue
0.272

@<SCITEGIC>MOL_PROPERTY
U+W
SciTegic.value.DoubleValue
-58.060

@<SCITEGIC>MOL_PROPERTY
Grad RMS
SciTegic.value.DoubleValue
0.000000

@<SCITEGIC>MOL_PROPERTY
U
SciTegic.value.DoubleValue
9.781

@<SCITEGIC>MOL_PROPERTY
W
SciTegic.value.DoubleValue
-67.841

@<SCITEGIC>MOL_PROPERTY
W(PB)
SciTegic.value.DoubleValue
-69.537

@<SCITEGIC>MOL_PROPERTY
W(SA)
SciTegic.value.DoubleValue
1.696

@<SCITEGIC>MOL_PROPERTY
Valence
SciTegic.value.DoubleValue
6.123

@<SCITEGIC>MOL_PROPERTY
Coulomb
SciTegic.value.DoubleValue
3.449

@<SCITEGIC>MOL_PROPERTY
VdW
SciTegic.value.DoubleValue
0.209

@<SCITEGIC>MOL_PROPERTY
VdW6
SciTegic.value.DoubleValue
-3.762

@<SCITEGIC>MOL_PROPERTY
VdW12
SciTegic.value.DoubleValue
3.972

@<SCITEGIC>MOL_PROPERTY
Bond
SciTegic.value.DoubleValue
0.078

@<SCITEGIC>MOL_PROPERTY
Angle
SciTegic.value.DoubleValue
2.428

@<SCITEGIC>MOL_PROPERTY
Pdih
SciTegic.value.DoubleValue
3.616

@<SCITEGIC>MOL_PROPERTY
Idih
SciTegic.value.DoubleValue
0.002

@<SCITEGIC>MOL_PROPERTY
Tether
SciTegic.value.DoubleValue
0.000

@<TRIPOS>MOLECULE
guest-6_confgen4.mol2 : confsearch ligand conformer 949
          13          12           1
SMALL
USER_CHARGES
 
@<TRIPOS>ATOM
       1    C1      19.149008   17.810254   23.359393 C.2        1 MOL1         0.6021
       2    O1      20.117308   17.161917   23.704909 O.co2      1 MOL1        -0.6904
       3    O2      18.052667   17.682640   23.865898 O.co2      1 MOL1        -0.6904
       4    C2      19.285105   18.841846   22.237796 C.3        1 MOL1        -0.2102
       5    H1      18.969844   19.810542   22.643476 H          1 MOL1         0.0687
       6    H2      18.565196   18.572592   21.455765 H          1 MOL1         0.0687
       7    C3      20.702658   18.969987   21.621290 C.3        1 MOL1        -0.1974
       8    H3      21.423023   19.236995   22.407123 H          1 MOL1         0.0689
       9    H4      21.017915   17.997497   21.218015 H          1 MOL1         0.0689
      10    C4      20.743299   20.030195   20.502298 C.3        1 MOL1        -0.2987
      11    H5      20.461772   21.019064   20.887530 H          1 MOL1         0.0700
      12    H6      21.753233   20.106485   20.078658 H          1 MOL1         0.0700
      13    H7      20.053364   19.769628   19.688900 H          1 MOL1         0.0700
@<TRIPOS>BOND
    1     1     2    1
    2     1     3    2
    3     1     4    1
    4     4     5    1
    5     4     6    1
    6     4     7    1
    7     7     8    1
    8     7     9    1
    9     7    10    1
   10    10    11    1
   11    10    12    1
   12    10    13    1
@<TRIPOS>SUBSTRUCTURE
       1 MOL1            1 RESIDUE      1      MOL     
@<SCITEGIC>MOL_PROPERTY
VConf Rank
SciTegic.value.IntegerValue
949

@<SCITEGIC>MOL_PROPERTY
Conf_Id
SciTegic.value.IntegerValue
0

@<SCITEGIC>MOL_PROPERTY
Delta U+W
SciTegic.value.DoubleValue
0.000

@<SCITEGIC>MOL_PROPERTY
U+W
SciTegic.value.DoubleValue
-58.332

@<SCITEGIC>MOL_PROPERTY
Grad RMS
SciTegic.value.DoubleValue
0.000000

@<SCITEGIC>MOL_PROPERTY
U
SciTegic.value.DoubleValue
8.390

@<SCITEGIC>MOL_PROPERTY
W
SciTegic.value.DoubleValue
-66.722

@<SCITEGIC>MOL_PROPERTY
W(PB)
SciTegic.value.DoubleValue
-68.455

@<SCITEGIC>MOL_PROPERTY
W(SA)
SciTegic.value.DoubleValue
1.733

@<SCITEGIC>MOL_PROPERTY
Valence
SciTegic.value.DoubleValue
6.333

@<SCITEGIC>MOL_PROPERTY
Coulomb
SciTegic.value.DoubleValue
1.215

@<SCITEGIC>MOL_PROPERTY
VdW
SciTegic.value.DoubleValue
0.842

@<SCITEGIC>MOL_PROPERTY
VdW6
SciTegic.value.DoubleValue
-3.344

@<SCITEGIC>MOL_PROPERTY
VdW12
SciTegic.value.DoubleValue
4.186

@<SCITEGIC>MOL_PROPERTY
Bond
SciTegic.value.DoubleValue
0.091

@<SCITEGIC>MOL_PROPERTY
Angle
SciTegic.value.DoubleValue
2.713

@<SCITEGIC>MOL_PROPERTY
Pdih
SciTegic.value.DoubleValue
3.529

@<SCITEGIC>MOL_PROPERTY
Idih
SciTegic.value.DoubleValue
0.000

@<SCITEGIC>MOL_PROPERTY
Tether
SciTegic.value.DoubleValue
0.000

@<TRIPOS>MOLECULE
guest-6_confgen4.mol2 : confsearch ligand conformer 950
          13          12           1
SMALL
USER_CHARGES
 
@<TRIPOS>ATOM
       1    C1      20.999257   20.761814   22.520696 C.2        1 MOL1         0.6021
       2    O1      21.837176   21.224175   21.772714 O.co2      1 MOL1        -0.6904
       3    O2      21.006935   20.930925   23.723485 O.co2      1 MOL1        -0.6904
       4    C2      19.888421   19.907363   21.919484 C.3        1 MOL1        -0.2102
       5    H1      19.668842   20.290082   20.915327 H          1 MOL1         0.0687
       6    H2      18.984168   20.048270   22.524042 H          1 MOL1         0.0687
       7    C3      20.253081   18.404739   21.848827 C.3        1 MOL1        -0.1974
       8    H3      21.165332   18.276796   21.249453 H          1 MOL1         0.0689
       9    H4      20.480401   18.034917   22.858470 H          1 MOL1         0.0689
      10    C4      19.110853   17.569129   21.236976 C.3        1 MOL1        -0.2987
      11    H5      19.387761   16.507599   21.195295 H          1 MOL1         0.0700
      12    H6      18.195113   17.657309   21.836310 H          1 MOL1         0.0700
      13    H7      18.885335   17.901021   20.214945 H          1 MOL1         0.0700
@<TRIPOS>BOND
    1     1     2    1
    2     1     3    2
    3     1     4    1
    4     4     5    1
    5     4     6    1
    6     4     7    1
    7     7     8    1
    8     7     9    1
    9     7    10    1
   10    10    11    1
   11    10    12    1
   12    10    13    1
@<TRIPOS>SUBSTRUCTURE
       1 MOL1            1 RESIDUE      1      MOL     
@<SCITEGIC>MOL_PROPERTY
VConf Rank
SciTegic.value.IntegerValue
950

@<SCITEGIC>MOL_PROPERTY
Conf_Id
SciTegic.value.IntegerValue
1

@<SCITEGIC>MOL_PROPERTY
Delta U+W
SciTegic.value.DoubleValue
-1.339

@<SCITEGIC>MOL_PROPERTY
U+W
SciTegic.value.DoubleValue
-59.672

@<SCITEGIC>MOL_PROPERTY
Grad RMS
SciTegic.value.DoubleValue
0.000000

@<SCITEGIC>MOL_PROPERTY
U
SciTegic.value.DoubleValue
7.389

@<SCITEGIC>MOL_PROPERTY
W
SciTegic.value.DoubleValue
-67.061

@<SCITEGIC>MOL_PROPERTY
W(PB)
SciTegic.value.DoubleValue
-68.767

@<SCITEGIC>MOL_PROPERTY
W(SA)
SciTegic.value.DoubleValue
1.707

@<SCITEGIC>MOL_PROPERTY
Valence
SciTegic.value.DoubleValue
5.822

@<SCITEGIC>MOL_PROPERTY
Coulomb
SciTegic.value.DoubleValue
1.255

@<SCITEGIC>MOL_PROPERTY
VdW
SciTegic.value.DoubleValue
0.312

@<SCITEGIC>MOL_PROPERTY
VdW6
SciTegic.value.DoubleValue
-3.061

@<SCITEGIC>MOL_PROPERTY
VdW12
SciTegic.value.DoubleValue
3.372

@<SCITEGIC>MOL_PROPERTY
Bond
SciTegic.value.DoubleValue
0.059

@<SCITEGIC>MOL_PROPERTY
Angle
SciTegic.value.DoubleValue
2.241

@<SCITEGIC>MOL_PROPERTY
Pdih
SciTegic.value.DoubleValue
3.522

@<SCITEGIC>MOL_PROPERTY
Idih
SciTegic.value.DoubleValue
0.000

@<SCITEGIC>MOL_PROPERTY
Tether
SciTegic.value.DoubleValue
0.000

@<TRIPOS>MOLECULE
guest-6_confgen4.mol2 : confsearch ligand conformer 951
          13          12           1
SMALL
USER_CHARGES
 
@<TRIPOS>ATOM
       1    C1      18.729240   20.042111   21.669045 C.2        1 MOL1         0.6021
       2    O1      18.846654   20.795310   20.722998 O.co2      1 MOL1        -0.6904
       3    O2      17.696539   19.461885   21.938809 O.co2      1 MOL1        -0.6904
       4    C2      19.933762   19.844091   22.585910 C.3        1 MOL1        -0.2102
       5    H1      19.586842   19.415822   23.534340 H          1 MOL1         0.0687
       6    H2      20.336613   20.837701   22.815771 H          1 MOL1         0.0687
       7    C3      21.054449   18.961028   21.979611 C.3        1 MOL1        -0.1974
       8    H3      21.365737   19.375819   21.010606 H          1 MOL1         0.0689
       9    H4      21.934999   18.996346   22.635551 H          1 MOL1         0.0689
      10    C4      20.617429   17.492286   21.801457 C.3        1 MOL1        -0.2987
      11    H5      19.764273   17.414923   21.114458 H          1 MOL1         0.0700
      12    H6      21.438716   16.891562   21.389493 H          1 MOL1         0.0700
      13    H7      20.322932   17.051125   22.762727 H          1 MOL1         0.0700
@<TRIPOS>BOND
    1     1     2    1
    2     1     3    2
    3     1     4    1
    4     4     5    1
    5     4     6    1
    6     4     7    1
    7     7     8    1
    8     7     9    1
    9     7    10    1
   10    10    11    1
   11    10    12    1
   12    10    13    1
@<TRIPOS>SUBSTRUCTURE
       1 MOL1            1 RESIDUE      1      MOL     
@<SCITEGIC>MOL_PROPERTY
VConf Rank
SciTegic.value.IntegerValue
951

@<SCITEGIC>MOL_PROPERTY
Conf_Id
SciTegic.value.IntegerValue
4

@<SCITEGIC>MOL_PROPERTY
Delta U+W
SciTegic.value.DoubleValue
0.281

@<SCITEGIC>MOL_PROPERTY
U+W
SciTegic.value.DoubleValue
-58.051

@<SCITEGIC>MOL_PROPERTY
Grad RMS
SciTegic.value.DoubleValue
0.000000

@<SCITEGIC>MOL_PROPERTY
U
SciTegic.value.DoubleValue
9.781

@<SCITEGIC>MOL_PROPERTY
W
SciTegic.value.DoubleValue
-67.832

@<SCITEGIC>MOL_PROPERTY
W(PB)
SciTegic.value.DoubleValue
-69.535

@<SCITEGIC>MOL_PROPERTY
W(SA)
SciTegic.value.DoubleValue
1.703

@<SCITEGIC>MOL_PROPERTY
Valence
SciTegic.value.DoubleValue
6.123

@<SCITEGIC>MOL_PROPERTY
Coulomb
SciTegic.value.DoubleValue
3.449

@<SCITEGIC>MOL_PROPERTY
VdW
SciTegic.value.DoubleValue
0.209

@<SCITEGIC>MOL_PROPERTY
VdW6
SciTegic.value.DoubleValue
-3.762

@<SCITEGIC>MOL_PROPERTY
VdW12
SciTegic.value.DoubleValue
3.972

@<SCITEGIC>MOL_PROPERTY
Bond
SciTegic.value.DoubleValue
0.078

@<SCITEGIC>MOL_PROPERTY
Angle
SciTegic.value.DoubleValue
2.428

@<SCITEGIC>MOL_PROPERTY
Pdih
SciTegic.value.DoubleValue
3.616

@<SCITEGIC>MOL_PROPERTY
Idih
SciTegic.value.DoubleValue
0.002

@<SCITEGIC>MOL_PROPERTY
Tether
SciTegic.value.DoubleValue
0.000

@<TRIPOS>MOLECULE
guest-6_confgen4.mol2 : confsearch ligand conformer 952
          13          12           1
SMALL
USER_CHARGES
 
@<TRIPOS>ATOM
       1    C1      20.933266   19.949033   20.738937 C.2        1 MOL1         0.6021
       2    O1      20.277485   19.927813   19.716486 O.co2      1 MOL1        -0.6904
       3    O2      21.528227   20.932488   21.132555 O.co2      1 MOL1        -0.6904
       4    C2      21.046632   18.663892   21.555199 C.3        1 MOL1        -0.2102
       5    H1      22.108113   18.516585   21.787464 H          1 MOL1         0.0687
       6    H2      20.740034   17.819515   20.925666 H          1 MOL1         0.0687
       7    C3      20.227437   18.673682   22.871315 C.3        1 MOL1        -0.1974
       8    H3      20.484059   17.783411   23.461599 H          1 MOL1         0.0689
       9    H4      20.512821   19.546214   23.475603 H          1 MOL1         0.0689
      10    C4      18.705539   18.689694   22.619329 C.3        1 MOL1        -0.2987
      11    H5      18.395248   17.813416   22.035165 H          1 MOL1         0.0700
      12    H6      18.155942   18.676371   23.569519 H          1 MOL1         0.0700
      13    H7      18.406209   19.591062   22.068181 H          1 MOL1         0.0700
@<TRIPOS>BOND
    1     1     2    1
    2     1     3    2
    3     1     4    1
    4     4     5    1
    5     4     6    1
    6     4     7    1
    7     7     8    1
    8     7     9    1
    9     7    10    1
   10    10    11    1
   11    10    12    1
   12    10    13    1
@<TRIPOS>SUBSTRUCTURE
       1 MOL1            1 RESIDUE      1      MOL     
@<SCITEGIC>MOL_PROPERTY
VConf Rank
SciTegic.value.IntegerValue
952

@<SCITEGIC>MOL_PROPERTY
Conf_Id
SciTegic.value.IntegerValue
36

@<SCITEGIC>MOL_PROPERTY
Delta U+W
SciTegic.value.DoubleValue
0.272

@<SCITEGIC>MOL_PROPERTY
U+W
SciTegic.value.DoubleValue
-58.060

@<SCITEGIC>MOL_PROPERTY
Grad RMS
SciTegic.value.DoubleValue
0.000000

@<SCITEGIC>MOL_PROPERTY
U
SciTegic.value.DoubleValue
9.781

@<SCITEGIC>MOL_PROPERTY
W
SciTegic.value.DoubleValue
-67.841

@<SCITEGIC>MOL_PROPERTY
W(PB)
SciTegic.value.DoubleValue
-69.537

@<SCITEGIC>MOL_PROPERTY
W(SA)
SciTegic.value.DoubleValue
1.696

@<SCITEGIC>MOL_PROPERTY
Valence
SciTegic.value.DoubleValue
6.123

@<SCITEGIC>MOL_PROPERTY
Coulomb
SciTegic.value.DoubleValue
3.449

@<SCITEGIC>MOL_PROPERTY
VdW
SciTegic.value.DoubleValue
0.209

@<SCITEGIC>MOL_PROPERTY
VdW6
SciTegic.value.DoubleValue
-3.762

@<SCITEGIC>MOL_PROPERTY
VdW12
SciTegic.value.DoubleValue
3.972

@<SCITEGIC>MOL_PROPERTY
Bond
SciTegic.value.DoubleValue
0.078

@<SCITEGIC>MOL_PROPERTY
Angle
SciTegic.value.DoubleValue
2.428

@<SCITEGIC>MOL_PROPERTY
Pdih
SciTegic.value.DoubleValue
3.616

@<SCITEGIC>MOL_PROPERTY
Idih
SciTegic.value.DoubleValue
0.002

@<SCITEGIC>MOL_PROPERTY
Tether
SciTegic.value.DoubleValue
0.000

@<TRIPOS>MOLECULE
guest-6_confgen4.mol2 : confsearch ligand conformer 953
          13          12           1
SMALL
USER_CHARGES
 
@<TRIPOS>ATOM
       1    C1      21.506739   17.533145   21.383539 C.2        1 MOL1         0.6021
       2    O1      21.526805   16.927718   22.437287 O.co2      1 MOL1        -0.6904
       3    O2      22.213087   17.241531   20.439701 O.co2      1 MOL1        -0.6904
       4    C2      20.559631   18.721633   21.207007 C.3        1 MOL1        -0.2102
       5    H1      19.920576   18.505826   20.342499 H          1 MOL1         0.0687
       6    H2      21.171875   19.592224   20.943253 H          1 MOL1         0.0687
       7    C3      19.677523   19.056891   22.438041 C.3        1 MOL1        -0.1974
       8    H3      19.066939   18.182240   22.702479 H          1 MOL1         0.0689
       9    H4      20.319780   19.269902   23.304001 H          1 MOL1         0.0689
      10    C4      18.758300   20.265141   22.167864 C.3        1 MOL1        -0.2987
      11    H5      18.083843   20.064994   21.324910 H          1 MOL1         0.0700
      12    H6      18.142537   20.487023   23.049262 H          1 MOL1         0.0700
      13    H7      19.346757   21.161375   21.931209 H          1 MOL1         0.0700
@<TRIPOS>BOND
    1     1     2    1
    2     1     3    2
    3     1     4    1
    4     4     5    1
    5     4     6    1
    6     4     7    1
    7     7     8    1
    8     7     9    1
    9     7    10    1
   10    10    11    1
   11    10    12    1
   12    10    13    1
@<TRIPOS>SUBSTRUCTURE
       1 MOL1            1 RESIDUE      1      MOL     
@<SCITEGIC>MOL_PROPERTY
VConf Rank
SciTegic.value.IntegerValue
953

@<SCITEGIC>MOL_PROPERTY
Conf_Id
SciTegic.value.IntegerValue
0

@<SCITEGIC>MOL_PROPERTY
Delta U+W
SciTegic.value.DoubleValue
0.000

@<SCITEGIC>MOL_PROPERTY
U+W
SciTegic.value.DoubleValue
-58.332

@<SCITEGIC>MOL_PROPERTY
Grad RMS
SciTegic.value.DoubleValue
0.000000

@<SCITEGIC>MOL_PROPERTY
U
SciTegic.value.DoubleValue
8.390

@<SCITEGIC>MOL_PROPERTY
W
SciTegic.value.DoubleValue
-66.722

@<SCITEGIC>MOL_PROPERTY
W(PB)
SciTegic.value.DoubleValue
-68.455

@<SCITEGIC>MOL_PROPERTY
W(SA)
SciTegic.value.DoubleValue
1.733

@<SCITEGIC>MOL_PROPERTY
Valence
SciTegic.value.DoubleValue
6.333

@<SCITEGIC>MOL_PROPERTY
Coulomb
SciTegic.value.DoubleValue
1.215

@<SCITEGIC>MOL_PROPERTY
VdW
SciTegic.value.DoubleValue
0.842

@<SCITEGIC>MOL_PROPERTY
VdW6
SciTegic.value.DoubleValue
-3.344

@<SCITEGIC>MOL_PROPERTY
VdW12
SciTegic.value.DoubleValue
4.186

@<SCITEGIC>MOL_PROPERTY
Bond
SciTegic.value.DoubleValue
0.091

@<SCITEGIC>MOL_PROPERTY
Angle
SciTegic.value.DoubleValue
2.713

@<SCITEGIC>MOL_PROPERTY
Pdih
SciTegic.value.DoubleValue
3.529

@<SCITEGIC>MOL_PROPERTY
Idih
SciTegic.value.DoubleValue
0.000

@<SCITEGIC>MOL_PROPERTY
Tether
SciTegic.value.DoubleValue
0.000

@<TRIPOS>MOLECULE
guest-6_confgen4.mol2 : confsearch ligand conformer 954
          13          12           1
SMALL
USER_CHARGES
 
@<TRIPOS>ATOM
       1    C1      19.802423   17.197454   22.847849 C.2        1 MOL1         0.6021
       2    O1      19.312338   17.247495   23.958107 O.co2      1 MOL1        -0.6904
       3    O2      20.543770   16.307933   22.481082 O.co2      1 MOL1        -0.6904
       4    C2      19.484875   18.321850   21.867851 C.3        1 MOL1        -0.2102
       5    H1      18.467316   18.676188   22.072878 H          1 MOL1         0.0687
       6    H2      19.482809   17.901360   20.854835 H          1 MOL1         0.0687
       7    C3      20.486243   19.499013   21.953867 C.3        1 MOL1        -0.1974
       8    H3      20.487052   19.905608   22.974897 H          1 MOL1         0.0689
       9    H4      21.502700   19.130660   21.756501 H          1 MOL1         0.0689
      10    C4      20.138017   20.617977   20.951894 C.3        1 MOL1        -0.2987
      11    H5      20.858432   21.442911   21.027712 H          1 MOL1         0.0700
      12    H6      20.160058   20.242390   19.920389 H          1 MOL1         0.0700
      13    H7      19.136643   21.023299   21.148162 H          1 MOL1         0.0700
@<TRIPOS>BOND
    1     1     2    1
    2     1     3    2
    3     1     4    1
    4     4     5    1
    5     4     6    1
    6     4     7    1
    7     7     8    1
    8     7     9    1
    9     7    10    1
   10    10    11    1
   11    10    12    1
   12    10    13    1
@<TRIPOS>SUBSTRUCTURE
       1 MOL1            1 RESIDUE      1      MOL     
@<SCITEGIC>MOL_PROPERTY
VConf Rank
SciTegic.value.IntegerValue
954

@<SCITEGIC>MOL_PROPERTY
Conf_Id
SciTegic.value.IntegerValue
1

@<SCITEGIC>MOL_PROPERTY
Delta U+W
SciTegic.value.DoubleValue
-1.339

@<SCITEGIC>MOL_PROPERTY
U+W
SciTegic.value.DoubleValue
-59.672

@<SCITEGIC>MOL_PROPERTY
Grad RMS
SciTegic.value.DoubleValue
0.000000

@<SCITEGIC>MOL_PROPERTY
U
SciTegic.value.DoubleValue
7.389

@<SCITEGIC>MOL_PROPERTY
W
SciTegic.value.DoubleValue
-67.061

@<SCITEGIC>MOL_PROPERTY
W(PB)
SciTegic.value.DoubleValue
-68.767

@<SCITEGIC>MOL_PROPERTY
W(SA)
SciTegic.value.DoubleValue
1.707

@<SCITEGIC>MOL_PROPERTY
Valence
SciTegic.value.DoubleValue
5.822

@<SCITEGIC>MOL_PROPERTY
Coulomb
SciTegic.value.DoubleValue
1.255

@<SCITEGIC>MOL_PROPERTY
VdW
SciTegic.value.DoubleValue
0.312

@<SCITEGIC>MOL_PROPERTY
VdW6
SciTegic.value.DoubleValue
-3.061

@<SCITEGIC>MOL_PROPERTY
VdW12
SciTegic.value.DoubleValue
3.372

@<SCITEGIC>MOL_PROPERTY
Bond
SciTegic.value.DoubleValue
0.059

@<SCITEGIC>MOL_PROPERTY
Angle
SciTegic.value.DoubleValue
2.241

@<SCITEGIC>MOL_PROPERTY
Pdih
SciTegic.value.DoubleValue
3.522

@<SCITEGIC>MOL_PROPERTY
Idih
SciTegic.value.DoubleValue
0.000

@<SCITEGIC>MOL_PROPERTY
Tether
SciTegic.value.DoubleValue
0.000

@<TRIPOS>MOLECULE
guest-6_confgen4.mol2 : confsearch ligand conformer 955
          13          12           1
SMALL
USER_CHARGES
 
@<TRIPOS>ATOM
       1    C1      21.138341   19.012888   23.474258 C.2        1 MOL1         0.6021
       2    O1      22.228025   19.537406   23.357776 O.co2      1 MOL1        -0.6904
       3    O2      20.428903   19.152620   24.450514 O.co2      1 MOL1        -0.6904
       4    C2      20.653263   18.102314   22.348965 C.3        1 MOL1        -0.2102
       5    H1      19.840114   17.473337   22.731671 H          1 MOL1         0.0687
       6    H2      21.480445   17.429449   22.093214 H          1 MOL1         0.0687
       7    C3      20.190569   18.857327   21.076484 C.3        1 MOL1        -0.1974
       8    H3      20.997832   19.515327   20.725364 H          1 MOL1         0.0689
       9    H4      20.004614   18.130231   20.274222 H          1 MOL1         0.0689
      10    C4      18.910137   19.684490   21.313597 C.3        1 MOL1        -0.2987
      11    H5      19.073206   20.453105   22.080713 H          1 MOL1         0.0700
      12    H6      18.599228   20.189504   20.389804 H          1 MOL1         0.0700
      13    H7      18.083507   19.042010   21.644194 H          1 MOL1         0.0700
@<TRIPOS>BOND
    1     1     2    1
    2     1     3    2
    3     1     4    1
    4     4     5    1
    5     4     6    1
    6     4     7    1
    7     7     8    1
    8     7     9    1
    9     7    10    1
   10    10    11    1
   11    10    12    1
   12    10    13    1
@<TRIPOS>SUBSTRUCTURE
       1 MOL1            1 RESIDUE      1      MOL     
@<SCITEGIC>MOL_PROPERTY
VConf Rank
SciTegic.value.IntegerValue
955

@<SCITEGIC>MOL_PROPERTY
Conf_Id
SciTegic.value.IntegerValue
4

@<SCITEGIC>MOL_PROPERTY
Delta U+W
SciTegic.value.DoubleValue
0.281

@<SCITEGIC>MOL_PROPERTY
U+W
SciTegic.value.DoubleValue
-58.051

@<SCITEGIC>MOL_PROPERTY
Grad RMS
SciTegic.value.DoubleValue
0.000000

@<SCITEGIC>MOL_PROPERTY
U
SciTegic.value.DoubleValue
9.781

@<SCITEGIC>MOL_PROPERTY
W
SciTegic.value.DoubleValue
-67.832

@<SCITEGIC>MOL_PROPERTY
W(PB)
SciTegic.value.DoubleValue
-69.535

@<SCITEGIC>MOL_PROPERTY
W(SA)
SciTegic.value.DoubleValue
1.703

@<SCITEGIC>MOL_PROPERTY
Valence
SciTegic.value.DoubleValue
6.123

@<SCITEGIC>MOL_PROPERTY
Coulomb
SciTegic.value.DoubleValue
3.449

@<SCITEGIC>MOL_PROPERTY
VdW
SciTegic.value.DoubleValue
0.209

@<SCITEGIC>MOL_PROPERTY
VdW6
SciTegic.value.DoubleValue
-3.762

@<SCITEGIC>MOL_PROPERTY
VdW12
SciTegic.value.DoubleValue
3.972

@<SCITEGIC>MOL_PROPERTY
Bond
SciTegic.value.DoubleValue
0.078

@<SCITEGIC>MOL_PROPERTY
Angle
SciTegic.value.DoubleValue
2.428

@<SCITEGIC>MOL_PROPERTY
Pdih
SciTegic.value.DoubleValue
3.616

@<SCITEGIC>MOL_PROPERTY
Idih
SciTegic.value.DoubleValue
0.002

@<SCITEGIC>MOL_PROPERTY
Tether
SciTegic.value.DoubleValue
0.000

@<TRIPOS>MOLECULE
guest-6_confgen4.mol2 : confsearch ligand conformer 956
          13          12           1
SMALL
USER_CHARGES
 
@<TRIPOS>ATOM
       1    C1      20.432170   20.151051   20.688375 C.2        1 MOL1         0.6021
       2    O1      19.568031   21.004943   20.694502 O.co2      1 MOL1        -0.6904
       3    O2      21.600571   20.382509   20.448869 O.co2      1 MOL1        -0.6904
       4    C2      20.025395   18.704922   20.960350 C.3        1 MOL1        -0.2102
       5    H1      20.483342   18.084299   20.180929 H          1 MOL1         0.0687
       6    H2      18.938893   18.616513   20.837942 H          1 MOL1         0.0687
       7    C3      20.450181   18.177770   22.354984 C.3        1 MOL1        -0.1974
       8    H3      20.254816   17.097927   22.406388 H          1 MOL1         0.0689
       9    H4      21.533797   18.309038   22.483307 H          1 MOL1         0.0689
      10    C4      19.700346   18.880814   23.505377 C.3        1 MOL1        -0.2987
      11    H5      18.615418   18.743117   23.408619 H          1 MOL1         0.0700
      12    H6      20.009437   18.471307   24.475873 H          1 MOL1         0.0700
      13    H7      19.908615   19.958966   23.511501 H          1 MOL1         0.0700
@<TRIPOS>BOND
    1     1     2    1
    2     1     3    2
    3     1     4    1
    4     4     5    1
    5     4     6    1
    6     4     7    1
    7     7     8    1
    8     7     9    1
    9     7    10    1
   10    10    11    1
   11    10    12    1
   12    10    13    1
@<TRIPOS>SUBSTRUCTURE
       1 MOL1            1 RESIDUE      1      MOL     
@<SCITEGIC>MOL_PROPERTY
VConf Rank
SciTegic.value.IntegerValue
956

@<SCITEGIC>MOL_PROPERTY
Conf_Id
SciTegic.value.IntegerValue
36

@<SCITEGIC>MOL_PROPERTY
Delta U+W
SciTegic.value.DoubleValue
0.272

@<SCITEGIC>MOL_PROPERTY
U+W
SciTegic.value.DoubleValue
-58.060

@<SCITEGIC>MOL_PROPERTY
Grad RMS
SciTegic.value.DoubleValue
0.000000

@<SCITEGIC>MOL_PROPERTY
U
SciTegic.value.DoubleValue
9.781

@<SCITEGIC>MOL_PROPERTY
W
SciTegic.value.DoubleValue
-67.841

@<SCITEGIC>MOL_PROPERTY
W(PB)
SciTegic.value.DoubleValue
-69.537

@<SCITEGIC>MOL_PROPERTY
W(SA)
SciTegic.value.DoubleValue
1.696

@<SCITEGIC>MOL_PROPERTY
Valence
SciTegic.value.DoubleValue
6.123

@<SCITEGIC>MOL_PROPERTY
Coulomb
SciTegic.value.DoubleValue
3.449

@<SCITEGIC>MOL_PROPERTY
VdW
SciTegic.value.DoubleValue
0.209

@<SCITEGIC>MOL_PROPERTY
VdW6
SciTegic.value.DoubleValue
-3.762

@<SCITEGIC>MOL_PROPERTY
VdW12
SciTegic.value.DoubleValue
3.972

@<SCITEGIC>MOL_PROPERTY
Bond
SciTegic.value.DoubleValue
0.078

@<SCITEGIC>MOL_PROPERTY
Angle
SciTegic.value.DoubleValue
2.428

@<SCITEGIC>MOL_PROPERTY
Pdih
SciTegic.value.DoubleValue
3.616

@<SCITEGIC>MOL_PROPERTY
Idih
SciTegic.value.DoubleValue
0.002

@<SCITEGIC>MOL_PROPERTY
Tether
SciTegic.value.DoubleValue
0.000

@<TRIPOS>MOLECULE
guest-6_confgen4.mol2 : confsearch ligand conformer 957
          13          12           1
SMALL
USER_CHARGES
 
@<TRIPOS>ATOM
       1    C1      22.127850   18.784909   21.557889 C.2        1 MOL1         0.6021
       2    O1      22.150938   17.883613   20.742745 O.co2      1 MOL1        -0.6904
       3    O2      23.133348   19.305892   21.996462 O.co2      1 MOL1        -0.6904
       4    C2      20.786598   19.308907   22.074758 C.3        1 MOL1        -0.2102
       5    H1      20.749286   20.383289   21.858775 H          1 MOL1         0.0687
       6    H2      20.791393   19.201635   23.165999 H          1 MOL1         0.0687
       7    C3      19.530632   18.613914   21.486974 C.3        1 MOL1        -0.1974
       8    H3      19.529256   18.720060   20.393134 H          1 MOL1         0.0689
       9    H4      19.571450   17.536930   21.701900 H          1 MOL1         0.0689
      10    C4      18.229291   19.206274   22.064432 C.3        1 MOL1        -0.2987
      11    H5      18.149683   20.277196   21.835717 H          1 MOL1         0.0700
      12    H6      17.352414   18.702419   21.637262 H          1 MOL1         0.0700
      13    H7      18.192252   19.084607   23.155005 H          1 MOL1         0.0700
@<TRIPOS>BOND
    1     1     2    1
    2     1     3    2
    3     1     4    1
    4     4     5    1
    5     4     6    1
    6     4     7    1
    7     7     8    1
    8     7     9    1
    9     7    10    1
   10    10    11    1
   11    10    12    1
   12    10    13    1
@<TRIPOS>SUBSTRUCTURE
       1 MOL1            1 RESIDUE      1      MOL     
@<SCITEGIC>MOL_PROPERTY
VConf Rank
SciTegic.value.IntegerValue
957

@<SCITEGIC>MOL_PROPERTY
Conf_Id
SciTegic.value.IntegerValue
0

@<SCITEGIC>MOL_PROPERTY
Delta U+W
SciTegic.value.DoubleValue
0.000

@<SCITEGIC>MOL_PROPERTY
U+W
SciTegic.value.DoubleValue
-58.332

@<SCITEGIC>MOL_PROPERTY
Grad RMS
SciTegic.value.DoubleValue
0.000000

@<SCITEGIC>MOL_PROPERTY
U
SciTegic.value.DoubleValue
8.390

@<SCITEGIC>MOL_PROPERTY
W
SciTegic.value.DoubleValue
-66.722

@<SCITEGIC>MOL_PROPERTY
W(PB)
SciTegic.value.DoubleValue
-68.455

@<SCITEGIC>MOL_PROPERTY
W(SA)
SciTegic.value.DoubleValue
1.733

@<SCITEGIC>MOL_PROPERTY
Valence
SciTegic.value.DoubleValue
6.333

@<SCITEGIC>MOL_PROPERTY
Coulomb
SciTegic.value.DoubleValue
1.215

@<SCITEGIC>MOL_PROPERTY
VdW
SciTegic.value.DoubleValue
0.842

@<SCITEGIC>MOL_PROPERTY
VdW6
SciTegic.value.DoubleValue
-3.344

@<SCITEGIC>MOL_PROPERTY
VdW12
SciTegic.value.DoubleValue
4.186

@<SCITEGIC>MOL_PROPERTY
Bond
SciTegic.value.DoubleValue
0.091

@<SCITEGIC>MOL_PROPERTY
Angle
SciTegic.value.DoubleValue
2.713

@<SCITEGIC>MOL_PROPERTY
Pdih
SciTegic.value.DoubleValue
3.529

@<SCITEGIC>MOL_PROPERTY
Idih
SciTegic.value.DoubleValue
0.000

@<SCITEGIC>MOL_PROPERTY
Tether
SciTegic.value.DoubleValue
0.000

@<TRIPOS>MOLECULE
guest-6_confgen4.mol2 : confsearch ligand conformer 958
          13          12           1
SMALL
USER_CHARGES
 
@<TRIPOS>ATOM
       1    C1      20.003709   17.015426   22.434459 C.2        1 MOL1         0.6021
       2    O1      19.361382   16.750485   23.430744 O.co2      1 MOL1        -0.6904
       3    O2      20.940343   16.348524   22.042899 O.co2      1 MOL1        -0.6904
       4    C2      19.625760   18.263003   21.643128 C.3        1 MOL1        -0.2102
       5    H1      18.541791   18.406560   21.729274 H          1 MOL1         0.0687
       6    H2      19.843880   18.075067   20.584769 H          1 MOL1         0.0687
       7    C3      20.370916   19.531846   22.123365 C.3        1 MOL1        -0.1974
       8    H3      20.153004   19.704459   23.186634 H          1 MOL1         0.0689
       9    H4      21.455315   19.372950   22.041792 H          1 MOL1         0.0689
      10    C4      19.967220   20.774264   21.304391 C.3        1 MOL1        -0.2987
      11    H5      20.505389   21.662929   21.659227 H          1 MOL1         0.0700
      12    H6      20.203125   20.637280   20.240840 H          1 MOL1         0.0700
      13    H7      18.890839   20.971345   21.394501 H          1 MOL1         0.0700
@<TRIPOS>BOND
    1     1     2    1
    2     1     3    2
    3     1     4    1
    4     4     5    1
    5     4     6    1
    6     4     7    1
    7     7     8    1
    8     7     9    1
    9     7    10    1
   10    10    11    1
   11    10    12    1
   12    10    13    1
@<TRIPOS>SUBSTRUCTURE
       1 MOL1            1 RESIDUE      1      MOL     
@<SCITEGIC>MOL_PROPERTY
VConf Rank
SciTegic.value.IntegerValue
958

@<SCITEGIC>MOL_PROPERTY
Conf_Id
SciTegic.value.IntegerValue
1

@<SCITEGIC>MOL_PROPERTY
Delta U+W
SciTegic.value.DoubleValue
-1.339

@<SCITEGIC>MOL_PROPERTY
U+W
SciTegic.value.DoubleValue
-59.672

@<SCITEGIC>MOL_PROPERTY
Grad RMS
SciTegic.value.DoubleValue
0.000000

@<SCITEGIC>MOL_PROPERTY
U
SciTegic.value.DoubleValue
7.389

@<SCITEGIC>MOL_PROPERTY
W
SciTegic.value.DoubleValue
-67.061

@<SCITEGIC>MOL_PROPERTY
W(PB)
SciTegic.value.DoubleValue
-68.767

@<SCITEGIC>MOL_PROPERTY
W(SA)
SciTegic.value.DoubleValue
1.707

@<SCITEGIC>MOL_PROPERTY
Valence
SciTegic.value.DoubleValue
5.822

@<SCITEGIC>MOL_PROPERTY
Coulomb
SciTegic.value.DoubleValue
1.255

@<SCITEGIC>MOL_PROPERTY
VdW
SciTegic.value.DoubleValue
0.312

@<SCITEGIC>MOL_PROPERTY
VdW6
SciTegic.value.DoubleValue
-3.061

@<SCITEGIC>MOL_PROPERTY
VdW12
SciTegic.value.DoubleValue
3.372

@<SCITEGIC>MOL_PROPERTY
Bond
SciTegic.value.DoubleValue
0.059

@<SCITEGIC>MOL_PROPERTY
Angle
SciTegic.value.DoubleValue
2.241

@<SCITEGIC>MOL_PROPERTY
Pdih
SciTegic.value.DoubleValue
3.522

@<SCITEGIC>MOL_PROPERTY
Idih
SciTegic.value.DoubleValue
0.000

@<SCITEGIC>MOL_PROPERTY
Tether
SciTegic.value.DoubleValue
0.000

@<TRIPOS>MOLECULE
guest-6_confgen4.mol2 : confsearch ligand conformer 959
          13          12           1
SMALL
USER_CHARGES
 
@<TRIPOS>ATOM
       1    C1      19.589145   20.283637   23.088603 C.2        1 MOL1         0.6021
       2    O1      20.382461   20.623689   23.943655 O.co2      1 MOL1        -0.6904
       3    O2      18.892554   21.065428   22.472592 O.co2      1 MOL1        -0.6904
       4    C2      19.435876   18.792259   22.800455 C.3        1 MOL1        -0.2102
       5    H1      18.491321   18.632858   22.265952 H          1 MOL1         0.0687
       6    H2      19.343628   18.280470   23.765830 H          1 MOL1         0.0687
       7    C3      20.612411   18.176225   22.000702 C.3        1 MOL1        -0.1974
       8    H3      21.557843   18.377381   22.523785 H          1 MOL1         0.0689
       9    H4      20.494493   17.084408   21.970600 H          1 MOL1         0.0689
      10    C4      20.690901   18.714548   20.557103 C.3        1 MOL1        -0.2987
      11    H5      20.853533   19.800511   20.549137 H          1 MOL1         0.0700
      12    H6      21.520753   18.244473   20.013531 H          1 MOL1         0.0700
      13    H7      19.763265   18.504122   20.008830 H          1 MOL1         0.0700
@<TRIPOS>BOND
    1     1     2    1
    2     1     3    2
    3     1     4    1
    4     4     5    1
    5     4     6    1
    6     4     7    1
    7     7     8    1
    8     7     9    1
    9     7    10    1
   10    10    11    1
   11    10    12    1
   12    10    13    1
@<TRIPOS>SUBSTRUCTURE
       1 MOL1            1 RESIDUE      1      MOL     
@<SCITEGIC>MOL_PROPERTY
VConf Rank
SciTegic.value.IntegerValue
959

@<SCITEGIC>MOL_PROPERTY
Conf_Id
SciTegic.value.IntegerValue
4

@<SCITEGIC>MOL_PROPERTY
Delta U+W
SciTegic.value.DoubleValue
0.281

@<SCITEGIC>MOL_PROPERTY
U+W
SciTegic.value.DoubleValue
-58.051

@<SCITEGIC>MOL_PROPERTY
Grad RMS
SciTegic.value.DoubleValue
0.000000

@<SCITEGIC>MOL_PROPERTY
U
SciTegic.value.DoubleValue
9.781

@<SCITEGIC>MOL_PROPERTY
W
SciTegic.value.DoubleValue
-67.832

@<SCITEGIC>MOL_PROPERTY
W(PB)
SciTegic.value.DoubleValue
-69.535

@<SCITEGIC>MOL_PROPERTY
W(SA)
SciTegic.value.DoubleValue
1.703

@<SCITEGIC>MOL_PROPERTY
Valence
SciTegic.value.DoubleValue
6.123

@<SCITEGIC>MOL_PROPERTY
Coulomb
SciTegic.value.DoubleValue
3.449

@<SCITEGIC>MOL_PROPERTY
VdW
SciTegic.value.DoubleValue
0.209

@<SCITEGIC>MOL_PROPERTY
VdW6
SciTegic.value.DoubleValue
-3.762

@<SCITEGIC>MOL_PROPERTY
VdW12
SciTegic.value.DoubleValue
3.972

@<SCITEGIC>MOL_PROPERTY
Bond
SciTegic.value.DoubleValue
0.078

@<SCITEGIC>MOL_PROPERTY
Angle
SciTegic.value.DoubleValue
2.428

@<SCITEGIC>MOL_PROPERTY
Pdih
SciTegic.value.DoubleValue
3.616

@<SCITEGIC>MOL_PROPERTY
Idih
SciTegic.value.DoubleValue
0.002

@<SCITEGIC>MOL_PROPERTY
Tether
SciTegic.value.DoubleValue
0.000

@<TRIPOS>MOLECULE
guest-6_confgen4.mol2 : confsearch ligand conformer 960
          13          12           1
SMALL
USER_CHARGES
 
@<TRIPOS>ATOM
       1    C1      19.150402   17.459397   22.024734 C.2        1 MOL1         0.6021
       2    O1      19.502614   16.733006   21.116875 O.co2      1 MOL1        -0.6904
       3    O2      18.831020   17.051116   23.123551 O.co2      1 MOL1        -0.6904
       4    C2      19.069687   18.961278   21.762886 C.3        1 MOL1        -0.2102
       5    H1      18.097456   19.306238   22.134578 H          1 MOL1         0.0687
       6    H2      19.072239   19.129667   20.678947 H          1 MOL1         0.0687
       7    C3      20.199509   19.784030   22.433648 C.3        1 MOL1        -0.1974
       8    H3      19.980365   20.854655   22.321356 H          1 MOL1         0.0689
       9    H4      20.214640   19.576341   23.512795 H          1 MOL1         0.0689
      10    C4      21.586266   19.487160   21.826440 C.3        1 MOL1        -0.2987
      11    H5      21.599643   19.709348   20.751338 H          1 MOL1         0.0700
      12    H6      22.359090   20.099226   22.309362 H          1 MOL1         0.0700
      13    H7      21.858081   18.431713   21.960508 H          1 MOL1         0.0700
@<TRIPOS>BOND
    1     1     2    1
    2     1     3    2
    3     1     4    1
    4     4     5    1
    5     4     6    1
    6     4     7    1
    7     7     8    1
    8     7     9    1
    9     7    10    1
   10    10    11    1
   11    10    12    1
   12    10    13    1
@<TRIPOS>SUBSTRUCTURE
       1 MOL1            1 RESIDUE      1      MOL     
@<SCITEGIC>MOL_PROPERTY
VConf Rank
SciTegic.value.IntegerValue
960

@<SCITEGIC>MOL_PROPERTY
Conf_Id
SciTegic.value.IntegerValue
36

@<SCITEGIC>MOL_PROPERTY
Delta U+W
SciTegic.value.DoubleValue
0.272

@<SCITEGIC>MOL_PROPERTY
U+W
SciTegic.value.DoubleValue
-58.060

@<SCITEGIC>MOL_PROPERTY
Grad RMS
SciTegic.value.DoubleValue
0.000000

@<SCITEGIC>MOL_PROPERTY
U
SciTegic.value.DoubleValue
9.781

@<SCITEGIC>MOL_PROPERTY
W
SciTegic.value.DoubleValue
-67.841

@<SCITEGIC>MOL_PROPERTY
W(PB)
SciTegic.value.DoubleValue
-69.537

@<SCITEGIC>MOL_PROPERTY
W(SA)
SciTegic.value.DoubleValue
1.696

@<SCITEGIC>MOL_PROPERTY
Valence
SciTegic.value.DoubleValue
6.123

@<SCITEGIC>MOL_PROPERTY
Coulomb
SciTegic.value.DoubleValue
3.449

@<SCITEGIC>MOL_PROPERTY
VdW
SciTegic.value.DoubleValue
0.209

@<SCITEGIC>MOL_PROPERTY
VdW6
SciTegic.value.DoubleValue
-3.762

@<SCITEGIC>MOL_PROPERTY
VdW12
SciTegic.value.DoubleValue
3.972

@<SCITEGIC>MOL_PROPERTY
Bond
SciTegic.value.DoubleValue
0.078

@<SCITEGIC>MOL_PROPERTY
Angle
SciTegic.value.DoubleValue
2.428

@<SCITEGIC>MOL_PROPERTY
Pdih
SciTegic.value.DoubleValue
3.616

@<SCITEGIC>MOL_PROPERTY
Idih
SciTegic.value.DoubleValue
0.002

@<SCITEGIC>MOL_PROPERTY
Tether
SciTegic.value.DoubleValue
0.000

@<TRIPOS>MOLECULE
guest-6_confgen4.mol2 : confsearch ligand conformer 961
          13          12           1
SMALL
USER_CHARGES
 
@<TRIPOS>ATOM
       1    C1      20.329946   17.061536   22.653115 C.2        1 MOL1         0.6021
       2    O1      19.177018   16.712082   22.814262 O.co2      1 MOL1        -0.6904
       3    O2      21.279637   16.363293   22.945246 O.co2      1 MOL1        -0.6904
       4    C2      20.631372   18.438182   22.057573 C.3        1 MOL1        -0.2102
       5    H1      21.241658   18.280609   21.160322 H          1 MOL1         0.0687
       6    H2      21.256268   18.977737   22.779183 H          1 MOL1         0.0687
       7    C3      19.388220   19.294209   21.700156 C.3        1 MOL1        -0.1974
       8    H3      18.761882   18.750500   20.979159 H          1 MOL1         0.0689
       9    H4      18.776463   19.448426   22.600003 H          1 MOL1         0.0689
      10    C4      19.788737   20.660596   21.108202 C.3        1 MOL1        -0.2987
      11    H5      20.375790   20.533755   20.189070 H          1 MOL1         0.0700
      12    H6      18.896865   21.251464   20.861838 H          1 MOL1         0.0700
      13    H7      20.390536   21.237255   21.822922 H          1 MOL1         0.0700
@<TRIPOS>BOND
    1     1     2    1
    2     1     3    2
    3     1     4    1
    4     4     5    1
    5     4     6    1
    6     4     7    1
    7     7     8    1
    8     7     9    1
    9     7    10    1
   10    10    11    1
   11    10    12    1
   12    10    13    1
@<TRIPOS>SUBSTRUCTURE
       1 MOL1            1 RESIDUE      1      MOL     
@<SCITEGIC>MOL_PROPERTY
VConf Rank
SciTegic.value.IntegerValue
961

@<SCITEGIC>MOL_PROPERTY
Conf_Id
SciTegic.value.IntegerValue
0

@<SCITEGIC>MOL_PROPERTY
Delta U+W
SciTegic.value.DoubleValue
0.000

@<SCITEGIC>MOL_PROPERTY
U+W
SciTegic.value.DoubleValue
-58.332

@<SCITEGIC>MOL_PROPERTY
Grad RMS
SciTegic.value.DoubleValue
0.000000

@<SCITEGIC>MOL_PROPERTY
U
SciTegic.value.DoubleValue
8.390

@<SCITEGIC>MOL_PROPERTY
W
SciTegic.value.DoubleValue
-66.722

@<SCITEGIC>MOL_PROPERTY
W(PB)
SciTegic.value.DoubleValue
-68.455

@<SCITEGIC>MOL_PROPERTY
W(SA)
SciTegic.value.DoubleValue
1.733

@<SCITEGIC>MOL_PROPERTY
Valence
SciTegic.value.DoubleValue
6.333

@<SCITEGIC>MOL_PROPERTY
Coulomb
SciTegic.value.DoubleValue
1.215

@<SCITEGIC>MOL_PROPERTY
VdW
SciTegic.value.DoubleValue
0.842

@<SCITEGIC>MOL_PROPERTY
VdW6
SciTegic.value.DoubleValue
-3.344

@<SCITEGIC>MOL_PROPERTY
VdW12
SciTegic.value.DoubleValue
4.186

@<SCITEGIC>MOL_PROPERTY
Bond
SciTegic.value.DoubleValue
0.091

@<SCITEGIC>MOL_PROPERTY
Angle
SciTegic.value.DoubleValue
2.713

@<SCITEGIC>MOL_PROPERTY
Pdih
SciTegic.value.DoubleValue
3.529

@<SCITEGIC>MOL_PROPERTY
Idih
SciTegic.value.DoubleValue
0.000

@<SCITEGIC>MOL_PROPERTY
Tether
SciTegic.value.DoubleValue
0.000

@<TRIPOS>MOLECULE
guest-6_confgen4.mol2 : confsearch ligand conformer 962
          13          12           1
SMALL
USER_CHARGES
 
@<TRIPOS>ATOM
       1    C1      20.647524   18.305537   23.699723 C.2        1 MOL1         0.6021
       2    O1      19.813124   18.265304   24.581493 O.co2      1 MOL1        -0.6904
       3    O2      21.842122   18.372929   23.908896 O.co2      1 MOL1        -0.6904
       4    C2      20.168479   18.289574   22.252049 C.3        1 MOL1        -0.2102
       5    H1      19.252918   17.687689   22.202030 H          1 MOL1         0.0687
       6    H2      20.926146   17.776423   21.647371 H          1 MOL1         0.0687
       7    C3      19.905996   19.706444   21.686867 C.3        1 MOL1        -0.1974
       8    H3      19.153216   20.214290   22.305928 H          1 MOL1         0.0689
       9    H4      20.826779   20.302985   21.751047 H          1 MOL1         0.0689
      10    C4      19.423424   19.655980   20.223355 C.3        1 MOL1        -0.2987
      11    H5      19.242843   20.668959   19.840569 H          1 MOL1         0.0700
      12    H6      20.173258   19.178681   19.578770 H          1 MOL1         0.0700
      13    H7      18.486846   19.089342   20.137924 H          1 MOL1         0.0700
@<TRIPOS>BOND
    1     1     2    1
    2     1     3    2
    3     1     4    1
    4     4     5    1
    5     4     6    1
    6     4     7    1
    7     7     8    1
    8     7     9    1
    9     7    10    1
   10    10    11    1
   11    10    12    1
   12    10    13    1
@<TRIPOS>SUBSTRUCTURE
       1 MOL1            1 RESIDUE      1      MOL     
@<SCITEGIC>MOL_PROPERTY
VConf Rank
SciTegic.value.IntegerValue
962

@<SCITEGIC>MOL_PROPERTY
Conf_Id
SciTegic.value.IntegerValue
1

@<SCITEGIC>MOL_PROPERTY
Delta U+W
SciTegic.value.DoubleValue
-1.339

@<SCITEGIC>MOL_PROPERTY
U+W
SciTegic.value.DoubleValue
-59.672

@<SCITEGIC>MOL_PROPERTY
Grad RMS
SciTegic.value.DoubleValue
0.000000

@<SCITEGIC>MOL_PROPERTY
U
SciTegic.value.DoubleValue
7.389

@<SCITEGIC>MOL_PROPERTY
W
SciTegic.value.DoubleValue
-67.061

@<SCITEGIC>MOL_PROPERTY
W(PB)
SciTegic.value.DoubleValue
-68.767

@<SCITEGIC>MOL_PROPERTY
W(SA)
SciTegic.value.DoubleValue
1.707

@<SCITEGIC>MOL_PROPERTY
Valence
SciTegic.value.DoubleValue
5.822

@<SCITEGIC>MOL_PROPERTY
Coulomb
SciTegic.value.DoubleValue
1.255

@<SCITEGIC>MOL_PROPERTY
VdW
SciTegic.value.DoubleValue
0.312

@<SCITEGIC>MOL_PROPERTY
VdW6
SciTegic.value.DoubleValue
-3.061

@<SCITEGIC>MOL_PROPERTY
VdW12
SciTegic.value.DoubleValue
3.372

@<SCITEGIC>MOL_PROPERTY
Bond
SciTegic.value.DoubleValue
0.059

@<SCITEGIC>MOL_PROPERTY
Angle
SciTegic.value.DoubleValue
2.241

@<SCITEGIC>MOL_PROPERTY
Pdih
SciTegic.value.DoubleValue
3.522

@<SCITEGIC>MOL_PROPERTY
Idih
SciTegic.value.DoubleValue
0.000

@<SCITEGIC>MOL_PROPERTY
Tether
SciTegic.value.DoubleValue
0.000

@<TRIPOS>MOLECULE
guest-6_confgen4.mol2 : confsearch ligand conformer 963
          13          12           1
SMALL
USER_CHARGES
 
@<TRIPOS>ATOM
       1    C1      20.072772   17.208721   22.334641 C.2        1 MOL1         0.6021
       2    O1      20.991579   16.552054   21.886667 O.co2      1 MOL1        -0.6904
       3    O2      19.586641   17.018928   23.431709 O.co2      1 MOL1        -0.6904
       4    C2      19.476206   18.305791   21.456419 C.3        1 MOL1        -0.2102
       5    H1      18.488732   18.574189   21.851569 H          1 MOL1         0.0687
       6    H2      19.312664   17.875296   20.461273 H          1 MOL1         0.0687
       7    C3      20.363142   19.571115   21.331360 C.3        1 MOL1        -0.1974
       8    H3      21.362612   19.285770   20.974204 H          1 MOL1         0.0689
       9    H4      19.934382   20.237387   20.570361 H          1 MOL1         0.0689
      10    C4      20.485659   20.340184   22.663070 C.3        1 MOL1        -0.2987
      11    H5      20.952605   19.716934   23.437246 H          1 MOL1         0.0700
      12    H6      21.102545   21.239192   22.535268 H          1 MOL1         0.0700
      13    H7      19.498646   20.654448   23.026988 H          1 MOL1         0.0700
@<TRIPOS>BOND
    1     1     2    1
    2     1     3    2
    3     1     4    1
    4     4     5    1
    5     4     6    1
    6     4     7    1
    7     7     8    1
    8     7     9    1
    9     7    10    1
   10    10    11    1
   11    10    12    1
   12    10    13    1
@<TRIPOS>SUBSTRUCTURE
       1 MOL1            1 RESIDUE      1      MOL     
@<SCITEGIC>MOL_PROPERTY
VConf Rank
SciTegic.value.IntegerValue
963

@<SCITEGIC>MOL_PROPERTY
Conf_Id
SciTegic.value.IntegerValue
4

@<SCITEGIC>MOL_PROPERTY
Delta U+W
SciTegic.value.DoubleValue
0.281

@<SCITEGIC>MOL_PROPERTY
U+W
SciTegic.value.DoubleValue
-58.051

@<SCITEGIC>MOL_PROPERTY
Grad RMS
SciTegic.value.DoubleValue
0.000000

@<SCITEGIC>MOL_PROPERTY
U
SciTegic.value.DoubleValue
9.781

@<SCITEGIC>MOL_PROPERTY
W
SciTegic.value.DoubleValue
-67.832

@<SCITEGIC>MOL_PROPERTY
W(PB)
SciTegic.value.DoubleValue
-69.535

@<SCITEGIC>MOL_PROPERTY
W(SA)
SciTegic.value.DoubleValue
1.703

@<SCITEGIC>MOL_PROPERTY
Valence
SciTegic.value.DoubleValue
6.123

@<SCITEGIC>MOL_PROPERTY
Coulomb
SciTegic.value.DoubleValue
3.449

@<SCITEGIC>MOL_PROPERTY
VdW
SciTegic.value.DoubleValue
0.209

@<SCITEGIC>MOL_PROPERTY
VdW6
SciTegic.value.DoubleValue
-3.762

@<SCITEGIC>MOL_PROPERTY
VdW12
SciTegic.value.DoubleValue
3.972

@<SCITEGIC>MOL_PROPERTY
Bond
SciTegic.value.DoubleValue
0.078

@<SCITEGIC>MOL_PROPERTY
Angle
SciTegic.value.DoubleValue
2.428

@<SCITEGIC>MOL_PROPERTY
Pdih
SciTegic.value.DoubleValue
3.616

@<SCITEGIC>MOL_PROPERTY
Idih
SciTegic.value.DoubleValue
0.002

@<SCITEGIC>MOL_PROPERTY
Tether
SciTegic.value.DoubleValue
0.000

@<TRIPOS>MOLECULE
guest-6_confgen4.mol2 : confsearch ligand conformer 964
          13          12           1
SMALL
USER_CHARGES
 
@<TRIPOS>ATOM
       1    C1      20.618571   19.492078   20.358251 C.2        1 MOL1         0.6021
       2    O1      19.793039   19.129462   19.544057 O.co2      1 MOL1        -0.6904
       3    O2      21.199851   20.556995   20.293730 O.co2      1 MOL1        -0.6904
       4    C2      20.972070   18.546738   21.503718 C.3        1 MOL1        -0.2102
       5    H1      22.065977   18.495898   21.560009 H          1 MOL1         0.0687
       6    H2      20.620881   17.539230   21.249000 H          1 MOL1         0.0687
       7    C3      20.404475   18.977799   22.880439 C.3        1 MOL1        -0.1974
       8    H3      20.828506   18.333108   23.662386 H          1 MOL1         0.0689
       9    H4      20.728222   20.003391   23.106871 H          1 MOL1         0.0689
      10    C4      18.865161   18.892841   22.937213 C.3        1 MOL1        -0.2987
      11    H5      18.520880   17.870018   22.735480 H          1 MOL1         0.0700
      12    H6      18.497928   19.185270   23.929544 H          1 MOL1         0.0700
      13    H7      18.405451   19.560348   22.196317 H          1 MOL1         0.0700
@<TRIPOS>BOND
    1     1     2    1
    2     1     3    2
    3     1     4    1
    4     4     5    1
    5     4     6    1
    6     4     7    1
    7     7     8    1
    8     7     9    1
    9     7    10    1
   10    10    11    1
   11    10    12    1
   12    10    13    1
@<TRIPOS>SUBSTRUCTURE
       1 MOL1            1 RESIDUE      1      MOL     
@<SCITEGIC>MOL_PROPERTY
VConf Rank
SciTegic.value.IntegerValue
964

@<SCITEGIC>MOL_PROPERTY
Conf_Id
SciTegic.value.IntegerValue
36

@<SCITEGIC>MOL_PROPERTY
Delta U+W
SciTegic.value.DoubleValue
0.272

@<SCITEGIC>MOL_PROPERTY
U+W
SciTegic.value.DoubleValue
-58.060

@<SCITEGIC>MOL_PROPERTY
Grad RMS
SciTegic.value.DoubleValue
0.000000

@<SCITEGIC>MOL_PROPERTY
U
SciTegic.value.DoubleValue
9.781

@<SCITEGIC>MOL_PROPERTY
W
SciTegic.value.DoubleValue
-67.841

@<SCITEGIC>MOL_PROPERTY
W(PB)
SciTegic.value.DoubleValue
-69.537

@<SCITEGIC>MOL_PROPERTY
W(SA)
SciTegic.value.DoubleValue
1.696

@<SCITEGIC>MOL_PROPERTY
Valence
SciTegic.value.DoubleValue
6.123

@<SCITEGIC>MOL_PROPERTY
Coulomb
SciTegic.value.DoubleValue
3.449

@<SCITEGIC>MOL_PROPERTY
VdW
SciTegic.value.DoubleValue
0.209

@<SCITEGIC>MOL_PROPERTY
VdW6
SciTegic.value.DoubleValue
-3.762

@<SCITEGIC>MOL_PROPERTY
VdW12
SciTegic.value.DoubleValue
3.972

@<SCITEGIC>MOL_PROPERTY
Bond
SciTegic.value.DoubleValue
0.078

@<SCITEGIC>MOL_PROPERTY
Angle
SciTegic.value.DoubleValue
2.428

@<SCITEGIC>MOL_PROPERTY
Pdih
SciTegic.value.DoubleValue
3.616

@<SCITEGIC>MOL_PROPERTY
Idih
SciTegic.value.DoubleValue
0.002

@<SCITEGIC>MOL_PROPERTY
Tether
SciTegic.value.DoubleValue
0.000

@<TRIPOS>MOLECULE
guest-6_confgen4.mol2 : confsearch ligand conformer 965
          13          12           1
SMALL
USER_CHARGES
 
@<TRIPOS>ATOM
       1    C1      21.776925   18.143917   22.678739 C.2        1 MOL1         0.6021
       2    O1      21.324699   17.738063   23.731404 O.co2      1 MOL1        -0.6904
       3    O2      22.942229   18.010145   22.364151 O.co2      1 MOL1        -0.6904
       4    C2      20.861998   18.860359   21.683599 C.3        1 MOL1        -0.2102
       5    H1      20.910065   18.307758   20.737734 H          1 MOL1         0.0687
       6    H2      21.292449   19.851548   21.497608 H          1 MOL1         0.0687
       7    C3      19.383220   19.007948   22.127885 C.3        1 MOL1        -0.1974
       8    H3      18.954615   18.013737   22.316555 H          1 MOL1         0.0689
       9    H4      19.337470   19.559365   23.077411 H          1 MOL1         0.0689
      10    C4      18.539596   19.740194   21.064894 C.3        1 MOL1        -0.2987
      11    H5      18.543874   19.191766   20.113721 H          1 MOL1         0.0700
      12    H6      17.497403   19.835053   21.396695 H          1 MOL1         0.0700
      13    H7      18.929848   20.749790   20.880656 H          1 MOL1         0.0700
@<TRIPOS>BOND
    1     1     2    1
    2     1     3    2
    3     1     4    1
    4     4     5    1
    5     4     6    1
    6     4     7    1
    7     7     8    1
    8     7     9    1
    9     7    10    1
   10    10    11    1
   11    10    12    1
   12    10    13    1
@<TRIPOS>SUBSTRUCTURE
       1 MOL1            1 RESIDUE      1      MOL     
@<SCITEGIC>MOL_PROPERTY
VConf Rank
SciTegic.value.IntegerValue
965

@<SCITEGIC>MOL_PROPERTY
Conf_Id
SciTegic.value.IntegerValue
0

@<SCITEGIC>MOL_PROPERTY
Delta U+W
SciTegic.value.DoubleValue
0.000

@<SCITEGIC>MOL_PROPERTY
U+W
SciTegic.value.DoubleValue
-58.332

@<SCITEGIC>MOL_PROPERTY
Grad RMS
SciTegic.value.DoubleValue
0.000000

@<SCITEGIC>MOL_PROPERTY
U
SciTegic.value.DoubleValue
8.390

@<SCITEGIC>MOL_PROPERTY
W
SciTegic.value.DoubleValue
-66.722

@<SCITEGIC>MOL_PROPERTY
W(PB)
SciTegic.value.DoubleValue
-68.455

@<SCITEGIC>MOL_PROPERTY
W(SA)
SciTegic.value.DoubleValue
1.733

@<SCITEGIC>MOL_PROPERTY
Valence
SciTegic.value.DoubleValue
6.333

@<SCITEGIC>MOL_PROPERTY
Coulomb
SciTegic.value.DoubleValue
1.215

@<SCITEGIC>MOL_PROPERTY
VdW
SciTegic.value.DoubleValue
0.842

@<SCITEGIC>MOL_PROPERTY
VdW6
SciTegic.value.DoubleValue
-3.344

@<SCITEGIC>MOL_PROPERTY
VdW12
SciTegic.value.DoubleValue
4.186

@<SCITEGIC>MOL_PROPERTY
Bond
SciTegic.value.DoubleValue
0.091

@<SCITEGIC>MOL_PROPERTY
Angle
SciTegic.value.DoubleValue
2.713

@<SCITEGIC>MOL_PROPERTY
Pdih
SciTegic.value.DoubleValue
3.529

@<SCITEGIC>MOL_PROPERTY
Idih
SciTegic.value.DoubleValue
0.000

@<SCITEGIC>MOL_PROPERTY
Tether
SciTegic.value.DoubleValue
0.000

@<TRIPOS>MOLECULE
guest-6_confgen4.mol2 : confsearch ligand conformer 966
          13          12           1
SMALL
USER_CHARGES
 
@<TRIPOS>ATOM
       1    C1      20.932407   20.536804   22.984941 C.2        1 MOL1         0.6021
       2    O1      21.495135   20.159131   23.992940 O.co2      1 MOL1        -0.6904
       3    O2      20.518963   21.668524   22.831206 O.co2      1 MOL1        -0.6904
       4    C2      20.716625   19.530883   21.859303 C.3        1 MOL1        -0.2102
       5    H1      21.558159   18.827451   21.864098 H          1 MOL1         0.0687
       6    H2      20.753171   20.072188   20.906060 H          1 MOL1         0.0687
       7    C3      19.379041   18.762055   21.984285 C.3        1 MOL1        -0.1974
       8    H3      19.349508   18.232045   22.946593 H          1 MOL1         0.0689
       9    H4      18.544378   19.476999   21.988246 H          1 MOL1         0.0689
      10    C4      19.191167   17.754107   20.832749 C.3        1 MOL1        -0.2987
      11    H5      18.238245   17.219312   20.938555 H          1 MOL1         0.0700
      12    H6      19.187298   18.264577   19.860659 H          1 MOL1         0.0700
      13    H7      19.998579   17.010062   20.826390 H          1 MOL1         0.0700
@<TRIPOS>BOND
    1     1     2    1
    2     1     3    2
    3     1     4    1
    4     4     5    1
    5     4     6    1
    6     4     7    1
    7     7     8    1
    8     7     9    1
    9     7    10    1
   10    10    11    1
   11    10    12    1
   12    10    13    1
@<TRIPOS>SUBSTRUCTURE
       1 MOL1            1 RESIDUE      1      MOL     
@<SCITEGIC>MOL_PROPERTY
VConf Rank
SciTegic.value.IntegerValue
966

@<SCITEGIC>MOL_PROPERTY
Conf_Id
SciTegic.value.IntegerValue
1

@<SCITEGIC>MOL_PROPERTY
Delta U+W
SciTegic.value.DoubleValue
-1.339

@<SCITEGIC>MOL_PROPERTY
U+W
SciTegic.value.DoubleValue
-59.672

@<SCITEGIC>MOL_PROPERTY
Grad RMS
SciTegic.value.DoubleValue
0.000000

@<SCITEGIC>MOL_PROPERTY
U
SciTegic.value.DoubleValue
7.389

@<SCITEGIC>MOL_PROPERTY
W
SciTegic.value.DoubleValue
-67.061

@<SCITEGIC>MOL_PROPERTY
W(PB)
SciTegic.value.DoubleValue
-68.767

@<SCITEGIC>MOL_PROPERTY
W(SA)
SciTegic.value.DoubleValue
1.707

@<SCITEGIC>MOL_PROPERTY
Valence
SciTegic.value.DoubleValue
5.822

@<SCITEGIC>MOL_PROPERTY
Coulomb
SciTegic.value.DoubleValue
1.255

@<SCITEGIC>MOL_PROPERTY
VdW
SciTegic.value.DoubleValue
0.312

@<SCITEGIC>MOL_PROPERTY
VdW6
SciTegic.value.DoubleValue
-3.061

@<SCITEGIC>MOL_PROPERTY
VdW12
SciTegic.value.DoubleValue
3.372

@<SCITEGIC>MOL_PROPERTY
Bond
SciTegic.value.DoubleValue
0.059

@<SCITEGIC>MOL_PROPERTY
Angle
SciTegic.value.DoubleValue
2.241

@<SCITEGIC>MOL_PROPERTY
Pdih
SciTegic.value.DoubleValue
3.522

@<SCITEGIC>MOL_PROPERTY
Idih
SciTegic.value.DoubleValue
0.000

@<SCITEGIC>MOL_PROPERTY
Tether
SciTegic.value.DoubleValue
0.000

@<TRIPOS>MOLECULE
guest-6_confgen4.mol2 : confsearch ligand conformer 967
          13          12           1
SMALL
USER_CHARGES
 
@<TRIPOS>ATOM
       1    C1      21.056113   20.060130   23.069743 C.2        1 MOL1         0.6021
       2    O1      21.010862   19.807313   24.257234 O.co2      1 MOL1        -0.6904
       3    O2      22.065231   20.426619   22.501175 O.co2      1 MOL1        -0.6904
       4    C2      19.767550   19.944880   22.259157 C.3        1 MOL1        -0.2102
       5    H1      19.892412   20.497999   21.320139 H          1 MOL1         0.0687
       6    H2      18.978734   20.455134   22.824663 H          1 MOL1         0.0687
       7    C3      19.330631   18.486671   21.965781 C.3        1 MOL1        -0.1974
       8    H3      19.248623   17.930320   22.910064 H          1 MOL1         0.0689
       9    H4      18.328285   18.494830   21.516217 H          1 MOL1         0.0689
      10    C4      20.303387   17.758840   21.015025 C.3        1 MOL1        -0.2987
      11    H5      21.308134   17.692834   21.453150 H          1 MOL1         0.0700
      12    H6      19.955076   16.737640   20.812720 H          1 MOL1         0.0700
      13    H7      20.383146   18.286799   20.055708 H          1 MOL1         0.0700
@<TRIPOS>BOND
    1     1     2    1
    2     1     3    2
    3     1     4    1
    4     4     5    1
    5     4     6    1
    6     4     7    1
    7     7     8    1
    8     7     9    1
    9     7    10    1
   10    10    11    1
   11    10    12    1
   12    10    13    1
@<TRIPOS>SUBSTRUCTURE
       1 MOL1            1 RESIDUE      1      MOL     
@<SCITEGIC>MOL_PROPERTY
VConf Rank
SciTegic.value.IntegerValue
967

@<SCITEGIC>MOL_PROPERTY
Conf_Id
SciTegic.value.IntegerValue
4

@<SCITEGIC>MOL_PROPERTY
Delta U+W
SciTegic.value.DoubleValue
0.281

@<SCITEGIC>MOL_PROPERTY
U+W
SciTegic.value.DoubleValue
-58.051

@<SCITEGIC>MOL_PROPERTY
Grad RMS
SciTegic.value.DoubleValue
0.000000

@<SCITEGIC>MOL_PROPERTY
U
SciTegic.value.DoubleValue
9.781

@<SCITEGIC>MOL_PROPERTY
W
SciTegic.value.DoubleValue
-67.832

@<SCITEGIC>MOL_PROPERTY
W(PB)
SciTegic.value.DoubleValue
-69.535

@<SCITEGIC>MOL_PROPERTY
W(SA)
SciTegic.value.DoubleValue
1.703

@<SCITEGIC>MOL_PROPERTY
Valence
SciTegic.value.DoubleValue
6.123

@<SCITEGIC>MOL_PROPERTY
Coulomb
SciTegic.value.DoubleValue
3.449

@<SCITEGIC>MOL_PROPERTY
VdW
SciTegic.value.DoubleValue
0.209

@<SCITEGIC>MOL_PROPERTY
VdW6
SciTegic.value.DoubleValue
-3.762

@<SCITEGIC>MOL_PROPERTY
VdW12
SciTegic.value.DoubleValue
3.972

@<SCITEGIC>MOL_PROPERTY
Bond
SciTegic.value.DoubleValue
0.078

@<SCITEGIC>MOL_PROPERTY
Angle
SciTegic.value.DoubleValue
2.428

@<SCITEGIC>MOL_PROPERTY
Pdih
SciTegic.value.DoubleValue
3.616

@<SCITEGIC>MOL_PROPERTY
Idih
SciTegic.value.DoubleValue
0.002

@<SCITEGIC>MOL_PROPERTY
Tether
SciTegic.value.DoubleValue
0.000

@<TRIPOS>MOLECULE
guest-6_confgen4.mol2 : confsearch ligand conformer 968
          13          12           1
SMALL
USER_CHARGES
 
@<TRIPOS>ATOM
       1    C1      19.175413   17.745396   21.085871 C.2        1 MOL1         0.6021
       2    O1      18.276395   17.320704   21.783946 O.co2      1 MOL1        -0.6904
       3    O2      19.060945   17.941285   19.892296 O.co2      1 MOL1        -0.6904
       4    C2      20.531775   18.013975   21.733075 C.3        1 MOL1        -0.2102
       5    H1      21.294871   17.547136   21.098936 H          1 MOL1         0.0687
       6    H2      20.567012   17.499990   22.701509 H          1 MOL1         0.0687
       7    C3      20.861723   19.517823   21.914491 C.3        1 MOL1        -0.1974
       8    H3      21.905259   19.620346   22.242200 H          1 MOL1         0.0689
       9    H4      20.783135   20.030999   20.945782 H          1 MOL1         0.0689
      10    C4      19.940502   20.204345   22.944037 C.3        1 MOL1        -0.2987
      11    H5      20.020422   19.720400   23.926280 H          1 MOL1         0.0700
      12    H6      20.213047   21.261078   23.062911 H          1 MOL1         0.0700
      13    H7      18.890510   20.159698   22.625684 H          1 MOL1         0.0700
@<TRIPOS>BOND
    1     1     2    1
    2     1     3    2
    3     1     4    1
    4     4     5    1
    5     4     6    1
    6     4     7    1
    7     7     8    1
    8     7     9    1
    9     7    10    1
   10    10    11    1
   11    10    12    1
   12    10    13    1
@<TRIPOS>SUBSTRUCTURE
       1 MOL1            1 RESIDUE      1      MOL     
@<SCITEGIC>MOL_PROPERTY
VConf Rank
SciTegic.value.IntegerValue
968

@<SCITEGIC>MOL_PROPERTY
Conf_Id
SciTegic.value.IntegerValue
36

@<SCITEGIC>MOL_PROPERTY
Delta U+W
SciTegic.value.DoubleValue
0.272

@<SCITEGIC>MOL_PROPERTY
U+W
SciTegic.value.DoubleValue
-58.060

@<SCITEGIC>MOL_PROPERTY
Grad RMS
SciTegic.value.DoubleValue
0.000000

@<SCITEGIC>MOL_PROPERTY
U
SciTegic.value.DoubleValue
9.781

@<SCITEGIC>MOL_PROPERTY
W
SciTegic.value.DoubleValue
-67.841

@<SCITEGIC>MOL_PROPERTY
W(PB)
SciTegic.value.DoubleValue
-69.537

@<SCITEGIC>MOL_PROPERTY
W(SA)
SciTegic.value.DoubleValue
1.696

@<SCITEGIC>MOL_PROPERTY
Valence
SciTegic.value.DoubleValue
6.123

@<SCITEGIC>MOL_PROPERTY
Coulomb
SciTegic.value.DoubleValue
3.449

@<SCITEGIC>MOL_PROPERTY
VdW
SciTegic.value.DoubleValue
0.209

@<SCITEGIC>MOL_PROPERTY
VdW6
SciTegic.value.DoubleValue
-3.762

@<SCITEGIC>MOL_PROPERTY
VdW12
SciTegic.value.DoubleValue
3.972

@<SCITEGIC>MOL_PROPERTY
Bond
SciTegic.value.DoubleValue
0.078

@<SCITEGIC>MOL_PROPERTY
Angle
SciTegic.value.DoubleValue
2.428

@<SCITEGIC>MOL_PROPERTY
Pdih
SciTegic.value.DoubleValue
3.616

@<SCITEGIC>MOL_PROPERTY
Idih
SciTegic.value.DoubleValue
0.002

@<SCITEGIC>MOL_PROPERTY
Tether
SciTegic.value.DoubleValue
0.000

@<TRIPOS>MOLECULE
guest-6_confgen4.mol2 : confsearch ligand conformer 969
          13          12           1
SMALL
USER_CHARGES
 
@<TRIPOS>ATOM
       1    C1      21.043843   20.787238   21.261203 C.2        1 MOL1         0.6021
       2    O1      20.845002   21.466520   22.249316 O.co2      1 MOL1        -0.6904
       3    O2      21.677272   21.182502   20.303430 O.co2      1 MOL1        -0.6904
       4    C2      20.483475   19.365398   21.190199 C.3        1 MOL1        -0.2102
       5    H1      21.329268   18.687750   21.023570 H          1 MOL1         0.0687
       6    H2      19.846925   19.308134   20.299210 H          1 MOL1         0.0687
       7    C3      19.681922   18.904136   22.435473 C.3        1 MOL1        -0.1974
       8    H3      20.320709   18.965044   23.327659 H          1 MOL1         0.0689
       9    H4      18.836579   19.586240   22.602457 H          1 MOL1         0.0689
      10    C4      19.157789   17.462982   22.273632 C.3        1 MOL1        -0.2987
      11    H5      19.986911   16.756452   22.136174 H          1 MOL1         0.0700
      12    H6      18.593796   17.154612   23.163619 H          1 MOL1         0.0700
      13    H7      18.490903   17.382636   21.405109 H          1 MOL1         0.0700
@<TRIPOS>BOND
    1     1     2    1
    2     1     3    2
    3     1     4    1
    4     4     5    1
    5     4     6    1
    6     4     7    1
    7     7     8    1
    8     7     9    1
    9     7    10    1
   10    10    11    1
   11    10    12    1
   12    10    13    1
@<TRIPOS>SUBSTRUCTURE
       1 MOL1            1 RESIDUE      1      MOL     
@<SCITEGIC>MOL_PROPERTY
VConf Rank
SciTegic.value.IntegerValue
969

@<SCITEGIC>MOL_PROPERTY
Conf_Id
SciTegic.value.IntegerValue
0

@<SCITEGIC>MOL_PROPERTY
Delta U+W
SciTegic.value.DoubleValue
0.000

@<SCITEGIC>MOL_PROPERTY
U+W
SciTegic.value.DoubleValue
-58.332

@<SCITEGIC>MOL_PROPERTY
Grad RMS
SciTegic.value.DoubleValue
0.000000

@<SCITEGIC>MOL_PROPERTY
U
SciTegic.value.DoubleValue
8.390

@<SCITEGIC>MOL_PROPERTY
W
SciTegic.value.DoubleValue
-66.722

@<SCITEGIC>MOL_PROPERTY
W(PB)
SciTegic.value.DoubleValue
-68.455

@<SCITEGIC>MOL_PROPERTY
W(SA)
SciTegic.value.DoubleValue
1.733

@<SCITEGIC>MOL_PROPERTY
Valence
SciTegic.value.DoubleValue
6.333

@<SCITEGIC>MOL_PROPERTY
Coulomb
SciTegic.value.DoubleValue
1.215

@<SCITEGIC>MOL_PROPERTY
VdW
SciTegic.value.DoubleValue
0.842

@<SCITEGIC>MOL_PROPERTY
VdW6
SciTegic.value.DoubleValue
-3.344

@<SCITEGIC>MOL_PROPERTY
VdW12
SciTegic.value.DoubleValue
4.186

@<SCITEGIC>MOL_PROPERTY
Bond
SciTegic.value.DoubleValue
0.091

@<SCITEGIC>MOL_PROPERTY
Angle
SciTegic.value.DoubleValue
2.713

@<SCITEGIC>MOL_PROPERTY
Pdih
SciTegic.value.DoubleValue
3.529

@<SCITEGIC>MOL_PROPERTY
Idih
SciTegic.value.DoubleValue
0.000

@<SCITEGIC>MOL_PROPERTY
Tether
SciTegic.value.DoubleValue
0.000

@<TRIPOS>MOLECULE
guest-6_confgen4.mol2 : confsearch ligand conformer 970
          13          12           1
SMALL
USER_CHARGES
 
@<TRIPOS>ATOM
       1    C1      18.671878   18.338443   20.337772 C.2        1 MOL1         0.6021
       2    O1      17.709569   17.708089   20.727617 O.co2      1 MOL1        -0.6904
       3    O2      19.140325   18.226662   19.222684 O.co2      1 MOL1        -0.6904
       4    C2      19.339370   19.308601   21.306661 C.3        1 MOL1        -0.2102
       5    H1      18.565351   19.718263   21.967034 H          1 MOL1         0.0687
       6    H2      19.745220   20.145921   20.725972 H          1 MOL1         0.0687
       7    C3      20.460695   18.649094   22.145428 C.3        1 MOL1        -0.1974
       8    H3      20.044833   17.806111   22.714865 H          1 MOL1         0.0689
       9    H4      21.224972   18.233970   21.473582 H          1 MOL1         0.0689
      10    C4      21.114679   19.654903   23.113903 C.3        1 MOL1        -0.2987
      11    H5      21.906415   19.169302   23.699230 H          1 MOL1         0.0700
      12    H6      21.564277   20.492979   22.565228 H          1 MOL1         0.0700
      13    H7      20.375093   20.061798   23.816046 H          1 MOL1         0.0700
@<TRIPOS>BOND
    1     1     2    1
    2     1     3    2
    3     1     4    1
    4     4     5    1
    5     4     6    1
    6     4     7    1
    7     7     8    1
    8     7     9    1
    9     7    10    1
   10    10    11    1
   11    10    12    1
   12    10    13    1
@<TRIPOS>SUBSTRUCTURE
       1 MOL1            1 RESIDUE      1      MOL     
@<SCITEGIC>MOL_PROPERTY
VConf Rank
SciTegic.value.IntegerValue
970

@<SCITEGIC>MOL_PROPERTY
Conf_Id
SciTegic.value.IntegerValue
1

@<SCITEGIC>MOL_PROPERTY
Delta U+W
SciTegic.value.DoubleValue
-1.339

@<SCITEGIC>MOL_PROPERTY
U+W
SciTegic.value.DoubleValue
-59.672

@<SCITEGIC>MOL_PROPERTY
Grad RMS
SciTegic.value.DoubleValue
0.000000

@<SCITEGIC>MOL_PROPERTY
U
SciTegic.value.DoubleValue
7.389

@<SCITEGIC>MOL_PROPERTY
W
SciTegic.value.DoubleValue
-67.061

@<SCITEGIC>MOL_PROPERTY
W(PB)
SciTegic.value.DoubleValue
-68.767

@<SCITEGIC>MOL_PROPERTY
W(SA)
SciTegic.value.DoubleValue
1.707

@<SCITEGIC>MOL_PROPERTY
Valence
SciTegic.value.DoubleValue
5.822

@<SCITEGIC>MOL_PROPERTY
Coulomb
SciTegic.value.DoubleValue
1.255

@<SCITEGIC>MOL_PROPERTY
VdW
SciTegic.value.DoubleValue
0.312

@<SCITEGIC>MOL_PROPERTY
VdW6
SciTegic.value.DoubleValue
-3.061

@<SCITEGIC>MOL_PROPERTY
VdW12
SciTegic.value.DoubleValue
3.372

@<SCITEGIC>MOL_PROPERTY
Bond
SciTegic.value.DoubleValue
0.059

@<SCITEGIC>MOL_PROPERTY
Angle
SciTegic.value.DoubleValue
2.241

@<SCITEGIC>MOL_PROPERTY
Pdih
SciTegic.value.DoubleValue
3.522

@<SCITEGIC>MOL_PROPERTY
Idih
SciTegic.value.DoubleValue
0.000

@<SCITEGIC>MOL_PROPERTY
Tether
SciTegic.value.DoubleValue
0.000

@<TRIPOS>MOLECULE
guest-6_confgen4.mol2 : confsearch ligand conformer 971
          13          12           1
SMALL
USER_CHARGES
 
@<TRIPOS>ATOM
       1    C1      19.647021   17.943545   23.387368 C.2        1 MOL1         0.6021
       2    O1      19.492566   16.761845   23.151092 O.co2      1 MOL1        -0.6904
       3    O2      20.172292   18.360774   24.400243 O.co2      1 MOL1        -0.6904
       4    C2      19.120278   18.955748   22.373112 C.3        1 MOL1        -0.2102
       5    H1      19.043002   19.934939   22.861478 H          1 MOL1         0.0687
       6    H2      18.100289   18.652718   22.108192 H          1 MOL1         0.0687
       7    C3      19.975821   19.067559   21.085135 C.3        1 MOL1        -0.1974
       8    H3      20.081383   18.074401   20.626424 H          1 MOL1         0.0689
       9    H4      19.448045   19.697449   20.356051 H          1 MOL1         0.0689
      10    C4      21.371098   19.668478   21.353513 C.3        1 MOL1        -0.2987
      11    H5      21.945338   19.039000   22.046214 H          1 MOL1         0.0700
      12    H6      21.942445   19.751958   20.419870 H          1 MOL1         0.0700
      13    H7      21.288608   20.671595   21.792083 H          1 MOL1         0.0700
@<TRIPOS>BOND
    1     1     2    1
    2     1     3    2
    3     1     4    1
    4     4     5    1
    5     4     6    1
    6     4     7    1
    7     7     8    1
    8     7     9    1
    9     7    10    1
   10    10    11    1
   11    10    12    1
   12    10    13    1
@<TRIPOS>SUBSTRUCTURE
       1 MOL1            1 RESIDUE      1      MOL     
@<SCITEGIC>MOL_PROPERTY
VConf Rank
SciTegic.value.IntegerValue
971

@<SCITEGIC>MOL_PROPERTY
Conf_Id
SciTegic.value.IntegerValue
4

@<SCITEGIC>MOL_PROPERTY
Delta U+W
SciTegic.value.DoubleValue
0.281

@<SCITEGIC>MOL_PROPERTY
U+W
SciTegic.value.DoubleValue
-58.051

@<SCITEGIC>MOL_PROPERTY
Grad RMS
SciTegic.value.DoubleValue
0.000000

@<SCITEGIC>MOL_PROPERTY
U
SciTegic.value.DoubleValue
9.781

@<SCITEGIC>MOL_PROPERTY
W
SciTegic.value.DoubleValue
-67.832

@<SCITEGIC>MOL_PROPERTY
W(PB)
SciTegic.value.DoubleValue
-69.535

@<SCITEGIC>MOL_PROPERTY
W(SA)
SciTegic.value.DoubleValue
1.703

@<SCITEGIC>MOL_PROPERTY
Valence
SciTegic.value.DoubleValue
6.123

@<SCITEGIC>MOL_PROPERTY
Coulomb
SciTegic.value.DoubleValue
3.449

@<SCITEGIC>MOL_PROPERTY
VdW
SciTegic.value.DoubleValue
0.209

@<SCITEGIC>MOL_PROPERTY
VdW6
SciTegic.value.DoubleValue
-3.762

@<SCITEGIC>MOL_PROPERTY
VdW12
SciTegic.value.DoubleValue
3.972

@<SCITEGIC>MOL_PROPERTY
Bond
SciTegic.value.DoubleValue
0.078

@<SCITEGIC>MOL_PROPERTY
Angle
SciTegic.value.DoubleValue
2.428

@<SCITEGIC>MOL_PROPERTY
Pdih
SciTegic.value.DoubleValue
3.616

@<SCITEGIC>MOL_PROPERTY
Idih
SciTegic.value.DoubleValue
0.002

@<SCITEGIC>MOL_PROPERTY
Tether
SciTegic.value.DoubleValue
0.000

@<TRIPOS>MOLECULE
guest-6_confgen4.mol2 : confsearch ligand conformer 972
          13          12           1
SMALL
USER_CHARGES
 
@<TRIPOS>ATOM
       1    C1      18.938901   17.678487   21.596456 C.2        1 MOL1         0.6021
       2    O1      18.182267   17.513210   22.532455 O.co2      1 MOL1        -0.6904
       3    O2      18.589848   17.617146   20.434348 O.co2      1 MOL1        -0.6904
       4    C2      20.413214   17.941760   21.892789 C.3        1 MOL1        -0.2102
       5    H1      21.000007   17.270438   21.254522 H          1 MOL1         0.0687
       6    H2      20.620063   17.653108   22.930662 H          1 MOL1         0.0687
       7    C3      20.858199   19.406340   21.647161 C.3        1 MOL1        -0.1974
       8    H3      21.951174   19.470383   21.737583 H          1 MOL1         0.0689
       9    H4      20.608915   19.698619   20.617427 H          1 MOL1         0.0689
      10    C4      20.211700   20.394225   22.640161 C.3        1 MOL1        -0.2987
      11    H5      20.466753   20.133144   23.675620 H          1 MOL1         0.0700
      12    H6      20.562331   21.417269   22.451656 H          1 MOL1         0.0700
      13    H7      19.117640   20.389046   22.546177 H          1 MOL1         0.0700
@<TRIPOS>BOND
    1     1     2    1
    2     1     3    2
    3     1     4    1
    4     4     5    1
    5     4     6    1
    6     4     7    1
    7     7     8    1
    8     7     9    1
    9     7    10    1
   10    10    11    1
   11    10    12    1
   12    10    13    1
@<TRIPOS>SUBSTRUCTURE
       1 MOL1            1 RESIDUE      1      MOL     
@<SCITEGIC>MOL_PROPERTY
VConf Rank
SciTegic.value.IntegerValue
972

@<SCITEGIC>MOL_PROPERTY
Conf_Id
SciTegic.value.IntegerValue
36

@<SCITEGIC>MOL_PROPERTY
Delta U+W
SciTegic.value.DoubleValue
0.272

@<SCITEGIC>MOL_PROPERTY
U+W
SciTegic.value.DoubleValue
-58.060

@<SCITEGIC>MOL_PROPERTY
Grad RMS
SciTegic.value.DoubleValue
0.000000

@<SCITEGIC>MOL_PROPERTY
U
SciTegic.value.DoubleValue
9.781

@<SCITEGIC>MOL_PROPERTY
W
SciTegic.value.DoubleValue
-67.841

@<SCITEGIC>MOL_PROPERTY
W(PB)
SciTegic.value.DoubleValue
-69.537

@<SCITEGIC>MOL_PROPERTY
W(SA)
SciTegic.value.DoubleValue
1.696

@<SCITEGIC>MOL_PROPERTY
Valence
SciTegic.value.DoubleValue
6.123

@<SCITEGIC>MOL_PROPERTY
Coulomb
SciTegic.value.DoubleValue
3.449

@<SCITEGIC>MOL_PROPERTY
VdW
SciTegic.value.DoubleValue
0.209

@<SCITEGIC>MOL_PROPERTY
VdW6
SciTegic.value.DoubleValue
-3.762

@<SCITEGIC>MOL_PROPERTY
VdW12
SciTegic.value.DoubleValue
3.972

@<SCITEGIC>MOL_PROPERTY
Bond
SciTegic.value.DoubleValue
0.078

@<SCITEGIC>MOL_PROPERTY
Angle
SciTegic.value.DoubleValue
2.428

@<SCITEGIC>MOL_PROPERTY
Pdih
SciTegic.value.DoubleValue
3.616

@<SCITEGIC>MOL_PROPERTY
Idih
SciTegic.value.DoubleValue
0.002

@<SCITEGIC>MOL_PROPERTY
Tether
SciTegic.value.DoubleValue
0.000

@<TRIPOS>MOLECULE
guest-6_confgen4.mol2 : confsearch ligand conformer 973
          13          12           1
SMALL
USER_CHARGES
 
@<TRIPOS>ATOM
       1    C1      19.845756   16.897999   22.128742 C.2        1 MOL1         0.6021
       2    O1      20.716738   16.497735   21.381408 O.co2      1 MOL1        -0.6904
       3    O2      19.154994   16.155593   22.796933 O.co2      1 MOL1        -0.6904
       4    C2      19.583043   18.399878   22.255328 C.3        1 MOL1        -0.2102
       5    H1      19.701584   18.665339   23.312596 H          1 MOL1         0.0687
       6    H2      18.531011   18.571371   21.998121 H          1 MOL1         0.0687
       7    C3      20.488822   19.308655   21.383751 C.3        1 MOL1        -0.1974
       8    H3      21.542751   19.133147   21.641019 H          1 MOL1         0.0689
       9    H4      20.370796   19.039012   20.324923 H          1 MOL1         0.0689
      10    C4      20.152295   20.801092   21.576666 C.3        1 MOL1        -0.2987
      11    H5      20.292626   21.103488   22.622795 H          1 MOL1         0.0700
      12    H6      20.802737   21.427761   20.952592 H          1 MOL1         0.0700
      13    H7      19.111238   21.008575   21.296177 H          1 MOL1         0.0700
@<TRIPOS>BOND
    1     1     2    1
    2     1     3    2
    3     1     4    1
    4     4     5    1
    5     4     6    1
    6     4     7    1
    7     7     8    1
    8     7     9    1
    9     7    10    1
   10    10    11    1
   11    10    12    1
   12    10    13    1
@<TRIPOS>SUBSTRUCTURE
       1 MOL1            1 RESIDUE      1      MOL     
@<SCITEGIC>MOL_PROPERTY
VConf Rank
SciTegic.value.IntegerValue
973

@<SCITEGIC>MOL_PROPERTY
Conf_Id
SciTegic.value.IntegerValue
0

@<SCITEGIC>MOL_PROPERTY
Delta U+W
SciTegic.value.DoubleValue
0.000

@<SCITEGIC>MOL_PROPERTY
U+W
SciTegic.value.DoubleValue
-58.332

@<SCITEGIC>MOL_PROPERTY
Grad RMS
SciTegic.value.DoubleValue
0.000000

@<SCITEGIC>MOL_PROPERTY
U
SciTegic.value.DoubleValue
8.390

@<SCITEGIC>MOL_PROPERTY
W
SciTegic.value.DoubleValue
-66.722

@<SCITEGIC>MOL_PROPERTY
W(PB)
SciTegic.value.DoubleValue
-68.455

@<SCITEGIC>MOL_PROPERTY
W(SA)
SciTegic.value.DoubleValue
1.733

@<SCITEGIC>MOL_PROPERTY
Valence
SciTegic.value.DoubleValue
6.333

@<SCITEGIC>MOL_PROPERTY
Coulomb
SciTegic.value.DoubleValue
1.215

@<SCITEGIC>MOL_PROPERTY
VdW
SciTegic.value.DoubleValue
0.842

@<SCITEGIC>MOL_PROPERTY
VdW6
SciTegic.value.DoubleValue
-3.344

@<SCITEGIC>MOL_PROPERTY
VdW12
SciTegic.value.DoubleValue
4.186

@<SCITEGIC>MOL_PROPERTY
Bond
SciTegic.value.DoubleValue
0.091

@<SCITEGIC>MOL_PROPERTY
Angle
SciTegic.value.DoubleValue
2.713

@<SCITEGIC>MOL_PROPERTY
Pdih
SciTegic.value.DoubleValue
3.529

@<SCITEGIC>MOL_PROPERTY
Idih
SciTegic.value.DoubleValue
0.000

@<SCITEGIC>MOL_PROPERTY
Tether
SciTegic.value.DoubleValue
0.000

@<TRIPOS>MOLECULE
guest-6_confgen4.mol2 : confsearch ligand conformer 974
          13          12           1
SMALL
USER_CHARGES
 
@<TRIPOS>ATOM
       1    C1      19.935014   17.905911   23.613051 C.2        1 MOL1         0.6021
       2    O1      20.991064   17.783900   24.200616 O.co2      1 MOL1        -0.6904
       3    O2      19.013978   17.121074   23.718334 O.co2      1 MOL1        -0.6904
       4    C2      19.763196   19.098514   22.678345 C.3        1 MOL1        -0.2102
       5    H1      20.336911   19.938779   23.088008 H          1 MOL1         0.0687
       6    H2      18.706487   19.392184   22.690309 H          1 MOL1         0.0687
       7    C3      20.216746   18.800295   21.228791 C.3        1 MOL1        -0.1974
       8    H3      21.273302   18.497791   21.230276 H          1 MOL1         0.0689
       9    H4      19.642490   17.951190   20.832467 H          1 MOL1         0.0689
      10    C4      20.030582   20.024424   20.310019 C.3        1 MOL1        -0.2987
      11    H5      20.357265   19.793794   19.287596 H          1 MOL1         0.0700
      12    H6      18.976145   20.327757   20.268684 H          1 MOL1         0.0700
      13    H7      20.619496   20.878526   20.669527 H          1 MOL1         0.0700
@<TRIPOS>BOND
    1     1     2    1
    2     1     3    2
    3     1     4    1
    4     4     5    1
    5     4     6    1
    6     4     7    1
    7     7     8    1
    8     7     9    1
    9     7    10    1
   10    10    11    1
   11    10    12    1
   12    10    13    1
@<TRIPOS>SUBSTRUCTURE
       1 MOL1            1 RESIDUE      1      MOL     
@<SCITEGIC>MOL_PROPERTY
VConf Rank
SciTegic.value.IntegerValue
974

@<SCITEGIC>MOL_PROPERTY
Conf_Id
SciTegic.value.IntegerValue
1

@<SCITEGIC>MOL_PROPERTY
Delta U+W
SciTegic.value.DoubleValue
-1.339

@<SCITEGIC>MOL_PROPERTY
U+W
SciTegic.value.DoubleValue
-59.672

@<SCITEGIC>MOL_PROPERTY
Grad RMS
SciTegic.value.DoubleValue
0.000000

@<SCITEGIC>MOL_PROPERTY
U
SciTegic.value.DoubleValue
7.389

@<SCITEGIC>MOL_PROPERTY
W
SciTegic.value.DoubleValue
-67.061

@<SCITEGIC>MOL_PROPERTY
W(PB)
SciTegic.value.DoubleValue
-68.767

@<SCITEGIC>MOL_PROPERTY
W(SA)
SciTegic.value.DoubleValue
1.707

@<SCITEGIC>MOL_PROPERTY
Valence
SciTegic.value.DoubleValue
5.822

@<SCITEGIC>MOL_PROPERTY
Coulomb
SciTegic.value.DoubleValue
1.255

@<SCITEGIC>MOL_PROPERTY
VdW
SciTegic.value.DoubleValue
0.312

@<SCITEGIC>MOL_PROPERTY
VdW6
SciTegic.value.DoubleValue
-3.061

@<SCITEGIC>MOL_PROPERTY
VdW12
SciTegic.value.DoubleValue
3.372

@<SCITEGIC>MOL_PROPERTY
Bond
SciTegic.value.DoubleValue
0.059

@<SCITEGIC>MOL_PROPERTY
Angle
SciTegic.value.DoubleValue
2.241

@<SCITEGIC>MOL_PROPERTY
Pdih
SciTegic.value.DoubleValue
3.522

@<SCITEGIC>MOL_PROPERTY
Idih
SciTegic.value.DoubleValue
0.000

@<SCITEGIC>MOL_PROPERTY
Tether
SciTegic.value.DoubleValue
0.000

@<TRIPOS>MOLECULE
guest-6_confgen4.mol2 : confsearch ligand conformer 975
          13          12           1
SMALL
USER_CHARGES
 
@<TRIPOS>ATOM
       1    C1      19.575288   18.731127   23.685868 C.2        1 MOL1         0.6021
       2    O1      20.378786   18.222578   24.442087 O.co2      1 MOL1        -0.6904
       3    O2      18.838697   19.642706   24.005807 O.co2      1 MOL1        -0.6904
       4    C2      19.462433   18.169391   22.270790 C.3        1 MOL1        -0.2102
       5    H1      18.510190   18.498488   21.836952 H          1 MOL1         0.0687
       6    H2      19.411088   17.077348   22.355587 H          1 MOL1         0.0687
       7    C3      20.637360   18.559356   21.337615 C.3        1 MOL1        -0.1974
       8    H3      21.588857   18.262294   21.800572 H          1 MOL1         0.0689
       9    H4      20.553622   17.995345   20.398598 H          1 MOL1         0.0689
      10    C4      20.661978   20.068486   21.018476 C.3        1 MOL1        -0.2987
      11    H5      20.789614   20.663196   21.932728 H          1 MOL1         0.0700
      12    H6      21.492352   20.307179   20.341275 H          1 MOL1         0.0700
      13    H7      19.727918   20.382516   20.534421 H          1 MOL1         0.0700
@<TRIPOS>BOND
    1     1     2    1
    2     1     3    2
    3     1     4    1
    4     4     5    1
    5     4     6    1
    6     4     7    1
    7     7     8    1
    8     7     9    1
    9     7    10    1
   10    10    11    1
   11    10    12    1
   12    10    13    1
@<TRIPOS>SUBSTRUCTURE
       1 MOL1            1 RESIDUE      1      MOL     
@<SCITEGIC>MOL_PROPERTY
VConf Rank
SciTegic.value.IntegerValue
975

@<SCITEGIC>MOL_PROPERTY
Conf_Id
SciTegic.value.IntegerValue
4

@<SCITEGIC>MOL_PROPERTY
Delta U+W
SciTegic.value.DoubleValue
0.281

@<SCITEGIC>MOL_PROPERTY
U+W
SciTegic.value.DoubleValue
-58.051

@<SCITEGIC>MOL_PROPERTY
Grad RMS
SciTegic.value.DoubleValue
0.000000

@<SCITEGIC>MOL_PROPERTY
U
SciTegic.value.DoubleValue
9.781

@<SCITEGIC>MOL_PROPERTY
W
SciTegic.value.DoubleValue
-67.832

@<SCITEGIC>MOL_PROPERTY
W(PB)
SciTegic.value.DoubleValue
-69.535

@<SCITEGIC>MOL_PROPERTY
W(SA)
SciTegic.value.DoubleValue
1.703

@<SCITEGIC>MOL_PROPERTY
Valence
SciTegic.value.DoubleValue
6.123

@<SCITEGIC>MOL_PROPERTY
Coulomb
SciTegic.value.DoubleValue
3.449

@<SCITEGIC>MOL_PROPERTY
VdW
SciTegic.value.DoubleValue
0.209

@<SCITEGIC>MOL_PROPERTY
VdW6
SciTegic.value.DoubleValue
-3.762

@<SCITEGIC>MOL_PROPERTY
VdW12
SciTegic.value.DoubleValue
3.972

@<SCITEGIC>MOL_PROPERTY
Bond
SciTegic.value.DoubleValue
0.078

@<SCITEGIC>MOL_PROPERTY
Angle
SciTegic.value.DoubleValue
2.428

@<SCITEGIC>MOL_PROPERTY
Pdih
SciTegic.value.DoubleValue
3.616

@<SCITEGIC>MOL_PROPERTY
Idih
SciTegic.value.DoubleValue
0.002

@<SCITEGIC>MOL_PROPERTY
Tether
SciTegic.value.DoubleValue
0.000

@<TRIPOS>MOLECULE
guest-6_confgen4.mol2 : confsearch ligand conformer 976
          13          12           1
SMALL
USER_CHARGES
 
@<TRIPOS>ATOM
       1    C1      21.521734   17.908265   21.658151 C.2        1 MOL1         0.6021
       2    O1      21.660918   17.113755   22.566605 O.co2      1 MOL1        -0.6904
       3    O2      21.710856   17.630333   20.490639 O.co2      1 MOL1        -0.6904
       4    C2      21.123061   19.341286   22.002006 C.3        1 MOL1        -0.2102
       5    H1      21.801575   20.009011   21.457811 H          1 MOL1         0.0687
       6    H2      21.303199   19.509309   23.070933 H          1 MOL1         0.0687
       7    C3      19.656279   19.694790   21.645748 C.3        1 MOL1        -0.1974
       8    H3      19.502310   20.773689   21.784107 H          1 MOL1         0.0689
       9    H4      19.475025   19.483791   20.582476 H          1 MOL1         0.0689
      10    C4      18.636733   18.925286   22.510801 C.3        1 MOL1        -0.2987
      11    H5      18.786061   19.139505   23.577198 H          1 MOL1         0.0700
      12    H6      17.610632   19.212806   22.247087 H          1 MOL1         0.0700
      13    H7      18.732627   17.841349   22.363456 H          1 MOL1         0.0700
@<TRIPOS>BOND
    1     1     2    1
    2     1     3    2
    3     1     4    1
    4     4     5    1
    5     4     6    1
    6     4     7    1
    7     7     8    1
    8     7     9    1
    9     7    10    1
   10    10    11    1
   11    10    12    1
   12    10    13    1
@<TRIPOS>SUBSTRUCTURE
       1 MOL1            1 RESIDUE      1      MOL     
@<SCITEGIC>MOL_PROPERTY
VConf Rank
SciTegic.value.IntegerValue
976

@<SCITEGIC>MOL_PROPERTY
Conf_Id
SciTegic.value.IntegerValue
36

@<SCITEGIC>MOL_PROPERTY
Delta U+W
SciTegic.value.DoubleValue
0.272

@<SCITEGIC>MOL_PROPERTY
U+W
SciTegic.value.DoubleValue
-58.060

@<SCITEGIC>MOL_PROPERTY
Grad RMS
SciTegic.value.DoubleValue
0.000000

@<SCITEGIC>MOL_PROPERTY
U
SciTegic.value.DoubleValue
9.781

@<SCITEGIC>MOL_PROPERTY
W
SciTegic.value.DoubleValue
-67.841

@<SCITEGIC>MOL_PROPERTY
W(PB)
SciTegic.value.DoubleValue
-69.537

@<SCITEGIC>MOL_PROPERTY
W(SA)
SciTegic.value.DoubleValue
1.696

@<SCITEGIC>MOL_PROPERTY
Valence
SciTegic.value.DoubleValue
6.123

@<SCITEGIC>MOL_PROPERTY
Coulomb
SciTegic.value.DoubleValue
3.449

@<SCITEGIC>MOL_PROPERTY
VdW
SciTegic.value.DoubleValue
0.209

@<SCITEGIC>MOL_PROPERTY
VdW6
SciTegic.value.DoubleValue
-3.762

@<SCITEGIC>MOL_PROPERTY
VdW12
SciTegic.value.DoubleValue
3.972

@<SCITEGIC>MOL_PROPERTY
Bond
SciTegic.value.DoubleValue
0.078

@<SCITEGIC>MOL_PROPERTY
Angle
SciTegic.value.DoubleValue
2.428

@<SCITEGIC>MOL_PROPERTY
Pdih
SciTegic.value.DoubleValue
3.616

@<SCITEGIC>MOL_PROPERTY
Idih
SciTegic.value.DoubleValue
0.002

@<SCITEGIC>MOL_PROPERTY
Tether
SciTegic.value.DoubleValue
0.000

@<TRIPOS>MOLECULE
guest-6_confgen4.mol2 : confsearch ligand conformer 977
          13          12           1
SMALL
USER_CHARGES
 
@<TRIPOS>ATOM
       1    C1      19.736395   17.576261   20.259911 C.2        1 MOL1         0.6021
       2    O1      18.915826   18.162992   19.581868 O.co2      1 MOL1        -0.6904
       3    O2      20.167138   16.477546   19.973410 O.co2      1 MOL1        -0.6904
       4    C2      20.270206   18.224769   21.538646 C.3        1 MOL1        -0.2102
       5    H1      21.360738   18.288057   21.443398 H          1 MOL1         0.0687
       6    H2      20.060460   17.537461   22.366868 H          1 MOL1         0.0687
       7    C3      19.691941   19.626809   21.863995 C.3        1 MOL1        -0.1974
       8    H3      19.900655   20.313259   21.031542 H          1 MOL1         0.0689
       9    H4      18.598760   19.561756   21.956074 H          1 MOL1         0.0689
      10    C4      20.286200   20.199693   23.166491 C.3        1 MOL1        -0.2987
      11    H5      21.376428   20.303801   23.088467 H          1 MOL1         0.0700
      12    H6      19.865527   21.191015   23.379970 H          1 MOL1         0.0700
      13    H7      20.064117   19.546224   24.020411 H          1 MOL1         0.0700
@<TRIPOS>BOND
    1     1     2    1
    2     1     3    2
    3     1     4    1
    4     4     5    1
    5     4     6    1
    6     4     7    1
    7     7     8    1
    8     7     9    1
    9     7    10    1
   10    10    11    1
   11    10    12    1
   12    10    13    1
@<TRIPOS>SUBSTRUCTURE
       1 MOL1            1 RESIDUE      1      MOL     
@<SCITEGIC>MOL_PROPERTY
VConf Rank
SciTegic.value.IntegerValue
977

@<SCITEGIC>MOL_PROPERTY
Conf_Id
SciTegic.value.IntegerValue
0

@<SCITEGIC>MOL_PROPERTY
Delta U+W
SciTegic.value.DoubleValue
0.000

@<SCITEGIC>MOL_PROPERTY
U+W
SciTegic.value.DoubleValue
-58.332

@<SCITEGIC>MOL_PROPERTY
Grad RMS
SciTegic.value.DoubleValue
0.000000

@<SCITEGIC>MOL_PROPERTY
U
SciTegic.value.DoubleValue
8.390

@<SCITEGIC>MOL_PROPERTY
W
SciTegic.value.DoubleValue
-66.722

@<SCITEGIC>MOL_PROPERTY
W(PB)
SciTegic.value.DoubleValue
-68.455

@<SCITEGIC>MOL_PROPERTY
W(SA)
SciTegic.value.DoubleValue
1.733

@<SCITEGIC>MOL_PROPERTY
Valence
SciTegic.value.DoubleValue
6.333

@<SCITEGIC>MOL_PROPERTY
Coulomb
SciTegic.value.DoubleValue
1.215

@<SCITEGIC>MOL_PROPERTY
VdW
SciTegic.value.DoubleValue
0.842

@<SCITEGIC>MOL_PROPERTY
VdW6
SciTegic.value.DoubleValue
-3.344

@<SCITEGIC>MOL_PROPERTY
VdW12
SciTegic.value.DoubleValue
4.186

@<SCITEGIC>MOL_PROPERTY
Bond
SciTegic.value.DoubleValue
0.091

@<SCITEGIC>MOL_PROPERTY
Angle
SciTegic.value.DoubleValue
2.713

@<SCITEGIC>MOL_PROPERTY
Pdih
SciTegic.value.DoubleValue
3.529

@<SCITEGIC>MOL_PROPERTY
Idih
SciTegic.value.DoubleValue
0.000

@<SCITEGIC>MOL_PROPERTY
Tether
SciTegic.value.DoubleValue
0.000

@<TRIPOS>MOLECULE
guest-6_confgen4.mol2 : confsearch ligand conformer 978
          13          12           1
SMALL
USER_CHARGES
 
@<TRIPOS>ATOM
       1    C1      19.073503   20.242497   20.357480 C.2        1 MOL1         0.6021
       2    O1      19.686067   20.369906   19.316378 O.co2      1 MOL1        -0.6904
       3    O2      18.254767   21.045907   20.756935 O.co2      1 MOL1        -0.6904
       4    C2      19.361569   19.017356   21.218611 C.3        1 MOL1        -0.2102
       5    H1      19.617372   18.184362   20.552499 H          1 MOL1         0.0687
       6    H2      18.437026   18.741822   21.740452 H          1 MOL1         0.0687
       7    C3      20.500444   19.251330   22.240408 C.3        1 MOL1        -0.1974
       8    H3      21.418303   19.536216   21.707307 H          1 MOL1         0.0689
       9    H4      20.237679   20.093685   22.895553 H          1 MOL1         0.0689
      10    C4      20.766982   17.995549   23.094376 C.3        1 MOL1        -0.2987
      11    H5      21.576790   18.180735   23.812136 H          1 MOL1         0.0700
      12    H6      19.871229   17.708246   23.660625 H          1 MOL1         0.0700
      13    H7      21.060944   17.146526   22.463264 H          1 MOL1         0.0700
@<TRIPOS>BOND
    1     1     2    1
    2     1     3    2
    3     1     4    1
    4     4     5    1
    5     4     6    1
    6     4     7    1
    7     7     8    1
    8     7     9    1
    9     7    10    1
   10    10    11    1
   11    10    12    1
   12    10    13    1
@<TRIPOS>SUBSTRUCTURE
       1 MOL1            1 RESIDUE      1      MOL     
@<SCITEGIC>MOL_PROPERTY
VConf Rank
SciTegic.value.IntegerValue
978

@<SCITEGIC>MOL_PROPERTY
Conf_Id
SciTegic.value.IntegerValue
1

@<SCITEGIC>MOL_PROPERTY
Delta U+W
SciTegic.value.DoubleValue
-1.339

@<SCITEGIC>MOL_PROPERTY
U+W
SciTegic.value.DoubleValue
-59.672

@<SCITEGIC>MOL_PROPERTY
Grad RMS
SciTegic.value.DoubleValue
0.000000

@<SCITEGIC>MOL_PROPERTY
U
SciTegic.value.DoubleValue
7.389

@<SCITEGIC>MOL_PROPERTY
W
SciTegic.value.DoubleValue
-67.061

@<SCITEGIC>MOL_PROPERTY
W(PB)
SciTegic.value.DoubleValue
-68.767

@<SCITEGIC>MOL_PROPERTY
W(SA)
SciTegic.value.DoubleValue
1.707

@<SCITEGIC>MOL_PROPERTY
Valence
SciTegic.value.DoubleValue
5.822

@<SCITEGIC>MOL_PROPERTY
Coulomb
SciTegic.value.DoubleValue
1.255

@<SCITEGIC>MOL_PROPERTY
VdW
SciTegic.value.DoubleValue
0.312

@<SCITEGIC>MOL_PROPERTY
VdW6
SciTegic.value.DoubleValue
-3.061

@<SCITEGIC>MOL_PROPERTY
VdW12
SciTegic.value.DoubleValue
3.372

@<SCITEGIC>MOL_PROPERTY
Bond
SciTegic.value.DoubleValue
0.059

@<SCITEGIC>MOL_PROPERTY
Angle
SciTegic.value.DoubleValue
2.241

@<SCITEGIC>MOL_PROPERTY
Pdih
SciTegic.value.DoubleValue
3.522

@<SCITEGIC>MOL_PROPERTY
Idih
SciTegic.value.DoubleValue
0.000

@<SCITEGIC>MOL_PROPERTY
Tether
SciTegic.value.DoubleValue
0.000

@<TRIPOS>MOLECULE
guest-6_confgen4.mol2 : confsearch ligand conformer 979
          13          12           1
SMALL
USER_CHARGES
 
@<TRIPOS>ATOM
       1    C1      19.698616   17.227566   21.970668 C.2        1 MOL1         0.6021
       2    O1      20.617096   16.456160   21.777209 O.co2      1 MOL1        -0.6904
       3    O2      18.802077   17.016007   22.762733 O.co2      1 MOL1        -0.6904
       4    C2      19.651997   18.512808   21.148047 C.3        1 MOL1        -0.2102
       5    H1      18.636999   18.925745   21.198528 H          1 MOL1         0.0687
       6    H2      19.830276   18.237936   20.101602 H          1 MOL1         0.0687
       7    C3      20.685926   19.582774   21.583367 C.3        1 MOL1        -0.1974
       8    H3      21.694659   19.146687   21.568934 H          1 MOL1         0.0689
       9    H4      20.685806   20.402095   20.851529 H          1 MOL1         0.0689
      10    C4      20.386803   20.157624   22.983368 C.3        1 MOL1        -0.2987
      11    H5      20.422597   19.371130   23.748858 H          1 MOL1         0.0700
      12    H6      21.124492   20.924842   23.252231 H          1 MOL1         0.0700
      13    H7      19.390840   20.618634   23.013703 H          1 MOL1         0.0700
@<TRIPOS>BOND
    1     1     2    1
    2     1     3    2
    3     1     4    1
    4     4     5    1
    5     4     6    1
    6     4     7    1
    7     7     8    1
    8     7     9    1
    9     7    10    1
   10    10    11    1
   11    10    12    1
   12    10    13    1
@<TRIPOS>SUBSTRUCTURE
       1 MOL1            1 RESIDUE      1      MOL     
@<SCITEGIC>MOL_PROPERTY
VConf Rank
SciTegic.value.IntegerValue
979

@<SCITEGIC>MOL_PROPERTY
Conf_Id
SciTegic.value.IntegerValue
4

@<SCITEGIC>MOL_PROPERTY
Delta U+W
SciTegic.value.DoubleValue
0.281

@<SCITEGIC>MOL_PROPERTY
U+W
SciTegic.value.DoubleValue
-58.051

@<SCITEGIC>MOL_PROPERTY
Grad RMS
SciTegic.value.DoubleValue
0.000000

@<SCITEGIC>MOL_PROPERTY
U
SciTegic.value.DoubleValue
9.781

@<SCITEGIC>MOL_PROPERTY
W
SciTegic.value.DoubleValue
-67.832

@<SCITEGIC>MOL_PROPERTY
W(PB)
SciTegic.value.DoubleValue
-69.535

@<SCITEGIC>MOL_PROPERTY
W(SA)
SciTegic.value.DoubleValue
1.703

@<SCITEGIC>MOL_PROPERTY
Valence
SciTegic.value.DoubleValue
6.123

@<SCITEGIC>MOL_PROPERTY
Coulomb
SciTegic.value.DoubleValue
3.449

@<SCITEGIC>MOL_PROPERTY
VdW
SciTegic.value.DoubleValue
0.209

@<SCITEGIC>MOL_PROPERTY
VdW6
SciTegic.value.DoubleValue
-3.762

@<SCITEGIC>MOL_PROPERTY
VdW12
SciTegic.value.DoubleValue
3.972

@<SCITEGIC>MOL_PROPERTY
Bond
SciTegic.value.DoubleValue
0.078

@<SCITEGIC>MOL_PROPERTY
Angle
SciTegic.value.DoubleValue
2.428

@<SCITEGIC>MOL_PROPERTY
Pdih
SciTegic.value.DoubleValue
3.616

@<SCITEGIC>MOL_PROPERTY
Idih
SciTegic.value.DoubleValue
0.002

@<SCITEGIC>MOL_PROPERTY
Tether
SciTegic.value.DoubleValue
0.000

@<TRIPOS>MOLECULE
guest-6_confgen4.mol2 : confsearch ligand conformer 980
          13          12           1
SMALL
USER_CHARGES
 
@<TRIPOS>ATOM
       1    C1      21.252473   17.613382   21.702288 C.2        1 MOL1         0.6021
       2    O1      20.895091   16.638038   22.332279 O.co2      1 MOL1        -0.6904
       3    O2      21.731428   17.551831   20.587429 O.co2      1 MOL1        -0.6904
       4    C2      21.127394   18.986515   22.357716 C.3        1 MOL1        -0.2102
       5    H1      22.085728   19.501957   22.222433 H          1 MOL1         0.0687
       6    H2      20.991170   18.849428   23.437501 H          1 MOL1         0.0687
       7    C3      19.985083   19.862614   21.782464 C.3        1 MOL1        -0.1974
       8    H3      20.063306   20.875688   22.200117 H          1 MOL1         0.0689
       9    H4      20.107982   19.959240   20.694585 H          1 MOL1         0.0689
      10    C4      18.587021   19.293120   22.100310 C.3        1 MOL1        -0.2987
      11    H5      18.434684   19.209061   23.184339 H          1 MOL1         0.0700
      12    H6      17.802368   19.946220   21.696732 H          1 MOL1         0.0700
      13    H7      18.457284   18.296081   21.658826 H          1 MOL1         0.0700
@<TRIPOS>BOND
    1     1     2    1
    2     1     3    2
    3     1     4    1
    4     4     5    1
    5     4     6    1
    6     4     7    1
    7     7     8    1
    8     7     9    1
    9     7    10    1
   10    10    11    1
   11    10    12    1
   12    10    13    1
@<TRIPOS>SUBSTRUCTURE
       1 MOL1            1 RESIDUE      1      MOL     
@<SCITEGIC>MOL_PROPERTY
VConf Rank
SciTegic.value.IntegerValue
980

@<SCITEGIC>MOL_PROPERTY
Conf_Id
SciTegic.value.IntegerValue
36

@<SCITEGIC>MOL_PROPERTY
Delta U+W
SciTegic.value.DoubleValue
0.272

@<SCITEGIC>MOL_PROPERTY
U+W
SciTegic.value.DoubleValue
-58.060

@<SCITEGIC>MOL_PROPERTY
Grad RMS
SciTegic.value.DoubleValue
0.000000

@<SCITEGIC>MOL_PROPERTY
U
SciTegic.value.DoubleValue
9.781

@<SCITEGIC>MOL_PROPERTY
W
SciTegic.value.DoubleValue
-67.841

@<SCITEGIC>MOL_PROPERTY
W(PB)
SciTegic.value.DoubleValue
-69.537

@<SCITEGIC>MOL_PROPERTY
W(SA)
SciTegic.value.DoubleValue
1.696

@<SCITEGIC>MOL_PROPERTY
Valence
SciTegic.value.DoubleValue
6.123

@<SCITEGIC>MOL_PROPERTY
Coulomb
SciTegic.value.DoubleValue
3.449

@<SCITEGIC>MOL_PROPERTY
VdW
SciTegic.value.DoubleValue
0.209

@<SCITEGIC>MOL_PROPERTY
VdW6
SciTegic.value.DoubleValue
-3.762

@<SCITEGIC>MOL_PROPERTY
VdW12
SciTegic.value.DoubleValue
3.972

@<SCITEGIC>MOL_PROPERTY
Bond
SciTegic.value.DoubleValue
0.078

@<SCITEGIC>MOL_PROPERTY
Angle
SciTegic.value.DoubleValue
2.428

@<SCITEGIC>MOL_PROPERTY
Pdih
SciTegic.value.DoubleValue
3.616

@<SCITEGIC>MOL_PROPERTY
Idih
SciTegic.value.DoubleValue
0.002

@<SCITEGIC>MOL_PROPERTY
Tether
SciTegic.value.DoubleValue
0.000

@<TRIPOS>MOLECULE
guest-6_confgen4.mol2 : confsearch ligand conformer 981
          13          12           1
SMALL
USER_CHARGES
 
@<TRIPOS>ATOM
       1    C1      18.661251   17.554045   21.045421 C.2        1 MOL1         0.6021
       2    O1      19.279323   16.533014   21.275226 O.co2      1 MOL1        -0.6904
       3    O2      17.571557   17.561053   20.509403 O.co2      1 MOL1        -0.6904
       4    C2      19.256456   18.907983   21.436912 C.3        1 MOL1        -0.2102
       5    H1      18.539169   19.400730   22.104023 H          1 MOL1         0.0687
       6    H2      19.316101   19.515467   20.526010 H          1 MOL1         0.0687
       7    C3      20.648738   18.849770   22.118175 C.3        1 MOL1        -0.1974
       8    H3      20.587444   18.238166   23.029184 H          1 MOL1         0.0689
       9    H4      21.365323   18.352971   21.449256 H          1 MOL1         0.0689
      10    C4      21.167113   20.257363   22.475673 C.3        1 MOL1        -0.2987
      11    H5      20.482782   20.763717   23.169084 H          1 MOL1         0.0700
      12    H6      22.152281   20.195910   22.956218 H          1 MOL1         0.0700
      13    H7      21.266853   20.879455   21.576464 H          1 MOL1         0.0700
@<TRIPOS>BOND
    1     1     2    1
    2     1     3    2
    3     1     4    1
    4     4     5    1
    5     4     6    1
    6     4     7    1
    7     7     8    1
    8     7     9    1
    9     7    10    1
   10    10    11    1
   11    10    12    1
   12    10    13    1
@<TRIPOS>SUBSTRUCTURE
       1 MOL1            1 RESIDUE      1      MOL     
@<SCITEGIC>MOL_PROPERTY
VConf Rank
SciTegic.value.IntegerValue
981

@<SCITEGIC>MOL_PROPERTY
Conf_Id
SciTegic.value.IntegerValue
0

@<SCITEGIC>MOL_PROPERTY
Delta U+W
SciTegic.value.DoubleValue
0.000

@<SCITEGIC>MOL_PROPERTY
U+W
SciTegic.value.DoubleValue
-58.332

@<SCITEGIC>MOL_PROPERTY
Grad RMS
SciTegic.value.DoubleValue
0.000000

@<SCITEGIC>MOL_PROPERTY
U
SciTegic.value.DoubleValue
8.390

@<SCITEGIC>MOL_PROPERTY
W
SciTegic.value.DoubleValue
-66.722

@<SCITEGIC>MOL_PROPERTY
W(PB)
SciTegic.value.DoubleValue
-68.455

@<SCITEGIC>MOL_PROPERTY
W(SA)
SciTegic.value.DoubleValue
1.733

@<SCITEGIC>MOL_PROPERTY
Valence
SciTegic.value.DoubleValue
6.333

@<SCITEGIC>MOL_PROPERTY
Coulomb
SciTegic.value.DoubleValue
1.215

@<SCITEGIC>MOL_PROPERTY
VdW
SciTegic.value.DoubleValue
0.842

@<SCITEGIC>MOL_PROPERTY
VdW6
SciTegic.value.DoubleValue
-3.344

@<SCITEGIC>MOL_PROPERTY
VdW12
SciTegic.value.DoubleValue
4.186

@<SCITEGIC>MOL_PROPERTY
Bond
SciTegic.value.DoubleValue
0.091

@<SCITEGIC>MOL_PROPERTY
Angle
SciTegic.value.DoubleValue
2.713

@<SCITEGIC>MOL_PROPERTY
Pdih
SciTegic.value.DoubleValue
3.529

@<SCITEGIC>MOL_PROPERTY
Idih
SciTegic.value.DoubleValue
0.000

@<SCITEGIC>MOL_PROPERTY
Tether
SciTegic.value.DoubleValue
0.000

@<TRIPOS>MOLECULE
guest-6_confgen4.mol2 : confsearch ligand conformer 982
          13          12           1
SMALL
USER_CHARGES
 
@<TRIPOS>ATOM
       1    C1      19.790360   16.978043   21.418729 C.2        1 MOL1         0.6021
       2    O1      19.375647   16.692859   20.313268 O.co2      1 MOL1        -0.6904
       3    O2      19.685537   16.247851   22.383712 O.co2      1 MOL1        -0.6904
       4    C2      20.462023   18.333750   21.609587 C.3        1 MOL1        -0.2102
       5    H1      20.976060   18.594468   20.676415 H          1 MOL1         0.0687
       6    H2      21.231630   18.227478   22.383815 H          1 MOL1         0.0687
       7    C3      19.465473   19.452216   21.999165 C.3        1 MOL1        -0.1974
       8    H3      18.694018   19.542836   21.221690 H          1 MOL1         0.0689
       9    H4      18.949740   19.175838   22.929465 H          1 MOL1         0.0689
      10    C4      20.174842   20.808596   22.184419 C.3        1 MOL1        -0.2987
      11    H5      19.452700   21.588192   22.460106 H          1 MOL1         0.0700
      12    H6      20.931185   20.751095   22.978267 H          1 MOL1         0.0700
      13    H7      20.673460   21.120915   21.257385 H          1 MOL1         0.0700
@<TRIPOS>BOND
    1     1     2    1
    2     1     3    2
    3     1     4    1
    4     4     5    1
    5     4     6    1
    6     4     7    1
    7     7     8    1
    8     7     9    1
    9     7    10    1
   10    10    11    1
   11    10    12    1
   12    10    13    1
@<TRIPOS>SUBSTRUCTURE
       1 MOL1            1 RESIDUE      1      MOL     
@<SCITEGIC>MOL_PROPERTY
VConf Rank
SciTegic.value.IntegerValue
982

@<SCITEGIC>MOL_PROPERTY
Conf_Id
SciTegic.value.IntegerValue
1

@<SCITEGIC>MOL_PROPERTY
Delta U+W
SciTegic.value.DoubleValue
-1.339

@<SCITEGIC>MOL_PROPERTY
U+W
SciTegic.value.DoubleValue
-59.672

@<SCITEGIC>MOL_PROPERTY
Grad RMS
SciTegic.value.DoubleValue
0.000000

@<SCITEGIC>MOL_PROPERTY
U
SciTegic.value.DoubleValue
7.389

@<SCITEGIC>MOL_PROPERTY
W
SciTegic.value.DoubleValue
-67.061

@<SCITEGIC>MOL_PROPERTY
W(PB)
SciTegic.value.DoubleValue
-68.767

@<SCITEGIC>MOL_PROPERTY
W(SA)
SciTegic.value.DoubleValue
1.707

@<SCITEGIC>MOL_PROPERTY
Valence
SciTegic.value.DoubleValue
5.822

@<SCITEGIC>MOL_PROPERTY
Coulomb
SciTegic.value.DoubleValue
1.255

@<SCITEGIC>MOL_PROPERTY
VdW
SciTegic.value.DoubleValue
0.312

@<SCITEGIC>MOL_PROPERTY
VdW6
SciTegic.value.DoubleValue
-3.061

@<SCITEGIC>MOL_PROPERTY
VdW12
SciTegic.value.DoubleValue
3.372

@<SCITEGIC>MOL_PROPERTY
Bond
SciTegic.value.DoubleValue
0.059

@<SCITEGIC>MOL_PROPERTY
Angle
SciTegic.value.DoubleValue
2.241

@<SCITEGIC>MOL_PROPERTY
Pdih
SciTegic.value.DoubleValue
3.522

@<SCITEGIC>MOL_PROPERTY
Idih
SciTegic.value.DoubleValue
0.000

@<SCITEGIC>MOL_PROPERTY
Tether
SciTegic.value.DoubleValue
0.000

@<TRIPOS>MOLECULE
guest-6_confgen4.mol2 : confsearch ligand conformer 983
          13          12           1
SMALL
USER_CHARGES
 
@<TRIPOS>ATOM
       1    C1      19.573054   20.367606   21.024319 C.2        1 MOL1         0.6021
       2    O1      19.793777   21.465175   21.496255 O.co2      1 MOL1        -0.6904
       3    O2      19.686133   20.112058   19.842028 O.co2      1 MOL1        -0.6904
       4    C2      19.094115   19.262977   21.963009 C.3        1 MOL1        -0.2102
       5    H1      18.642733   18.463196   21.363099 H          1 MOL1         0.0687
       6    H2      18.293438   19.684503   22.582377 H          1 MOL1         0.0687
       7    C3      20.202811   18.682956   22.878274 C.3        1 MOL1        -0.1974
       8    H3      20.676187   19.497680   23.444015 H          1 MOL1         0.0689
       9    H4      19.744818   18.010645   23.616592 H          1 MOL1         0.0689
      10    C4      21.275458   17.906449   22.086826 C.3        1 MOL1        -0.2987
      11    H5      21.786200   18.560689   21.367840 H          1 MOL1         0.0700
      12    H6      22.033124   17.493101   22.765193 H          1 MOL1         0.0700
      13    H7      20.826336   17.072973   21.530948 H          1 MOL1         0.0700
@<TRIPOS>BOND
    1     1     2    1
    2     1     3    2
    3     1     4    1
    4     4     5    1
    5     4     6    1
    6     4     7    1
    7     7     8    1
    8     7     9    1
    9     7    10    1
   10    10    11    1
   11    10    12    1
   12    10    13    1
@<TRIPOS>SUBSTRUCTURE
       1 MOL1            1 RESIDUE      1      MOL     
@<SCITEGIC>MOL_PROPERTY
VConf Rank
SciTegic.value.IntegerValue
983

@<SCITEGIC>MOL_PROPERTY
Conf_Id
SciTegic.value.IntegerValue
4

@<SCITEGIC>MOL_PROPERTY
Delta U+W
SciTegic.value.DoubleValue
0.281

@<SCITEGIC>MOL_PROPERTY
U+W
SciTegic.value.DoubleValue
-58.051

@<SCITEGIC>MOL_PROPERTY
Grad RMS
SciTegic.value.DoubleValue
0.000000

@<SCITEGIC>MOL_PROPERTY
U
SciTegic.value.DoubleValue
9.781

@<SCITEGIC>MOL_PROPERTY
W
SciTegic.value.DoubleValue
-67.832

@<SCITEGIC>MOL_PROPERTY
W(PB)
SciTegic.value.DoubleValue
-69.535

@<SCITEGIC>MOL_PROPERTY
W(SA)
SciTegic.value.DoubleValue
1.703

@<SCITEGIC>MOL_PROPERTY
Valence
SciTegic.value.DoubleValue
6.123

@<SCITEGIC>MOL_PROPERTY
Coulomb
SciTegic.value.DoubleValue
3.449

@<SCITEGIC>MOL_PROPERTY
VdW
SciTegic.value.DoubleValue
0.209

@<SCITEGIC>MOL_PROPERTY
VdW6
SciTegic.value.DoubleValue
-3.762

@<SCITEGIC>MOL_PROPERTY
VdW12
SciTegic.value.DoubleValue
3.972

@<SCITEGIC>MOL_PROPERTY
Bond
SciTegic.value.DoubleValue
0.078

@<SCITEGIC>MOL_PROPERTY
Angle
SciTegic.value.DoubleValue
2.428

@<SCITEGIC>MOL_PROPERTY
Pdih
SciTegic.value.DoubleValue
3.616

@<SCITEGIC>MOL_PROPERTY
Idih
SciTegic.value.DoubleValue
0.002

@<SCITEGIC>MOL_PROPERTY
Tether
SciTegic.value.DoubleValue
0.000

@<TRIPOS>MOLECULE
guest-6_confgen4.mol2 : confsearch ligand conformer 984
          13          12           1
SMALL
USER_CHARGES
 
@<TRIPOS>ATOM
       1    C1      18.400934   18.758028   22.467694 C.2        1 MOL1         0.6021
       2    O1      17.765480   18.345212   21.518122 O.co2      1 MOL1        -0.6904
       3    O2      18.201812   18.402406   23.612238 O.co2      1 MOL1        -0.6904
       4    C2      19.483021   19.805327   22.216743 C.3        1 MOL1        -0.2102
       5    H1      19.334270   20.610478   22.946120 H          1 MOL1         0.0687
       6    H2      19.324057   20.243975   21.223966 H          1 MOL1         0.0687
       7    C3      20.930563   19.263207   22.335333 C.3        1 MOL1        -0.1974
       8    H3      21.634937   20.105082   22.290888 H          1 MOL1         0.0689
       9    H4      21.066450   18.789372   23.317645 H          1 MOL1         0.0689
      10    C4      21.277325   18.256618   21.218883 C.3        1 MOL1        -0.2987
      11    H5      21.169475   18.717022   20.228031 H          1 MOL1         0.0700
      12    H6      22.313301   17.907996   21.320431 H          1 MOL1         0.0700
      13    H7      20.619385   17.378453   21.260924 H          1 MOL1         0.0700
@<TRIPOS>BOND
    1     1     2    1
    2     1     3    2
    3     1     4    1
    4     4     5    1
    5     4     6    1
    6     4     7    1
    7     7     8    1
    8     7     9    1
    9     7    10    1
   10    10    11    1
   11    10    12    1
   12    10    13    1
@<TRIPOS>SUBSTRUCTURE
       1 MOL1            1 RESIDUE      1      MOL     
@<SCITEGIC>MOL_PROPERTY
VConf Rank
SciTegic.value.IntegerValue
984

@<SCITEGIC>MOL_PROPERTY
Conf_Id
SciTegic.value.IntegerValue
36

@<SCITEGIC>MOL_PROPERTY
Delta U+W
SciTegic.value.DoubleValue
0.272

@<SCITEGIC>MOL_PROPERTY
U+W
SciTegic.value.DoubleValue
-58.060

@<SCITEGIC>MOL_PROPERTY
Grad RMS
SciTegic.value.DoubleValue
0.000000

@<SCITEGIC>MOL_PROPERTY
U
SciTegic.value.DoubleValue
9.781

@<SCITEGIC>MOL_PROPERTY
W
SciTegic.value.DoubleValue
-67.841

@<SCITEGIC>MOL_PROPERTY
W(PB)
SciTegic.value.DoubleValue
-69.537

@<SCITEGIC>MOL_PROPERTY
W(SA)
SciTegic.value.DoubleValue
1.696

@<SCITEGIC>MOL_PROPERTY
Valence
SciTegic.value.DoubleValue
6.123

@<SCITEGIC>MOL_PROPERTY
Coulomb
SciTegic.value.DoubleValue
3.449

@<SCITEGIC>MOL_PROPERTY
VdW
SciTegic.value.DoubleValue
0.209

@<SCITEGIC>MOL_PROPERTY
VdW6
SciTegic.value.DoubleValue
-3.762

@<SCITEGIC>MOL_PROPERTY
VdW12
SciTegic.value.DoubleValue
3.972

@<SCITEGIC>MOL_PROPERTY
Bond
SciTegic.value.DoubleValue
0.078

@<SCITEGIC>MOL_PROPERTY
Angle
SciTegic.value.DoubleValue
2.428

@<SCITEGIC>MOL_PROPERTY
Pdih
SciTegic.value.DoubleValue
3.616

@<SCITEGIC>MOL_PROPERTY
Idih
SciTegic.value.DoubleValue
0.002

@<SCITEGIC>MOL_PROPERTY
Tether
SciTegic.value.DoubleValue
0.000

@<TRIPOS>MOLECULE
guest-6_confgen4.mol2 : confsearch ligand conformer 985
          13          12           1
SMALL
USER_CHARGES
 
@<TRIPOS>ATOM
       1    C1      19.804433   19.871404   23.755262 C.2        1 MOL1         0.6021
       2    O1      20.388584   19.045707   24.429295 O.co2      1 MOL1        -0.6904
       3    O2      19.292753   20.867134   24.225900 O.co2      1 MOL1        -0.6904
       4    C2      19.691175   19.675811   22.242120 C.3        1 MOL1        -0.2102
       5    H1      20.132658   20.558146   21.763669 H          1 MOL1         0.0687
       6    H2      18.623881   19.675554   21.990685 H          1 MOL1         0.0687
       7    C3      20.359172   18.390946   21.686369 C.3        1 MOL1        -0.1974
       8    H3      21.428026   18.391776   21.941921 H          1 MOL1         0.0689
       9    H4      19.917443   17.508092   22.169274 H          1 MOL1         0.0689
      10    C4      20.194400   18.279189   20.157253 C.3        1 MOL1        -0.2987
      11    H5      20.655846   19.135892   19.648677 H          1 MOL1         0.0700
      12    H6      20.672896   17.364826   19.782765 H          1 MOL1         0.0700
      13    H7      19.133124   18.245166   19.877863 H          1 MOL1         0.0700
@<TRIPOS>BOND
    1     1     2    1
    2     1     3    2
    3     1     4    1
    4     4     5    1
    5     4     6    1
    6     4     7    1
    7     7     8    1
    8     7     9    1
    9     7    10    1
   10    10    11    1
   11    10    12    1
   12    10    13    1
@<TRIPOS>SUBSTRUCTURE
       1 MOL1            1 RESIDUE      1      MOL     
@<SCITEGIC>MOL_PROPERTY
VConf Rank
SciTegic.value.IntegerValue
985

@<SCITEGIC>MOL_PROPERTY
Conf_Id
SciTegic.value.IntegerValue
0

@<SCITEGIC>MOL_PROPERTY
Delta U+W
SciTegic.value.DoubleValue
0.000

@<SCITEGIC>MOL_PROPERTY
U+W
SciTegic.value.DoubleValue
-58.332

@<SCITEGIC>MOL_PROPERTY
Grad RMS
SciTegic.value.DoubleValue
0.000000

@<SCITEGIC>MOL_PROPERTY
U
SciTegic.value.DoubleValue
8.390

@<SCITEGIC>MOL_PROPERTY
W
SciTegic.value.DoubleValue
-66.722

@<SCITEGIC>MOL_PROPERTY
W(PB)
SciTegic.value.DoubleValue
-68.455

@<SCITEGIC>MOL_PROPERTY
W(SA)
SciTegic.value.DoubleValue
1.733

@<SCITEGIC>MOL_PROPERTY
Valence
SciTegic.value.DoubleValue
6.333

@<SCITEGIC>MOL_PROPERTY
Coulomb
SciTegic.value.DoubleValue
1.215

@<SCITEGIC>MOL_PROPERTY
VdW
SciTegic.value.DoubleValue
0.842

@<SCITEGIC>MOL_PROPERTY
VdW6
SciTegic.value.DoubleValue
-3.344

@<SCITEGIC>MOL_PROPERTY
VdW12
SciTegic.value.DoubleValue
4.186

@<SCITEGIC>MOL_PROPERTY
Bond
SciTegic.value.DoubleValue
0.091

@<SCITEGIC>MOL_PROPERTY
Angle
SciTegic.value.DoubleValue
2.713

@<SCITEGIC>MOL_PROPERTY
Pdih
SciTegic.value.DoubleValue
3.529

@<SCITEGIC>MOL_PROPERTY
Idih
SciTegic.value.DoubleValue
0.000

@<SCITEGIC>MOL_PROPERTY
Tether
SciTegic.value.DoubleValue
0.000

@<TRIPOS>MOLECULE
guest-6_confgen4.mol2 : confsearch ligand conformer 986
          13          12           1
SMALL
USER_CHARGES
 
@<TRIPOS>ATOM
       1    C1      20.015717   18.035136   23.689607 C.2        1 MOL1         0.6021
       2    O1      20.966670   18.267513   24.408670 O.co2      1 MOL1        -0.6904
       3    O2      19.358688   17.015598   23.754525 O.co2      1 MOL1        -0.6904
       4    C2      19.637951   19.070864   22.636014 C.3        1 MOL1        -0.2102
       5    H1      19.877105   20.064853   23.033267 H          1 MOL1         0.0687
       6    H2      18.551061   19.032460   22.493837 H          1 MOL1         0.0687
       7    C3      20.360001   18.849371   21.284928 C.3        1 MOL1        -0.1974
       8    H3      21.447414   18.880008   21.441187 H          1 MOL1         0.0689
       9    H4      20.121019   17.847487   20.901603 H          1 MOL1         0.0689
      10    C4      19.957198   19.911605   20.242480 C.3        1 MOL1        -0.2987
      11    H5      20.478819   19.738109   19.292178 H          1 MOL1         0.0700
      12    H6      18.877213   19.880354   20.047007 H          1 MOL1         0.0700
      13    H7      20.213819   20.920779   20.590719 H          1 MOL1         0.0700
@<TRIPOS>BOND
    1     1     2    1
    2     1     3    2
    3     1     4    1
    4     4     5    1
    5     4     6    1
    6     4     7    1
    7     7     8    1
    8     7     9    1
    9     7    10    1
   10    10    11    1
   11    10    12    1
   12    10    13    1
@<TRIPOS>SUBSTRUCTURE
       1 MOL1            1 RESIDUE      1      MOL     
@<SCITEGIC>MOL_PROPERTY
VConf Rank
SciTegic.value.IntegerValue
986

@<SCITEGIC>MOL_PROPERTY
Conf_Id
SciTegic.value.IntegerValue
1

@<SCITEGIC>MOL_PROPERTY
Delta U+W
SciTegic.value.DoubleValue
-1.339

@<SCITEGIC>MOL_PROPERTY
U+W
SciTegic.value.DoubleValue
-59.672

@<SCITEGIC>MOL_PROPERTY
Grad RMS
SciTegic.value.DoubleValue
0.000000

@<SCITEGIC>MOL_PROPERTY
U
SciTegic.value.DoubleValue
7.389

@<SCITEGIC>MOL_PROPERTY
W
SciTegic.value.DoubleValue
-67.061

@<SCITEGIC>MOL_PROPERTY
W(PB)
SciTegic.value.DoubleValue
-68.767

@<SCITEGIC>MOL_PROPERTY
W(SA)
SciTegic.value.DoubleValue
1.707

@<SCITEGIC>MOL_PROPERTY
Valence
SciTegic.value.DoubleValue
5.822

@<SCITEGIC>MOL_PROPERTY
Coulomb
SciTegic.value.DoubleValue
1.255

@<SCITEGIC>MOL_PROPERTY
VdW
SciTegic.value.DoubleValue
0.312

@<SCITEGIC>MOL_PROPERTY
VdW6
SciTegic.value.DoubleValue
-3.061

@<SCITEGIC>MOL_PROPERTY
VdW12
SciTegic.value.DoubleValue
3.372

@<SCITEGIC>MOL_PROPERTY
Bond
SciTegic.value.DoubleValue
0.059

@<SCITEGIC>MOL_PROPERTY
Angle
SciTegic.value.DoubleValue
2.241

@<SCITEGIC>MOL_PROPERTY
Pdih
SciTegic.value.DoubleValue
3.522

@<SCITEGIC>MOL_PROPERTY
Idih
SciTegic.value.DoubleValue
0.000

@<SCITEGIC>MOL_PROPERTY
Tether
SciTegic.value.DoubleValue
0.000

@<TRIPOS>MOLECULE
guest-6_confgen4.mol2 : confsearch ligand conformer 987
          13          12           1
SMALL
USER_CHARGES
 
@<TRIPOS>ATOM
       1    C1      19.971825   17.942219   23.458356 C.2        1 MOL1         0.6021
       2    O1      19.908246   18.531371   24.518996 O.co2      1 MOL1        -0.6904
       3    O2      19.307922   16.958707   23.197891 O.co2      1 MOL1        -0.6904
       4    C2      20.964861   18.445060   22.413485 C.3        1 MOL1        -0.2102
       5    H1      21.132652   17.649830   21.676774 H          1 MOL1         0.0687
       6    H2      21.921060   18.610510   22.924070 H          1 MOL1         0.0687
       7    C3      20.528765   19.750466   21.699991 C.3        1 MOL1        -0.1974
       8    H3      20.323446   20.528022   22.449105 H          1 MOL1         0.0689
       9    H4      21.359948   20.118305   21.082980 H          1 MOL1         0.0689
      10    C4      19.288250   19.548251   20.805474 C.3        1 MOL1        -0.2987
      11    H5      18.423228   19.222182   21.398133 H          1 MOL1         0.0700
      12    H6      19.018434   20.485017   20.300732 H          1 MOL1         0.0700
      13    H7      19.479548   18.790068   20.034789 H          1 MOL1         0.0700
@<TRIPOS>BOND
    1     1     2    1
    2     1     3    2
    3     1     4    1
    4     4     5    1
    5     4     6    1
    6     4     7    1
    7     7     8    1
    8     7     9    1
    9     7    10    1
   10    10    11    1
   11    10    12    1
   12    10    13    1
@<TRIPOS>SUBSTRUCTURE
       1 MOL1            1 RESIDUE      1      MOL     
@<SCITEGIC>MOL_PROPERTY
VConf Rank
SciTegic.value.IntegerValue
987

@<SCITEGIC>MOL_PROPERTY
Conf_Id
SciTegic.value.IntegerValue
4

@<SCITEGIC>MOL_PROPERTY
Delta U+W
SciTegic.value.DoubleValue
0.281

@<SCITEGIC>MOL_PROPERTY
U+W
SciTegic.value.DoubleValue
-58.051

@<SCITEGIC>MOL_PROPERTY
Grad RMS
SciTegic.value.DoubleValue
0.000000

@<SCITEGIC>MOL_PROPERTY
U
SciTegic.value.DoubleValue
9.781

@<SCITEGIC>MOL_PROPERTY
W
SciTegic.value.DoubleValue
-67.832

@<SCITEGIC>MOL_PROPERTY
W(PB)
SciTegic.value.DoubleValue
-69.535

@<SCITEGIC>MOL_PROPERTY
W(SA)
SciTegic.value.DoubleValue
1.703

@<SCITEGIC>MOL_PROPERTY
Valence
SciTegic.value.DoubleValue
6.123

@<SCITEGIC>MOL_PROPERTY
Coulomb
SciTegic.value.DoubleValue
3.449

@<SCITEGIC>MOL_PROPERTY
VdW
SciTegic.value.DoubleValue
0.209

@<SCITEGIC>MOL_PROPERTY
VdW6
SciTegic.value.DoubleValue
-3.762

@<SCITEGIC>MOL_PROPERTY
VdW12
SciTegic.value.DoubleValue
3.972

@<SCITEGIC>MOL_PROPERTY
Bond
SciTegic.value.DoubleValue
0.078

@<SCITEGIC>MOL_PROPERTY
Angle
SciTegic.value.DoubleValue
2.428

@<SCITEGIC>MOL_PROPERTY
Pdih
SciTegic.value.DoubleValue
3.616

@<SCITEGIC>MOL_PROPERTY
Idih
SciTegic.value.DoubleValue
0.002

@<SCITEGIC>MOL_PROPERTY
Tether
SciTegic.value.DoubleValue
0.000

@<TRIPOS>MOLECULE
guest-6_confgen4.mol2 : confsearch ligand conformer 988
          13          12           1
SMALL
USER_CHARGES
 
@<TRIPOS>ATOM
       1    C1      19.577790   17.855982   23.294229 C.2        1 MOL1         0.6021
       2    O1      19.574494   18.442590   24.358084 O.co2      1 MOL1        -0.6904
       3    O2      18.738479   17.036015   22.979096 O.co2      1 MOL1        -0.6904
       4    C2      20.715015   18.135620   22.314819 C.3        1 MOL1        -0.2102
       5    H1      21.100247   17.166601   21.975723 H          1 MOL1         0.0687
       6    H2      21.531543   18.629222   22.856046 H          1 MOL1         0.0687
       7    C3      20.299680   18.984046   21.085588 C.3        1 MOL1        -0.1974
       8    H3      21.130592   19.007790   20.367330 H          1 MOL1         0.0689
       9    H4      19.454394   18.501966   20.574697 H          1 MOL1         0.0689
      10    C4      19.921797   20.430320   21.466932 C.3        1 MOL1        -0.2987
      11    H5      20.761201   20.938332   21.959593 H          1 MOL1         0.0700
      12    H6      19.652366   21.008184   20.573301 H          1 MOL1         0.0700
      13    H7      19.063414   20.446506   22.151580 H          1 MOL1         0.0700
@<TRIPOS>BOND
    1     1     2    1
    2     1     3    2
    3     1     4    1
    4     4     5    1
    5     4     6    1
    6     4     7    1
    7     7     8    1
    8     7     9    1
    9     7    10    1
   10    10    11    1
   11    10    12    1
   12    10    13    1
@<TRIPOS>SUBSTRUCTURE
       1 MOL1            1 RESIDUE      1      MOL     
@<SCITEGIC>MOL_PROPERTY
VConf Rank
SciTegic.value.IntegerValue
988

@<SCITEGIC>MOL_PROPERTY
Conf_Id
SciTegic.value.IntegerValue
36

@<SCITEGIC>MOL_PROPERTY
Delta U+W
SciTegic.value.DoubleValue
0.272

@<SCITEGIC>MOL_PROPERTY
U+W
SciTegic.value.DoubleValue
-58.060

@<SCITEGIC>MOL_PROPERTY
Grad RMS
SciTegic.value.DoubleValue
0.000000

@<SCITEGIC>MOL_PROPERTY
U
SciTegic.value.DoubleValue
9.781

@<SCITEGIC>MOL_PROPERTY
W
SciTegic.value.DoubleValue
-67.841

@<SCITEGIC>MOL_PROPERTY
W(PB)
SciTegic.value.DoubleValue
-69.537

@<SCITEGIC>MOL_PROPERTY
W(SA)
SciTegic.value.DoubleValue
1.696

@<SCITEGIC>MOL_PROPERTY
Valence
SciTegic.value.DoubleValue
6.123

@<SCITEGIC>MOL_PROPERTY
Coulomb
SciTegic.value.DoubleValue
3.449

@<SCITEGIC>MOL_PROPERTY
VdW
SciTegic.value.DoubleValue
0.209

@<SCITEGIC>MOL_PROPERTY
VdW6
SciTegic.value.DoubleValue
-3.762

@<SCITEGIC>MOL_PROPERTY
VdW12
SciTegic.value.DoubleValue
3.972

@<SCITEGIC>MOL_PROPERTY
Bond
SciTegic.value.DoubleValue
0.078

@<SCITEGIC>MOL_PROPERTY
Angle
SciTegic.value.DoubleValue
2.428

@<SCITEGIC>MOL_PROPERTY
Pdih
SciTegic.value.DoubleValue
3.616

@<SCITEGIC>MOL_PROPERTY
Idih
SciTegic.value.DoubleValue
0.002

@<SCITEGIC>MOL_PROPERTY
Tether
SciTegic.value.DoubleValue
0.000

@<TRIPOS>MOLECULE
guest-6_confgen4.mol2 : confsearch ligand conformer 989
          13          12           1
SMALL
USER_CHARGES
 
@<TRIPOS>ATOM
       1    C1      19.336754   16.991091   22.017001 C.2        1 MOL1         0.6021
       2    O1      20.374466   16.439567   22.327329 O.co2      1 MOL1        -0.6904
       3    O2      18.283403   16.398869   21.896501 O.co2      1 MOL1        -0.6904
       4    C2      19.324308   18.499132   21.759436 C.3        1 MOL1        -0.2102
       5    H1      18.590982   18.942405   22.443600 H          1 MOL1         0.0687
       6    H2      18.947450   18.654646   20.741531 H          1 MOL1         0.0687
       7    C3      20.691479   19.212822   21.925113 C.3        1 MOL1        -0.1974
       8    H3      21.068743   19.053312   22.944908 H          1 MOL1         0.0689
       9    H4      21.425678   18.765146   21.240794 H          1 MOL1         0.0689
      10    C4      20.581739   20.725460   21.646333 C.3        1 MOL1        -0.2987
      11    H5      19.875869   21.202458   22.338968 H          1 MOL1         0.0700
      12    H6      21.557904   21.212769   21.768356 H          1 MOL1         0.0700
      13    H7      20.235617   20.911965   20.621180 H          1 MOL1         0.0700
@<TRIPOS>BOND
    1     1     2    1
    2     1     3    2
    3     1     4    1
    4     4     5    1
    5     4     6    1
    6     4     7    1
    7     7     8    1
    8     7     9    1
    9     7    10    1
   10    10    11    1
   11    10    12    1
   12    10    13    1
@<TRIPOS>SUBSTRUCTURE
       1 MOL1            1 RESIDUE      1      MOL     
@<SCITEGIC>MOL_PROPERTY
VConf Rank
SciTegic.value.IntegerValue
989

@<SCITEGIC>MOL_PROPERTY
Conf_Id
SciTegic.value.IntegerValue
0

@<SCITEGIC>MOL_PROPERTY
Delta U+W
SciTegic.value.DoubleValue
0.000

@<SCITEGIC>MOL_PROPERTY
U+W
SciTegic.value.DoubleValue
-58.332

@<SCITEGIC>MOL_PROPERTY
Grad RMS
SciTegic.value.DoubleValue
0.000000

@<SCITEGIC>MOL_PROPERTY
U
SciTegic.value.DoubleValue
8.390

@<SCITEGIC>MOL_PROPERTY
W
SciTegic.value.DoubleValue
-66.722

@<SCITEGIC>MOL_PROPERTY
W(PB)
SciTegic.value.DoubleValue
-68.455

@<SCITEGIC>MOL_PROPERTY
W(SA)
SciTegic.value.DoubleValue
1.733

@<SCITEGIC>MOL_PROPERTY
Valence
SciTegic.value.DoubleValue
6.333

@<SCITEGIC>MOL_PROPERTY
Coulomb
SciTegic.value.DoubleValue
1.215

@<SCITEGIC>MOL_PROPERTY
VdW
SciTegic.value.DoubleValue
0.842

@<SCITEGIC>MOL_PROPERTY
VdW6
SciTegic.value.DoubleValue
-3.344

@<SCITEGIC>MOL_PROPERTY
VdW12
SciTegic.value.DoubleValue
4.186

@<SCITEGIC>MOL_PROPERTY
Bond
SciTegic.value.DoubleValue
0.091

@<SCITEGIC>MOL_PROPERTY
Angle
SciTegic.value.DoubleValue
2.713

@<SCITEGIC>MOL_PROPERTY
Pdih
SciTegic.value.DoubleValue
3.529

@<SCITEGIC>MOL_PROPERTY
Idih
SciTegic.value.DoubleValue
0.000

@<SCITEGIC>MOL_PROPERTY
Tether
SciTegic.value.DoubleValue
0.000

@<TRIPOS>MOLECULE
guest-6_confgen4.mol2 : confsearch ligand conformer 990
          13          12           1
SMALL
USER_CHARGES
 
@<TRIPOS>ATOM
       1    C1      18.457806   19.334171   23.255918 C.2        1 MOL1         0.6021
       2    O1      17.996240   18.329571   23.759005 O.co2      1 MOL1        -0.6904
       3    O2      17.853674   20.385206   23.180350 O.co2      1 MOL1        -0.6904
       4    C2      19.864445   19.267020   22.670806 C.3        1 MOL1        -0.2102
       5    H1      20.449143   18.556886   23.268182 H          1 MOL1         0.0687
       6    H2      20.331581   20.252085   22.791009 H          1 MOL1         0.0687
       7    C3      19.879599   18.848622   21.180651 C.3        1 MOL1        -0.1974
       8    H3      19.400592   17.865578   21.071120 H          1 MOL1         0.0689
       9    H4      19.283123   19.561158   20.593852 H          1 MOL1         0.0689
      10    C4      21.314544   18.790097   20.619580 C.3        1 MOL1        -0.2987
      11    H5      21.304777   18.492040   19.563016 H          1 MOL1         0.0700
      12    H6      21.804404   19.770157   20.690815 H          1 MOL1         0.0700
      13    H7      21.922749   18.061546   21.171719 H          1 MOL1         0.0700
@<TRIPOS>BOND
    1     1     2    1
    2     1     3    2
    3     1     4    1
    4     4     5    1
    5     4     6    1
    6     4     7    1
    7     7     8    1
    8     7     9    1
    9     7    10    1
   10    10    11    1
   11    10    12    1
   12    10    13    1
@<TRIPOS>SUBSTRUCTURE
       1 MOL1            1 RESIDUE      1      MOL     
@<SCITEGIC>MOL_PROPERTY
VConf Rank
SciTegic.value.IntegerValue
990

@<SCITEGIC>MOL_PROPERTY
Conf_Id
SciTegic.value.IntegerValue
1

@<SCITEGIC>MOL_PROPERTY
Delta U+W
SciTegic.value.DoubleValue
-1.339

@<SCITEGIC>MOL_PROPERTY
U+W
SciTegic.value.DoubleValue
-59.672

@<SCITEGIC>MOL_PROPERTY
Grad RMS
SciTegic.value.DoubleValue
0.000000

@<SCITEGIC>MOL_PROPERTY
U
SciTegic.value.DoubleValue
7.389

@<SCITEGIC>MOL_PROPERTY
W
SciTegic.value.DoubleValue
-67.061

@<SCITEGIC>MOL_PROPERTY
W(PB)
SciTegic.value.DoubleValue
-68.767

@<SCITEGIC>MOL_PROPERTY
W(SA)
SciTegic.value.DoubleValue
1.707

@<SCITEGIC>MOL_PROPERTY
Valence
SciTegic.value.DoubleValue
5.822

@<SCITEGIC>MOL_PROPERTY
Coulomb
SciTegic.value.DoubleValue
1.255

@<SCITEGIC>MOL_PROPERTY
VdW
SciTegic.value.DoubleValue
0.312

@<SCITEGIC>MOL_PROPERTY
VdW6
SciTegic.value.DoubleValue
-3.061

@<SCITEGIC>MOL_PROPERTY
VdW12
SciTegic.value.DoubleValue
3.372

@<SCITEGIC>MOL_PROPERTY
Bond
SciTegic.value.DoubleValue
0.059

@<SCITEGIC>MOL_PROPERTY
Angle
SciTegic.value.DoubleValue
2.241

@<SCITEGIC>MOL_PROPERTY
Pdih
SciTegic.value.DoubleValue
3.522

@<SCITEGIC>MOL_PROPERTY
Idih
SciTegic.value.DoubleValue
0.000

@<SCITEGIC>MOL_PROPERTY
Tether
SciTegic.value.DoubleValue
0.000

@<TRIPOS>MOLECULE
guest-6_confgen4.mol2 : confsearch ligand conformer 991
          13          12           1
SMALL
USER_CHARGES
 
@<TRIPOS>ATOM
       1    C1      19.180875   17.722605   22.873721 C.2        1 MOL1         0.6021
       2    O1      19.439524   17.589580   24.053341 O.co2      1 MOL1        -0.6904
       3    O2      18.052211   17.677630   22.426507 O.co2      1 MOL1        -0.6904
       4    C2      20.339946   17.920753   21.900058 C.3        1 MOL1        -0.2102
       5    H1      19.986738   17.703886   20.884430 H          1 MOL1         0.0687
       6    H2      21.099906   17.167139   22.138622 H          1 MOL1         0.0687
       7    C3      20.979060   19.332158   21.953036 C.3        1 MOL1        -0.1974
       8    H3      21.291848   19.555781   22.982637 H          1 MOL1         0.0689
       9    H4      21.889480   19.338284   21.338242 H          1 MOL1         0.0689
      10    C4      20.022842   20.432560   21.448366 C.3        1 MOL1        -0.2987
      11    H5      19.118584   20.484817   22.069183 H          1 MOL1         0.0700
      12    H6      20.512104   21.414747   21.480419 H          1 MOL1         0.0700
      13    H7      19.715065   20.240068   20.412214 H          1 MOL1         0.0700
@<TRIPOS>BOND
    1     1     2    1
    2     1     3    2
    3     1     4    1
    4     4     5    1
    5     4     6    1
    6     4     7    1
    7     7     8    1
    8     7     9    1
    9     7    10    1
   10    10    11    1
   11    10    12    1
   12    10    13    1
@<TRIPOS>SUBSTRUCTURE
       1 MOL1            1 RESIDUE      1      MOL     
@<SCITEGIC>MOL_PROPERTY
VConf Rank
SciTegic.value.IntegerValue
991

@<SCITEGIC>MOL_PROPERTY
Conf_Id
SciTegic.value.IntegerValue
4

@<SCITEGIC>MOL_PROPERTY
Delta U+W
SciTegic.value.DoubleValue
0.281

@<SCITEGIC>MOL_PROPERTY
U+W
SciTegic.value.DoubleValue
-58.051

@<SCITEGIC>MOL_PROPERTY
Grad RMS
SciTegic.value.DoubleValue
0.000000

@<SCITEGIC>MOL_PROPERTY
U
SciTegic.value.DoubleValue
9.781

@<SCITEGIC>MOL_PROPERTY
W
SciTegic.value.DoubleValue
-67.832

@<SCITEGIC>MOL_PROPERTY
W(PB)
SciTegic.value.DoubleValue
-69.535

@<SCITEGIC>MOL_PROPERTY
W(SA)
SciTegic.value.DoubleValue
1.703

@<SCITEGIC>MOL_PROPERTY
Valence
SciTegic.value.DoubleValue
6.123

@<SCITEGIC>MOL_PROPERTY
Coulomb
SciTegic.value.DoubleValue
3.449

@<SCITEGIC>MOL_PROPERTY
VdW
SciTegic.value.DoubleValue
0.209

@<SCITEGIC>MOL_PROPERTY
VdW6
SciTegic.value.DoubleValue
-3.762

@<SCITEGIC>MOL_PROPERTY
VdW12
SciTegic.value.DoubleValue
3.972

@<SCITEGIC>MOL_PROPERTY
Bond
SciTegic.value.DoubleValue
0.078

@<SCITEGIC>MOL_PROPERTY
Angle
SciTegic.value.DoubleValue
2.428

@<SCITEGIC>MOL_PROPERTY
Pdih
SciTegic.value.DoubleValue
3.616

@<SCITEGIC>MOL_PROPERTY
Idih
SciTegic.value.DoubleValue
0.002

@<SCITEGIC>MOL_PROPERTY
Tether
SciTegic.value.DoubleValue
0.000

@<TRIPOS>MOLECULE
guest-6_confgen4.mol2 : confsearch ligand conformer 992
          13          12           1
SMALL
USER_CHARGES
 
@<TRIPOS>ATOM
       1    C1      20.825104   20.297495   22.967082 C.2        1 MOL1         0.6021
       2    O1      21.640452   20.900477   22.298107 O.co2      1 MOL1        -0.6904
       3    O2      20.077236   20.837142   23.758013 O.co2      1 MOL1        -0.6904
       4    C2      20.759266   18.777963   22.835133 C.3        1 MOL1        -0.2102
       5    H1      20.758401   18.361377   23.849452 H          1 MOL1         0.0687
       6    H2      21.678192   18.427235   22.349489 H          1 MOL1         0.0687
       7    C3      19.517391   18.261098   22.064461 C.3        1 MOL1        -0.1974
       8    H3      19.471822   17.166645   22.147936 H          1 MOL1         0.0689
       9    H4      18.604011   18.651898   22.534497 H          1 MOL1         0.0689
      10    C4      19.543696   18.651975   20.572332 C.3        1 MOL1        -0.2987
      11    H5      20.438490   18.252006   20.077601 H          1 MOL1         0.0700
      12    H6      18.662096   18.254604   20.052742 H          1 MOL1         0.0700
      13    H7      19.544854   19.743260   20.450173 H          1 MOL1         0.0700
@<TRIPOS>BOND
    1     1     2    1
    2     1     3    2
    3     1     4    1
    4     4     5    1
    5     4     6    1
    6     4     7    1
    7     7     8    1
    8     7     9    1
    9     7    10    1
   10    10    11    1
   11    10    12    1
   12    10    13    1
@<TRIPOS>SUBSTRUCTURE
       1 MOL1            1 RESIDUE      1      MOL     
@<SCITEGIC>MOL_PROPERTY
VConf Rank
SciTegic.value.IntegerValue
992

@<SCITEGIC>MOL_PROPERTY
Conf_Id
SciTegic.value.IntegerValue
36

@<SCITEGIC>MOL_PROPERTY
Delta U+W
SciTegic.value.DoubleValue
0.272

@<SCITEGIC>MOL_PROPERTY
U+W
SciTegic.value.DoubleValue
-58.060

@<SCITEGIC>MOL_PROPERTY
Grad RMS
SciTegic.value.DoubleValue
0.000000

@<SCITEGIC>MOL_PROPERTY
U
SciTegic.value.DoubleValue
9.781

@<SCITEGIC>MOL_PROPERTY
W
SciTegic.value.DoubleValue
-67.841

@<SCITEGIC>MOL_PROPERTY
W(PB)
SciTegic.value.DoubleValue
-69.537

@<SCITEGIC>MOL_PROPERTY
W(SA)
SciTegic.value.DoubleValue
1.696

@<SCITEGIC>MOL_PROPERTY
Valence
SciTegic.value.DoubleValue
6.123

@<SCITEGIC>MOL_PROPERTY
Coulomb
SciTegic.value.DoubleValue
3.449

@<SCITEGIC>MOL_PROPERTY
VdW
SciTegic.value.DoubleValue
0.209

@<SCITEGIC>MOL_PROPERTY
VdW6
SciTegic.value.DoubleValue
-3.762

@<SCITEGIC>MOL_PROPERTY
VdW12
SciTegic.value.DoubleValue
3.972

@<SCITEGIC>MOL_PROPERTY
Bond
SciTegic.value.DoubleValue
0.078

@<SCITEGIC>MOL_PROPERTY
Angle
SciTegic.value.DoubleValue
2.428

@<SCITEGIC>MOL_PROPERTY
Pdih
SciTegic.value.DoubleValue
3.616

@<SCITEGIC>MOL_PROPERTY
Idih
SciTegic.value.DoubleValue
0.002

@<SCITEGIC>MOL_PROPERTY
Tether
SciTegic.value.DoubleValue
0.000

@<TRIPOS>MOLECULE
guest-6_confgen4.mol2 : confsearch ligand conformer 993
          13          12           1
SMALL
USER_CHARGES
 
@<TRIPOS>ATOM
       1    C1      19.335849   18.134427   19.997275 C.2        1 MOL1         0.6021
       2    O1      19.958542   17.090649   20.007744 O.co2      1 MOL1        -0.6904
       3    O2      18.570349   18.438929   19.105039 O.co2      1 MOL1        -0.6904
       4    C2      19.502478   19.131144   21.145958 C.3        1 MOL1        -0.2102
       5    H1      18.509216   19.302792   21.577588 H          1 MOL1         0.0687
       6    H2      19.830733   20.082074   20.709703 H          1 MOL1         0.0687
       7    C3      20.489675   18.699902   22.261946 C.3        1 MOL1        -0.1974
       8    H3      20.160532   17.745341   22.695805 H          1 MOL1         0.0689
       9    H4      21.483668   18.525506   21.826839 H          1 MOL1         0.0689
      10    C4      20.592510   19.763654   23.373562 C.3        1 MOL1        -0.2987
      11    H5      19.616158   19.933805   23.846117 H          1 MOL1         0.0700
      12    H6      21.294812   19.441171   24.153327 H          1 MOL1         0.0700
      13    H7      20.949870   20.720250   22.970149 H          1 MOL1         0.0700
@<TRIPOS>BOND
    1     1     2    1
    2     1     3    2
    3     1     4    1
    4     4     5    1
    5     4     6    1
    6     4     7    1
    7     7     8    1
    8     7     9    1
    9     7    10    1
   10    10    11    1
   11    10    12    1
   12    10    13    1
@<TRIPOS>SUBSTRUCTURE
       1 MOL1            1 RESIDUE      1      MOL     
@<SCITEGIC>MOL_PROPERTY
VConf Rank
SciTegic.value.IntegerValue
993

@<SCITEGIC>MOL_PROPERTY
Conf_Id
SciTegic.value.IntegerValue
0

@<SCITEGIC>MOL_PROPERTY
Delta U+W
SciTegic.value.DoubleValue
0.000

@<SCITEGIC>MOL_PROPERTY
U+W
SciTegic.value.DoubleValue
-58.332

@<SCITEGIC>MOL_PROPERTY
Grad RMS
SciTegic.value.DoubleValue
0.000000

@<SCITEGIC>MOL_PROPERTY
U
SciTegic.value.DoubleValue
8.390

@<SCITEGIC>MOL_PROPERTY
W
SciTegic.value.DoubleValue
-66.722

@<SCITEGIC>MOL_PROPERTY
W(PB)
SciTegic.value.DoubleValue
-68.455

@<SCITEGIC>MOL_PROPERTY
W(SA)
SciTegic.value.DoubleValue
1.733

@<SCITEGIC>MOL_PROPERTY
Valence
SciTegic.value.DoubleValue
6.333

@<SCITEGIC>MOL_PROPERTY
Coulomb
SciTegic.value.DoubleValue
1.215

@<SCITEGIC>MOL_PROPERTY
VdW
SciTegic.value.DoubleValue
0.842

@<SCITEGIC>MOL_PROPERTY
VdW6
SciTegic.value.DoubleValue
-3.344

@<SCITEGIC>MOL_PROPERTY
VdW12
SciTegic.value.DoubleValue
4.186

@<SCITEGIC>MOL_PROPERTY
Bond
SciTegic.value.DoubleValue
0.091

@<SCITEGIC>MOL_PROPERTY
Angle
SciTegic.value.DoubleValue
2.713

@<SCITEGIC>MOL_PROPERTY
Pdih
SciTegic.value.DoubleValue
3.529

@<SCITEGIC>MOL_PROPERTY
Idih
SciTegic.value.DoubleValue
0.000

@<SCITEGIC>MOL_PROPERTY
Tether
SciTegic.value.DoubleValue
0.000

@<TRIPOS>MOLECULE
guest-6_confgen4.mol2 : confsearch ligand conformer 994
          13          12           1
SMALL
USER_CHARGES
 
@<TRIPOS>ATOM
       1    C1      21.701970   18.097600   22.632123 C.2        1 MOL1         0.6021
       2    O1      22.601605   17.870550   21.848244 O.co2      1 MOL1        -0.6904
       3    O2      21.536947   17.475998   23.662531 O.co2      1 MOL1        -0.6904
       4    C2      20.715446   19.210610   22.295259 C.3        1 MOL1        -0.2102
       5    H1      21.254163   19.987586   21.739283 H          1 MOL1         0.0687
       6    H2      20.376200   19.662228   23.235457 H          1 MOL1         0.0687
       7    C3      19.500937   18.713478   21.474481 C.3        1 MOL1        -0.1974
       8    H3      19.853207   18.254438   20.540131 H          1 MOL1         0.0689
       9    H4      18.975016   17.929124   22.036635 H          1 MOL1         0.0689
      10    C4      18.523650   19.861177   21.150461 C.3        1 MOL1        -0.2987
      11    H5      17.669984   19.489538   20.568740 H          1 MOL1         0.0700
      12    H6      18.134315   20.317015   22.070345 H          1 MOL1         0.0700
      13    H7      19.019237   20.644794   20.562333 H          1 MOL1         0.0700
@<TRIPOS>BOND
    1     1     2    1
    2     1     3    2
    3     1     4    1
    4     4     5    1
    5     4     6    1
    6     4     7    1
    7     7     8    1
    8     7     9    1
    9     7    10    1
   10    10    11    1
   11    10    12    1
   12    10    13    1
@<TRIPOS>SUBSTRUCTURE
       1 MOL1            1 RESIDUE      1      MOL     
@<SCITEGIC>MOL_PROPERTY
VConf Rank
SciTegic.value.IntegerValue
994

@<SCITEGIC>MOL_PROPERTY
Conf_Id
SciTegic.value.IntegerValue
1

@<SCITEGIC>MOL_PROPERTY
Delta U+W
SciTegic.value.DoubleValue
-1.339

@<SCITEGIC>MOL_PROPERTY
U+W
SciTegic.value.DoubleValue
-59.672

@<SCITEGIC>MOL_PROPERTY
Grad RMS
SciTegic.value.DoubleValue
0.000000

@<SCITEGIC>MOL_PROPERTY
U
SciTegic.value.DoubleValue
7.389

@<SCITEGIC>MOL_PROPERTY
W
SciTegic.value.DoubleValue
-67.061

@<SCITEGIC>MOL_PROPERTY
W(PB)
SciTegic.value.DoubleValue
-68.767

@<SCITEGIC>MOL_PROPERTY
W(SA)
SciTegic.value.DoubleValue
1.707

@<SCITEGIC>MOL_PROPERTY
Valence
SciTegic.value.DoubleValue
5.822

@<SCITEGIC>MOL_PROPERTY
Coulomb
SciTegic.value.DoubleValue
1.255

@<SCITEGIC>MOL_PROPERTY
VdW
SciTegic.value.DoubleValue
0.312

@<SCITEGIC>MOL_PROPERTY
VdW6
SciTegic.value.DoubleValue
-3.061

@<SCITEGIC>MOL_PROPERTY
VdW12
SciTegic.value.DoubleValue
3.372

@<SCITEGIC>MOL_PROPERTY
Bond
SciTegic.value.DoubleValue
0.059

@<SCITEGIC>MOL_PROPERTY
Angle
SciTegic.value.DoubleValue
2.241

@<SCITEGIC>MOL_PROPERTY
Pdih
SciTegic.value.DoubleValue
3.522

@<SCITEGIC>MOL_PROPERTY
Idih
SciTegic.value.DoubleValue
0.000

@<SCITEGIC>MOL_PROPERTY
Tether
SciTegic.value.DoubleValue
0.000

@<TRIPOS>MOLECULE
guest-6_confgen4.mol2 : confsearch ligand conformer 995
          13          12           1
SMALL
USER_CHARGES
 
@<TRIPOS>ATOM
       1    C1      21.759671   19.433339   21.429029 C.2        1 MOL1         0.6021
       2    O1      21.798677   20.207548   20.493519 O.co2      1 MOL1        -0.6904
       3    O2      22.519504   19.487846   22.375384 O.co2      1 MOL1        -0.6904
       4    C2      20.723772   18.312452   21.393660 C.3        1 MOL1        -0.2102
       5    H1      21.018693   17.538543   22.112947 H          1 MOL1         0.0687
       6    H2      20.771414   17.854427   20.398506 H          1 MOL1         0.0687
       7    C3      19.273077   18.779836   21.677162 C.3        1 MOL1        -0.1974
       8    H3      19.002384   19.583458   20.977992 H          1 MOL1         0.0689
       9    H4      18.582566   17.947528   21.483947 H          1 MOL1         0.0689
      10    C4      19.082504   19.266035   23.128789 C.3        1 MOL1        -0.2987
      11    H5      19.727283   20.128453   23.344020 H          1 MOL1         0.0700
      12    H6      18.042006   19.570481   23.301334 H          1 MOL1         0.0700
      13    H7      19.326635   18.470063   23.844485 H          1 MOL1         0.0700
@<TRIPOS>BOND
    1     1     2    1
    2     1     3    2
    3     1     4    1
    4     4     5    1
    5     4     6    1
    6     4     7    1
    7     7     8    1
    8     7     9    1
    9     7    10    1
   10    10    11    1
   11    10    12    1
   12    10    13    1
@<TRIPOS>SUBSTRUCTURE
       1 MOL1            1 RESIDUE      1      MOL     
@<SCITEGIC>MOL_PROPERTY
VConf Rank
SciTegic.value.IntegerValue
995

@<SCITEGIC>MOL_PROPERTY
Conf_Id
SciTegic.value.IntegerValue
4

@<SCITEGIC>MOL_PROPERTY
Delta U+W
SciTegic.value.DoubleValue
0.281

@<SCITEGIC>MOL_PROPERTY
U+W
SciTegic.value.DoubleValue
-58.051

@<SCITEGIC>MOL_PROPERTY
Grad RMS
SciTegic.value.DoubleValue
0.000000

@<SCITEGIC>MOL_PROPERTY
U
SciTegic.value.DoubleValue
9.781

@<SCITEGIC>MOL_PROPERTY
W
SciTegic.value.DoubleValue
-67.832

@<SCITEGIC>MOL_PROPERTY
W(PB)
SciTegic.value.DoubleValue
-69.535

@<SCITEGIC>MOL_PROPERTY
W(SA)
SciTegic.value.DoubleValue
1.703

@<SCITEGIC>MOL_PROPERTY
Valence
SciTegic.value.DoubleValue
6.123

@<SCITEGIC>MOL_PROPERTY
Coulomb
SciTegic.value.DoubleValue
3.449

@<SCITEGIC>MOL_PROPERTY
VdW
SciTegic.value.DoubleValue
0.209

@<SCITEGIC>MOL_PROPERTY
VdW6
SciTegic.value.DoubleValue
-3.762

@<SCITEGIC>MOL_PROPERTY
VdW12
SciTegic.value.DoubleValue
3.972

@<SCITEGIC>MOL_PROPERTY
Bond
SciTegic.value.DoubleValue
0.078

@<SCITEGIC>MOL_PROPERTY
Angle
SciTegic.value.DoubleValue
2.428

@<SCITEGIC>MOL_PROPERTY
Pdih
SciTegic.value.DoubleValue
3.616

@<SCITEGIC>MOL_PROPERTY
Idih
SciTegic.value.DoubleValue
0.002

@<SCITEGIC>MOL_PROPERTY
Tether
SciTegic.value.DoubleValue
0.000

@<TRIPOS>MOLECULE
guest-6_confgen4.mol2 : confsearch ligand conformer 996
          13          12           1
SMALL
USER_CHARGES
 
@<TRIPOS>ATOM
       1    C1      19.825219   17.628235   20.843067 C.2        1 MOL1         0.6021
       2    O1      20.340386   16.610752   21.261678 O.co2      1 MOL1        -0.6904
       3    O2      18.758908   17.648429   20.261113 O.co2      1 MOL1        -0.6904
       4    C2      20.571687   18.947498   21.024882 C.3        1 MOL1        -0.2102
       5    H1      20.567887   19.461551   20.056315 H          1 MOL1         0.0687
       6    H2      21.619803   18.728317   21.262998 H          1 MOL1         0.0687
       7    C3      19.962174   19.877935   22.104751 C.3        1 MOL1        -0.1974
       8    H3      20.463509   20.854554   22.062923 H          1 MOL1         0.0689
       9    H4      18.901599   20.057553   21.879273 H          1 MOL1         0.0689
      10    C4      20.101614   19.300532   23.528510 C.3        1 MOL1        -0.2987
      11    H5      21.156588   19.134059   23.782888 H          1 MOL1         0.0700
      12    H6      19.678591   19.991454   24.269302 H          1 MOL1         0.0700
      13    H7      19.573046   18.342306   23.619316 H          1 MOL1         0.0700
@<TRIPOS>BOND
    1     1     2    1
    2     1     3    2
    3     1     4    1
    4     4     5    1
    5     4     6    1
    6     4     7    1
    7     7     8    1
    8     7     9    1
    9     7    10    1
   10    10    11    1
   11    10    12    1
   12    10    13    1
@<TRIPOS>SUBSTRUCTURE
       1 MOL1            1 RESIDUE      1      MOL     
@<SCITEGIC>MOL_PROPERTY
VConf Rank
SciTegic.value.IntegerValue
996

@<SCITEGIC>MOL_PROPERTY
Conf_Id
SciTegic.value.IntegerValue
36

@<SCITEGIC>MOL_PROPERTY
Delta U+W
SciTegic.value.DoubleValue
0.272

@<SCITEGIC>MOL_PROPERTY
U+W
SciTegic.value.DoubleValue
-58.060

@<SCITEGIC>MOL_PROPERTY
Grad RMS
SciTegic.value.DoubleValue
0.000000

@<SCITEGIC>MOL_PROPERTY
U
SciTegic.value.DoubleValue
9.781

@<SCITEGIC>MOL_PROPERTY
W
SciTegic.value.DoubleValue
-67.841

@<SCITEGIC>MOL_PROPERTY
W(PB)
SciTegic.value.DoubleValue
-69.537

@<SCITEGIC>MOL_PROPERTY
W(SA)
SciTegic.value.DoubleValue
1.696

@<SCITEGIC>MOL_PROPERTY
Valence
SciTegic.value.DoubleValue
6.123

@<SCITEGIC>MOL_PROPERTY
Coulomb
SciTegic.value.DoubleValue
3.449

@<SCITEGIC>MOL_PROPERTY
VdW
SciTegic.value.DoubleValue
0.209

@<SCITEGIC>MOL_PROPERTY
VdW6
SciTegic.value.DoubleValue
-3.762

@<SCITEGIC>MOL_PROPERTY
VdW12
SciTegic.value.DoubleValue
3.972

@<SCITEGIC>MOL_PROPERTY
Bond
SciTegic.value.DoubleValue
0.078

@<SCITEGIC>MOL_PROPERTY
Angle
SciTegic.value.DoubleValue
2.428

@<SCITEGIC>MOL_PROPERTY
Pdih
SciTegic.value.DoubleValue
3.616

@<SCITEGIC>MOL_PROPERTY
Idih
SciTegic.value.DoubleValue
0.002

@<SCITEGIC>MOL_PROPERTY
Tether
SciTegic.value.DoubleValue
0.000

@<TRIPOS>MOLECULE
guest-6_confgen4.mol2 : confsearch ligand conformer 997
          13          12           1
SMALL
USER_CHARGES
 
@<TRIPOS>ATOM
       1    C1      21.744778   19.695703   20.772562 C.2        1 MOL1         0.6021
       2    O1      21.490450   20.882330   20.705012 O.co2      1 MOL1        -0.6904
       3    O2      22.756930   19.208920   20.310626 O.co2      1 MOL1        -0.6904
       4    C2      20.765030   18.745948   21.464474 C.3        1 MOL1        -0.2102
       5    H1      21.311720   18.240545   22.269481 H          1 MOL1         0.0687
       6    H2      20.484591   17.976298   20.735549 H          1 MOL1         0.0687
       7    C3      19.487307   19.412000   22.038717 C.3        1 MOL1        -0.1974
       8    H3      19.770618   20.184923   22.766782 H          1 MOL1         0.0689
       9    H4      18.942504   19.920421   21.230971 H          1 MOL1         0.0689
      10    C4      18.562206   18.380310   22.715207 C.3        1 MOL1        -0.2987
      11    H5      19.074252   17.879583   23.547436 H          1 MOL1         0.0700
      12    H6      17.664468   18.869735   23.114941 H          1 MOL1         0.0700
      13    H7      18.239538   17.612929   21.999292 H          1 MOL1         0.0700
@<TRIPOS>BOND
    1     1     2    1
    2     1     3    2
    3     1     4    1
    4     4     5    1
    5     4     6    1
    6     4     7    1
    7     7     8    1
    8     7     9    1
    9     7    10    1
   10    10    11    1
   11    10    12    1
   12    10    13    1
@<TRIPOS>SUBSTRUCTURE
       1 MOL1            1 RESIDUE      1      MOL     
@<SCITEGIC>MOL_PROPERTY
VConf Rank
SciTegic.value.IntegerValue
997

@<SCITEGIC>MOL_PROPERTY
Conf_Id
SciTegic.value.IntegerValue
0

@<SCITEGIC>MOL_PROPERTY
Delta U+W
SciTegic.value.DoubleValue
0.000

@<SCITEGIC>MOL_PROPERTY
U+W
SciTegic.value.DoubleValue
-58.332

@<SCITEGIC>MOL_PROPERTY
Grad RMS
SciTegic.value.DoubleValue
0.000000

@<SCITEGIC>MOL_PROPERTY
U
SciTegic.value.DoubleValue
8.390

@<SCITEGIC>MOL_PROPERTY
W
SciTegic.value.DoubleValue
-66.722

@<SCITEGIC>MOL_PROPERTY
W(PB)
SciTegic.value.DoubleValue
-68.455

@<SCITEGIC>MOL_PROPERTY
W(SA)
SciTegic.value.DoubleValue
1.733

@<SCITEGIC>MOL_PROPERTY
Valence
SciTegic.value.DoubleValue
6.333

@<SCITEGIC>MOL_PROPERTY
Coulomb
SciTegic.value.DoubleValue
1.215

@<SCITEGIC>MOL_PROPERTY
VdW
SciTegic.value.DoubleValue
0.842

@<SCITEGIC>MOL_PROPERTY
VdW6
SciTegic.value.DoubleValue
-3.344

@<SCITEGIC>MOL_PROPERTY
VdW12
SciTegic.value.DoubleValue
4.186

@<SCITEGIC>MOL_PROPERTY
Bond
SciTegic.value.DoubleValue
0.091

@<SCITEGIC>MOL_PROPERTY
Angle
SciTegic.value.DoubleValue
2.713

@<SCITEGIC>MOL_PROPERTY
Pdih
SciTegic.value.DoubleValue
3.529

@<SCITEGIC>MOL_PROPERTY
Idih
SciTegic.value.DoubleValue
0.000

@<SCITEGIC>MOL_PROPERTY
Tether
SciTegic.value.DoubleValue
0.000

@<TRIPOS>MOLECULE
guest-6_confgen4.mol2 : confsearch ligand conformer 998
          13          12           1
SMALL
USER_CHARGES
 
@<TRIPOS>ATOM
       1    C1      19.644847   18.190377   19.929267 C.2        1 MOL1         0.6021
       2    O1      20.534179   18.329352   19.113708 O.co2      1 MOL1        -0.6904
       3    O2      18.482269   18.006211   19.629509 O.co2      1 MOL1        -0.6904
       4    C2      20.004273   18.270197   21.409112 C.3        1 MOL1        -0.2102
       5    H1      21.019068   17.873769   21.535823 H          1 MOL1         0.0687
       6    H2      19.326950   17.607269   21.961179 H          1 MOL1         0.0687
       7    C3      19.919879   19.708579   21.974606 C.3        1 MOL1        -0.1974
       8    H3      20.594651   20.365345   21.407895 H          1 MOL1         0.0689
       9    H4      18.902198   20.098737   21.833448 H          1 MOL1         0.0689
      10    C4      20.288761   19.755351   23.470944 C.3        1 MOL1        -0.2987
      11    H5      20.223154   20.782300   23.853481 H          1 MOL1         0.0700
      12    H6      19.608502   19.128979   24.062942 H          1 MOL1         0.0700
      13    H7      21.313943   19.397671   23.634108 H          1 MOL1         0.0700
@<TRIPOS>BOND
    1     1     2    1
    2     1     3    2
    3     1     4    1
    4     4     5    1
    5     4     6    1
    6     4     7    1
    7     7     8    1
    8     7     9    1
    9     7    10    1
   10    10    11    1
   11    10    12    1
   12    10    13    1
@<TRIPOS>SUBSTRUCTURE
       1 MOL1            1 RESIDUE      1      MOL     
@<SCITEGIC>MOL_PROPERTY
VConf Rank
SciTegic.value.IntegerValue
998

@<SCITEGIC>MOL_PROPERTY
Conf_Id
SciTegic.value.IntegerValue
1

@<SCITEGIC>MOL_PROPERTY
Delta U+W
SciTegic.value.DoubleValue
-1.339

@<SCITEGIC>MOL_PROPERTY
U+W
SciTegic.value.DoubleValue
-59.672

@<SCITEGIC>MOL_PROPERTY
Grad RMS
SciTegic.value.DoubleValue
0.000000

@<SCITEGIC>MOL_PROPERTY
U
SciTegic.value.DoubleValue
7.389

@<SCITEGIC>MOL_PROPERTY
W
SciTegic.value.DoubleValue
-67.061

@<SCITEGIC>MOL_PROPERTY
W(PB)
SciTegic.value.DoubleValue
-68.767

@<SCITEGIC>MOL_PROPERTY
W(SA)
SciTegic.value.DoubleValue
1.707

@<SCITEGIC>MOL_PROPERTY
Valence
SciTegic.value.DoubleValue
5.822

@<SCITEGIC>MOL_PROPERTY
Coulomb
SciTegic.value.DoubleValue
1.255

@<SCITEGIC>MOL_PROPERTY
VdW
SciTegic.value.DoubleValue
0.312

@<SCITEGIC>MOL_PROPERTY
VdW6
SciTegic.value.DoubleValue
-3.061

@<SCITEGIC>MOL_PROPERTY
VdW12
SciTegic.value.DoubleValue
3.372

@<SCITEGIC>MOL_PROPERTY
Bond
SciTegic.value.DoubleValue
0.059

@<SCITEGIC>MOL_PROPERTY
Angle
SciTegic.value.DoubleValue
2.241

@<SCITEGIC>MOL_PROPERTY
Pdih
SciTegic.value.DoubleValue
3.522

@<SCITEGIC>MOL_PROPERTY
Idih
SciTegic.value.DoubleValue
0.000

@<SCITEGIC>MOL_PROPERTY
Tether
SciTegic.value.DoubleValue
0.000

@<TRIPOS>MOLECULE
guest-6_confgen4.mol2 : confsearch ligand conformer 999
          13          12           1
SMALL
USER_CHARGES
 
@<TRIPOS>ATOM
       1    C1      20.575896   19.823170   20.488401 C.2        1 MOL1         0.6021
       2    O1      21.026486   19.131218   19.597183 O.co2      1 MOL1        -0.6904
       3    O2      19.807171   20.744294   20.297353 O.co2      1 MOL1        -0.6904
       4    C2      21.029087   19.540851   21.918660 C.3        1 MOL1        -0.2102
       5    H1      20.803190   20.417335   22.538364 H          1 MOL1         0.0687
       6    H2      22.120658   19.438057   21.901550 H          1 MOL1         0.0687
       7    C3      20.401204   18.268785   22.543920 C.3        1 MOL1        -0.1974
       8    H3      20.598010   17.404264   21.894463 H          1 MOL1         0.0689
       9    H4      20.891858   18.060119   23.504436 H          1 MOL1         0.0689
      10    C4      18.882592   18.412210   22.774514 C.3        1 MOL1        -0.2987
      11    H5      18.353402   18.578033   21.826733 H          1 MOL1         0.0700
      12    H6      18.473792   17.503629   23.235447 H          1 MOL1         0.0700
      13    H7      18.664838   19.258042   23.439754 H          1 MOL1         0.0700
@<TRIPOS>BOND
    1     1     2    1
    2     1     3    2
    3     1     4    1
    4     4     5    1
    5     4     6    1
    6     4     7    1
    7     7     8    1
    8     7     9    1
    9     7    10    1
   10    10    11    1
   11    10    12    1
   12    10    13    1
@<TRIPOS>SUBSTRUCTURE
       1 MOL1            1 RESIDUE      1      MOL     
@<SCITEGIC>MOL_PROPERTY
VConf Rank
SciTegic.value.IntegerValue
999

@<SCITEGIC>MOL_PROPERTY
Conf_Id
SciTegic.value.IntegerValue
4

@<SCITEGIC>MOL_PROPERTY
Delta U+W
SciTegic.value.DoubleValue
0.281

@<SCITEGIC>MOL_PROPERTY
U+W
SciTegic.value.DoubleValue
-58.051

@<SCITEGIC>MOL_PROPERTY
Grad RMS
SciTegic.value.DoubleValue
0.000000

@<SCITEGIC>MOL_PROPERTY
U
SciTegic.value.DoubleValue
9.781

@<SCITEGIC>MOL_PROPERTY
W
SciTegic.value.DoubleValue
-67.832

@<SCITEGIC>MOL_PROPERTY
W(PB)
SciTegic.value.DoubleValue
-69.535

@<SCITEGIC>MOL_PROPERTY
W(SA)
SciTegic.value.DoubleValue
1.703

@<SCITEGIC>MOL_PROPERTY
Valence
SciTegic.value.DoubleValue
6.123

@<SCITEGIC>MOL_PROPERTY
Coulomb
SciTegic.value.DoubleValue
3.449

@<SCITEGIC>MOL_PROPERTY
VdW
SciTegic.value.DoubleValue
0.209

@<SCITEGIC>MOL_PROPERTY
VdW6
SciTegic.value.DoubleValue
-3.762

@<SCITEGIC>MOL_PROPERTY
VdW12
SciTegic.value.DoubleValue
3.972

@<SCITEGIC>MOL_PROPERTY
Bond
SciTegic.value.DoubleValue
0.078

@<SCITEGIC>MOL_PROPERTY
Angle
SciTegic.value.DoubleValue
2.428

@<SCITEGIC>MOL_PROPERTY
Pdih
SciTegic.value.DoubleValue
3.616

@<SCITEGIC>MOL_PROPERTY
Idih
SciTegic.value.DoubleValue
0.002

@<SCITEGIC>MOL_PROPERTY
Tether
SciTegic.value.DoubleValue
0.000

@<TRIPOS>MOLECULE
guest-6_confgen4.mol2 : confsearch ligand conformer 1000
          13          12           1
SMALL
USER_CHARGES
 
@<TRIPOS>ATOM
       1    C1      20.941733   17.968861   20.758770 C.2        1 MOL1         0.6021
       2    O1      20.546379   16.822398   20.831033 O.co2      1 MOL1        -0.6904
       3    O2      21.196921   18.524241   19.708755 O.co2      1 MOL1        -0.6904
       4    C2      21.164570   18.742792   22.055727 C.3        1 MOL1        -0.2102
       5    H1      22.155135   19.208791   21.992387 H          1 MOL1         0.0687
       6    H2      21.202691   18.029689   22.888384 H          1 MOL1         0.0687
       7    C3      20.098717   19.833311   22.335127 C.3        1 MOL1        -0.1974
       8    H3      20.416721   20.434760   23.197684 H          1 MOL1         0.0689
       9    H4      20.039536   20.517971   21.477420 H          1 MOL1         0.0689
      10    C4      18.705331   19.236991   22.622885 C.3        1 MOL1        -0.2987
      11    H5      18.737350   18.566004   23.491299 H          1 MOL1         0.0700
      12    H6      17.980172   20.033253   22.835506 H          1 MOL1         0.0700
      13    H7      18.335756   18.664113   21.762042 H          1 MOL1         0.0700
@<TRIPOS>BOND
    1     1     2    1
    2     1     3    2
    3     1     4    1
    4     4     5    1
    5     4     6    1
    6     4     7    1
    7     7     8    1
    8     7     9    1
    9     7    10    1
   10    10    11    1
   11    10    12    1
   12    10    13    1
@<TRIPOS>SUBSTRUCTURE
       1 MOL1            1 RESIDUE      1      MOL     
@<SCITEGIC>MOL_PROPERTY
VConf Rank
SciTegic.value.IntegerValue
1000

@<SCITEGIC>MOL_PROPERTY
Conf_Id
SciTegic.value.IntegerValue
36

@<SCITEGIC>MOL_PROPERTY
Delta U+W
SciTegic.value.DoubleValue
0.272

@<SCITEGIC>MOL_PROPERTY
U+W
SciTegic.value.DoubleValue
-58.060

@<SCITEGIC>MOL_PROPERTY
Grad RMS
SciTegic.value.DoubleValue
0.000000

@<SCITEGIC>MOL_PROPERTY
U
SciTegic.value.DoubleValue
9.781

@<SCITEGIC>MOL_PROPERTY
W
SciTegic.value.DoubleValue
-67.841

@<SCITEGIC>MOL_PROPERTY
W(PB)
SciTegic.value.DoubleValue
-69.537

@<SCITEGIC>MOL_PROPERTY
W(SA)
SciTegic.value.DoubleValue
1.696

@<SCITEGIC>MOL_PROPERTY
Valence
SciTegic.value.DoubleValue
6.123

@<SCITEGIC>MOL_PROPERTY
Coulomb
SciTegic.value.DoubleValue
3.449

@<SCITEGIC>MOL_PROPERTY
VdW
SciTegic.value.DoubleValue
0.209

@<SCITEGIC>MOL_PROPERTY
VdW6
SciTegic.value.DoubleValue
-3.762

@<SCITEGIC>MOL_PROPERTY
VdW12
SciTegic.value.DoubleValue
3.972

@<SCITEGIC>MOL_PROPERTY
Bond
SciTegic.value.DoubleValue
0.078

@<SCITEGIC>MOL_PROPERTY
Angle
SciTegic.value.DoubleValue
2.428

@<SCITEGIC>MOL_PROPERTY
Pdih
SciTegic.value.DoubleValue
3.616

@<SCITEGIC>MOL_PROPERTY
Idih
SciTegic.value.DoubleValue
0.002

@<SCITEGIC>MOL_PROPERTY
Tether
SciTegic.value.DoubleValue
0.000

