VeraChem MOL file


 25 25  0  0  0  0  0  0  0  0999 V2000     
   20.6088   19.3271   20.5375 C   0  0  0  0  0  0  0  0  0  0  0  0
   20.2705   19.2332   19.4964 H   0  0  0  0  0  0  0  0  0  0  0  0
   21.5818   19.8342   20.4859 H   0  0  0  0  0  0  0  0  0  0  0  0
   20.7849   17.8956   21.0954 C   0  0  0  0  0  0  0  0  0  0  0  0
   19.8353   17.3471   21.0331 H   0  0  0  0  0  0  0  0  0  0  0  0
   21.4764   17.3652   20.4264 H   0  0  0  0  0  0  0  0  0  0  0  0
   21.3551   17.8149   22.5304 C   0  0  0  0  0  0  0  0  0  0  0  0
   22.1663   18.5437   22.6600 H   0  0  0  0  0  0  0  0  0  0  0  0
   21.8285   16.8295   22.6409 H   0  0  0  0  0  0  0  0  0  0  0  0
   20.2883   17.9476   23.6503 C   0  0  0  0  0  0  0  0  0  0  0  0
   19.2729   17.8407   23.2484 H   0  0  0  0  0  0  0  0  0  0  0  0
   20.4231   17.0978   24.3332 H   0  0  0  0  0  0  0  0  0  0  0  0
   20.3932   19.2457   24.4821 C   0  0  0  0  0  0  0  0  0  0  0  0
   21.4543   19.5079   24.5999 H   0  0  0  0  0  0  0  0  0  0  0  0
   19.6404   20.4556   23.8857 C   0  0  0  0  0  0  0  0  0  0  0  0
   18.5673   20.2330   23.8184 H   0  0  0  0  0  0  0  0  0  0  0  0
   19.7290   21.2852   24.5994 H   0  0  0  0  0  0  0  0  0  0  0  0
   20.1668   20.9577   22.5191 C   0  0  0  0  0  0  0  0  0  0  0  0
   21.2650   20.9545   22.5075 H   0  0  0  0  0  0  0  0  0  0  0  0
   19.8783   22.0138   22.4258 H   0  0  0  0  0  0  0  0  0  0  0  0
   19.5856   20.2085   21.2916 C   0  0  0  0  0  0  0  0  0  0  0  0
   19.2251   20.9679   20.5841 H   0  0  0  0  0  0  0  0  0  0  0  0
   18.6988   19.6200   21.5622 H   0  0  0  0  0  0  0  0  0  0  0  0
   19.8408   18.9904   25.7679 O   0  0  0  0  0  0  0  0  0  0  0  0
   19.9651   19.8060   26.2966 H   0  0  0  0  0  0  0  0  0  0  0  0
  1  2  1  0  0  0  0
  1  3  1  0  0  0  0
  1  4  1  0  0  0  0
  4  5  1  0  0  0  0
  4  6  1  0  0  0  0
  4  7  1  0  0  0  0
  7  8  1  0  0  0  0
  7  9  1  0  0  0  0
  7 10  1  0  0  0  0
 10 11  1  0  0  0  0
 10 12  1  0  0  0  0
 10 13  1  0  0  0  0
 13 14  1  0  0  0  0
 13 15  1  0  0  0  0
 15 16  1  0  0  0  0
 15 17  1  0  0  0  0
 15 18  1  0  0  0  0
 18 19  1  0  0  0  0
 18 20  1  0  0  0  0
  1 21  1  0  0  0  0
 18 21  1  0  0  0  0
 21 22  1  0  0  0  0
 21 23  1  0  0  0  0
 13 24  1  0  0  0  0
 24 25  1  0  0  0  0
M  END
> <VConfSearch Rank>
1

> <Conf_Id>
30

> <Delta U+W>
0.000

> <U+W>
10.913

> <U>
13.140

> <W>
-2.227

> <W(PB)>
-4.367

> <W(SA)>
2.140

> <Valence>
19.155

> <Coulomb>
-8.157

> <VdW>
2.142

> <VdW6>
-11.576

> <VdW12>
13.718

> <Bond>
0.294

> <Angle>
3.547

> <Pdih>
15.314

> <Idih>
0.000

> <Tether>
0.000

$$$$
VeraChem MOL file


 25 25  0  0  0  0  0  0  0  0999 V2000     
   20.7938   19.3979   20.5789 C   0  0  0  0  0  0  0  0  0  0  0  0
   20.4153   18.8955   19.6783 H   0  0  0  0  0  0  0  0  0  0  0  0
   21.6183   20.0383   20.2371 H   0  0  0  0  0  0  0  0  0  0  0  0
   21.3763   18.3249   21.5316 C   0  0  0  0  0  0  0  0  0  0  0  0
   21.9704   17.6243   20.9291 H   0  0  0  0  0  0  0  0  0  0  0  0
   22.1008   18.7895   22.2104 H   0  0  0  0  0  0  0  0  0  0  0  0
   20.3107   17.5204   22.3184 C   0  0  0  0  0  0  0  0  0  0  0  0
   20.4625   16.4499   22.1243 H   0  0  0  0  0  0  0  0  0  0  0  0
   19.3023   17.7321   21.9442 H   0  0  0  0  0  0  0  0  0  0  0  0
   20.3562   17.7416   23.8515 C   0  0  0  0  0  0  0  0  0  0  0  0
   19.4594   17.2880   24.2940 H   0  0  0  0  0  0  0  0  0  0  0  0
   21.2087   17.1820   24.2580 H   0  0  0  0  0  0  0  0  0  0  0  0
   20.4774   19.2055   24.3440 C   0  0  0  0  0  0  0  0  0  0  0  0
   21.4861   19.5790   24.1228 H   0  0  0  0  0  0  0  0  0  0  0  0
   19.4430   20.1889   23.7438 C   0  0  0  0  0  0  0  0  0  0  0  0
   18.5012   19.6678   23.5293 H   0  0  0  0  0  0  0  0  0  0  0  0
   19.1941   20.9332   24.5119 H   0  0  0  0  0  0  0  0  0  0  0  0
   19.9355   20.9791   22.4985 C   0  0  0  0  0  0  0  0  0  0  0  0
   20.9967   21.2468   22.5914 H   0  0  0  0  0  0  0  0  0  0  0  0
   19.3935   21.9348   22.4925 H   0  0  0  0  0  0  0  0  0  0  0  0
   19.6580   20.2968   21.1360 C   0  0  0  0  0  0  0  0  0  0  0  0
   19.4825   21.0868   20.3929 H   0  0  0  0  0  0  0  0  0  0  0  0
   18.7126   19.7413   21.1807 H   0  0  0  0  0  0  0  0  0  0  0  0
   20.3132   19.1880   25.7572 O   0  0  0  0  0  0  0  0  0  0  0  0
   20.4703   20.1031   26.0710 H   0  0  0  0  0  0  0  0  0  0  0  0
  1  2  1  0  0  0  0
  1  3  1  0  0  0  0
  1  4  1  0  0  0  0
  4  5  1  0  0  0  0
  4  6  1  0  0  0  0
  4  7  1  0  0  0  0
  7  8  1  0  0  0  0
  7  9  1  0  0  0  0
  7 10  1  0  0  0  0
 10 11  1  0  0  0  0
 10 12  1  0  0  0  0
 10 13  1  0  0  0  0
 13 14  1  0  0  0  0
 13 15  1  0  0  0  0
 15 16  1  0  0  0  0
 15 17  1  0  0  0  0
 15 18  1  0  0  0  0
 18 19  1  0  0  0  0
 18 20  1  0  0  0  0
  1 21  1  0  0  0  0
 18 21  1  0  0  0  0
 21 22  1  0  0  0  0
 21 23  1  0  0  0  0
 13 24  1  0  0  0  0
 24 25  1  0  0  0  0
M  END
> <VConfSearch Rank>
2

> <Conf_Id>
162

> <Delta U+W>
0.219

> <U+W>
11.132

> <U>
13.296

> <W>
-2.164

> <W(PB)>
-4.311

> <W(SA)>
2.148

> <Valence>
18.607

> <Coulomb>
-8.339

> <VdW>
3.028

> <VdW6>
-12.271

> <VdW12>
15.299

> <Bond>
0.423

> <Angle>
4.488

> <Pdih>
13.696

> <Idih>
0.000

> <Tether>
0.000

$$$$
VeraChem MOL file


 25 25  0  0  0  0  0  0  0  0999 V2000     
   20.8037   19.5083   20.7400 C   0  0  0  0  0  0  0  0  0  0  0  0
   21.7833   19.8769   21.0695 H   0  0  0  0  0  0  0  0  0  0  0  0
   20.8503   19.5328   19.6426 H   0  0  0  0  0  0  0  0  0  0  0  0
   20.6192   18.0338   21.1778 C   0  0  0  0  0  0  0  0  0  0  0  0
   19.5558   17.7591   21.1839 H   0  0  0  0  0  0  0  0  0  0  0  0
   21.0758   17.4103   20.3968 H   0  0  0  0  0  0  0  0  0  0  0  0
   21.3059   17.6506   22.5183 C   0  0  0  0  0  0  0  0  0  0  0  0
   22.2694   18.1653   22.6321 H   0  0  0  0  0  0  0  0  0  0  0  0
   21.5535   16.5821   22.4537 H   0  0  0  0  0  0  0  0  0  0  0  0
   20.4304   17.8320   23.7856 C   0  0  0  0  0  0  0  0  0  0  0  0
   19.3798   17.6250   23.5475 H   0  0  0  0  0  0  0  0  0  0  0  0
   20.7159   17.0532   24.5046 H   0  0  0  0  0  0  0  0  0  0  0  0
   20.5644   19.1866   24.5262 C   0  0  0  0  0  0  0  0  0  0  0  0
   21.5535   19.2115   25.0060 H   0  0  0  0  0  0  0  0  0  0  0  0
   20.4443   20.4590   23.6541 C   0  0  0  0  0  0  0  0  0  0  0  0
   20.3441   21.3286   24.3166 H   0  0  0  0  0  0  0  0  0  0  0  0
   21.3927   20.6227   23.1314 H   0  0  0  0  0  0  0  0  0  0  0  0
   19.2561   20.4532   22.6562 C   0  0  0  0  0  0  0  0  0  0  0  0
   18.6238   21.3290   22.8548 H   0  0  0  0  0  0  0  0  0  0  0  0
   18.6017   19.5912   22.8318 H   0  0  0  0  0  0  0  0  0  0  0  0
   19.6786   20.4878   21.1676 C   0  0  0  0  0  0  0  0  0  0  0  0
   20.0002   21.5077   20.9164 H   0  0  0  0  0  0  0  0  0  0  0  0
   18.7884   20.2957   20.5534 H   0  0  0  0  0  0  0  0  0  0  0  0
   19.5614   19.2318   25.5342 O   0  0  0  0  0  0  0  0  0  0  0  0
   19.6584   20.0932   25.9898 H   0  0  0  0  0  0  0  0  0  0  0  0
  1  2  1  0  0  0  0
  1  3  1  0  0  0  0
  1  4  1  0  0  0  0
  4  5  1  0  0  0  0
  4  6  1  0  0  0  0
  4  7  1  0  0  0  0
  7  8  1  0  0  0  0
  7  9  1  0  0  0  0
  7 10  1  0  0  0  0
 10 11  1  0  0  0  0
 10 12  1  0  0  0  0
 10 13  1  0  0  0  0
 13 14  1  0  0  0  0
 13 15  1  0  0  0  0
 15 16  1  0  0  0  0
 15 17  1  0  0  0  0
 15 18  1  0  0  0  0
 18 19  1  0  0  0  0
 18 20  1  0  0  0  0
  1 21  1  0  0  0  0
 18 21  1  0  0  0  0
 21 22  1  0  0  0  0
 21 23  1  0  0  0  0
 13 24  1  0  0  0  0
 24 25  1  0  0  0  0
M  END
> <VConfSearch Rank>
3

> <Conf_Id>
155

> <Delta U+W>
0.339

> <U+W>
11.252

> <U>
13.420

> <W>
-2.167

> <W(PB)>
-4.325

> <W(SA)>
2.157

> <Valence>
18.609

> <Coulomb>
-8.052

> <VdW>
2.863

> <VdW6>
-12.524

> <VdW12>
15.387

> <Bond>
0.430

> <Angle>
4.724

> <Pdih>
13.455

> <Idih>
0.000

> <Tether>
0.000

$$$$
VeraChem MOL file


 25 25  0  0  0  0  0  0  0  0999 V2000     
   20.7288   19.2524   20.7041 C   0  0  0  0  0  0  0  0  0  0  0  0
   21.7668   19.0140   20.4357 H   0  0  0  0  0  0  0  0  0  0  0  0
   20.2119   19.4228   19.7499 H   0  0  0  0  0  0  0  0  0  0  0  0
   20.0711   18.0083   21.3572 C   0  0  0  0  0  0  0  0  0  0  0  0
   19.0064   18.2047   21.5181 H   0  0  0  0  0  0  0  0  0  0  0  0
   20.0736   17.2017   20.6113 H   0  0  0  0  0  0  0  0  0  0  0  0
   20.7302   17.4394   22.6476 C   0  0  0  0  0  0  0  0  0  0  0  0
   21.5212   16.7447   22.3342 H   0  0  0  0  0  0  0  0  0  0  0  0
   19.9937   16.8241   23.1820 H   0  0  0  0  0  0  0  0  0  0  0  0
   21.3748   18.4411   23.6441 C   0  0  0  0  0  0  0  0  0  0  0  0
   21.9038   17.8523   24.4049 H   0  0  0  0  0  0  0  0  0  0  0  0
   22.1827   18.9792   23.1407 H   0  0  0  0  0  0  0  0  0  0  0  0
   20.4376   19.4414   24.3827 C   0  0  0  0  0  0  0  0  0  0  0  0
   21.0455   20.3036   24.6923 H   0  0  0  0  0  0  0  0  0  0  0  0
   19.2070   19.9795   23.6103 C   0  0  0  0  0  0  0  0  0  0  0  0
   18.5557   19.1409   23.3474 H   0  0  0  0  0  0  0  0  0  0  0  0
   18.6036   20.5641   24.3173 H   0  0  0  0  0  0  0  0  0  0  0  0
   19.4648   20.8906   22.3727 C   0  0  0  0  0  0  0  0  0  0  0  0
   19.5694   21.9209   22.7390 H   0  0  0  0  0  0  0  0  0  0  0  0
   18.5661   20.8944   21.7413 H   0  0  0  0  0  0  0  0  0  0  0  0
   20.7066   20.5957   21.4909 C   0  0  0  0  0  0  0  0  0  0  0  0
   21.6144   20.7102   22.0916 H   0  0  0  0  0  0  0  0  0  0  0  0
   20.7862   21.4035   20.7506 H   0  0  0  0  0  0  0  0  0  0  0  0
   19.9431   18.7946   25.5503 O   0  0  0  0  0  0  0  0  0  0  0  0
   20.7239   18.5006   26.0632 H   0  0  0  0  0  0  0  0  0  0  0  0
  1  2  1  0  0  0  0
  1  3  1  0  0  0  0
  1  4  1  0  0  0  0
  4  5  1  0  0  0  0
  4  6  1  0  0  0  0
  4  7  1  0  0  0  0
  7  8  1  0  0  0  0
  7  9  1  0  0  0  0
  7 10  1  0  0  0  0
 10 11  1  0  0  0  0
 10 12  1  0  0  0  0
 10 13  1  0  0  0  0
 13 14  1  0  0  0  0
 13 15  1  0  0  0  0
 15 16  1  0  0  0  0
 15 17  1  0  0  0  0
 15 18  1  0  0  0  0
 18 19  1  0  0  0  0
 18 20  1  0  0  0  0
  1 21  1  0  0  0  0
 18 21  1  0  0  0  0
 21 22  1  0  0  0  0
 21 23  1  0  0  0  0
 13 24  1  0  0  0  0
 24 25  1  0  0  0  0
M  END
> <VConfSearch Rank>
4

> <Conf_Id>
146

> <Delta U+W>
2.553

> <U+W>
13.466

> <U>
15.643

> <W>
-2.176

> <W(PB)>
-4.307

> <W(SA)>
2.131

> <Valence>
18.916

> <Coulomb>
-7.506

> <VdW>
4.232

> <VdW6>
-13.632

> <VdW12>
17.864

> <Bond>
0.735

> <Angle>
9.140

> <Pdih>
9.042

> <Idih>
0.000

> <Tether>
0.000

$$$$
VeraChem MOL file


 25 25  0  0  0  0  0  0  0  0999 V2000     
   20.5059   19.2138   20.5986 C   0  0  0  0  0  0  0  0  0  0  0  0
   19.9706   18.4915   19.9676 H   0  0  0  0  0  0  0  0  0  0  0  0
   21.0965   19.8304   19.9073 H   0  0  0  0  0  0  0  0  0  0  0  0
   21.5037   18.4559   21.5098 C   0  0  0  0  0  0  0  0  0  0  0  0
   22.2114   17.9320   20.8529 H   0  0  0  0  0  0  0  0  0  0  0  0
   22.1223   19.1656   22.0709 H   0  0  0  0  0  0  0  0  0  0  0  0
   20.8907   17.3980   22.4613 C   0  0  0  0  0  0  0  0  0  0  0  0
   21.7220   16.8706   22.9488 H   0  0  0  0  0  0  0  0  0  0  0  0
   20.3630   16.6387   21.8686 H   0  0  0  0  0  0  0  0  0  0  0  0
   19.9421   17.9179   23.5729 C   0  0  0  0  0  0  0  0  0  0  0  0
   18.9363   18.0762   23.1712 H   0  0  0  0  0  0  0  0  0  0  0  0
   19.8216   17.1042   24.3008 H   0  0  0  0  0  0  0  0  0  0  0  0
   20.4296   19.1905   24.3123 C   0  0  0  0  0  0  0  0  0  0  0  0
   21.5131   19.3047   24.1736 H   0  0  0  0  0  0  0  0  0  0  0  0
   19.7156   20.4931   23.8703 C   0  0  0  0  0  0  0  0  0  0  0  0
   18.6305   20.3640   23.9789 H   0  0  0  0  0  0  0  0  0  0  0  0
   19.9919   21.2873   24.5761 H   0  0  0  0  0  0  0  0  0  0  0  0
   20.0295   21.0157   22.4420 C   0  0  0  0  0  0  0  0  0  0  0  0
   21.1060   21.1910   22.3189 H   0  0  0  0  0  0  0  0  0  0  0  0
   19.5660   22.0079   22.3549 H   0  0  0  0  0  0  0  0  0  0  0  0
   19.4719   20.1390   21.2909 C   0  0  0  0  0  0  0  0  0  0  0  0
   19.0686   20.8070   20.5175 H   0  0  0  0  0  0  0  0  0  0  0  0
   18.6047   19.5623   21.6317 H   0  0  0  0  0  0  0  0  0  0  0  0
   20.1750   19.0192   25.7019 O   0  0  0  0  0  0  0  0  0  0  0  0
   20.5426   19.8057   26.1564 H   0  0  0  0  0  0  0  0  0  0  0  0
  1  2  1  0  0  0  0
  1  3  1  0  0  0  0
  1  4  1  0  0  0  0
  4  5  1  0  0  0  0
  4  6  1  0  0  0  0
  4  7  1  0  0  0  0
  7  8  1  0  0  0  0
  7  9  1  0  0  0  0
  7 10  1  0  0  0  0
 10 11  1  0  0  0  0
 10 12  1  0  0  0  0
 10 13  1  0  0  0  0
 13 14  1  0  0  0  0
 13 15  1  0  0  0  0
 15 16  1  0  0  0  0
 15 17  1  0  0  0  0
 15 18  1  0  0  0  0
 18 19  1  0  0  0  0
 18 20  1  0  0  0  0
  1 21  1  0  0  0  0
 18 21  1  0  0  0  0
 21 22  1  0  0  0  0
 21 23  1  0  0  0  0
 13 24  1  0  0  0  0
 24 25  1  0  0  0  0
M  END
> <VConfSearch Rank>
5

> <Conf_Id>
62

> <Delta U+W>
-1.779

> <U+W>
9.134

> <U>
11.364

> <W>
-2.230

> <W(PB)>
-4.359

> <W(SA)>
2.129

> <Valence>
16.582

> <Coulomb>
-8.150

> <VdW>
2.933

> <VdW6>
-12.531

> <VdW12>
15.464

> <Bond>
0.439

> <Angle>
5.099

> <Pdih>
11.044

> <Idih>
0.000

> <Tether>
0.000

$$$$
VeraChem MOL file


 25 25  0  0  0  0  0  0  0  0999 V2000     
   19.7053   18.9901   20.9362 C   0  0  0  0  0  0  0  0  0  0  0  0
   18.8754   18.6767   21.5797 H   0  0  0  0  0  0  0  0  0  0  0  0
   19.3293   18.8525   19.9133 H   0  0  0  0  0  0  0  0  0  0  0  0
   20.9152   18.0390   21.1134 C   0  0  0  0  0  0  0  0  0  0  0  0
   20.5826   17.0289   20.8376 H   0  0  0  0  0  0  0  0  0  0  0  0
   21.6945   18.3039   20.3861 H   0  0  0  0  0  0  0  0  0  0  0  0
   21.5506   17.9596   22.5250 C   0  0  0  0  0  0  0  0  0  0  0  0
   22.2585   18.7825   22.6751 H   0  0  0  0  0  0  0  0  0  0  0  0
   22.1728   17.0544   22.5492 H   0  0  0  0  0  0  0  0  0  0  0  0
   20.5424   17.8866   23.7029 C   0  0  0  0  0  0  0  0  0  0  0  0
   19.5766   17.4858   23.3714 H   0  0  0  0  0  0  0  0  0  0  0  0
   20.9315   17.1495   24.4174 H   0  0  0  0  0  0  0  0  0  0  0  0
   20.3426   19.2158   24.4740 C   0  0  0  0  0  0  0  0  0  0  0  0
   21.3306   19.5878   24.7814 H   0  0  0  0  0  0  0  0  0  0  0  0
   19.6165   20.3520   23.7114 C   0  0  0  0  0  0  0  0  0  0  0  0
   18.6238   20.0213   23.3827 H   0  0  0  0  0  0  0  0  0  0  0  0
   19.4273   21.1541   24.4371 H   0  0  0  0  0  0  0  0  0  0  0  0
   20.4195   20.9708   22.5358 C   0  0  0  0  0  0  0  0  0  0  0  0
   21.4947   20.8190   22.6831 H   0  0  0  0  0  0  0  0  0  0  0  0
   20.2891   22.0612   22.5681 H   0  0  0  0  0  0  0  0  0  0  0  0
   19.9917   20.5011   21.1218 C   0  0  0  0  0  0  0  0  0  0  0  0
   20.7522   20.8184   20.3955 H   0  0  0  0  0  0  0  0  0  0  0  0
   19.0766   21.0448   20.8502 H   0  0  0  0  0  0  0  0  0  0  0  0
   19.5803   18.9280   25.6396 O   0  0  0  0  0  0  0  0  0  0  0  0
   20.0827   18.2578   26.1482 H   0  0  0  0  0  0  0  0  0  0  0  0
  1  2  1  0  0  0  0
  1  3  1  0  0  0  0
  1  4  1  0  0  0  0
  4  5  1  0  0  0  0
  4  6  1  0  0  0  0
  4  7  1  0  0  0  0
  7  8  1  0  0  0  0
  7  9  1  0  0  0  0
  7 10  1  0  0  0  0
 10 11  1  0  0  0  0
 10 12  1  0  0  0  0
 10 13  1  0  0  0  0
 13 14  1  0  0  0  0
 13 15  1  0  0  0  0
 15 16  1  0  0  0  0
 15 17  1  0  0  0  0
 15 18  1  0  0  0  0
 18 19  1  0  0  0  0
 18 20  1  0  0  0  0
  1 21  1  0  0  0  0
 18 21  1  0  0  0  0
 21 22  1  0  0  0  0
 21 23  1  0  0  0  0
 13 24  1  0  0  0  0
 24 25  1  0  0  0  0
M  END
> <VConfSearch Rank>
6

> <Conf_Id>
121

> <Delta U+W>
-1.283

> <U+W>
9.630

> <U>
11.876

> <W>
-2.246

> <W(PB)>
-4.376

> <W(SA)>
2.130

> <Valence>
17.153

> <Coulomb>
-7.966

> <VdW>
2.689

> <VdW6>
-12.458

> <VdW12>
15.147

> <Bond>
0.421

> <Angle>
5.258

> <Pdih>
11.475

> <Idih>
0.000

> <Tether>
0.000

$$$$
VeraChem MOL file


 25 25  0  0  0  0  0  0  0  0999 V2000     
   19.7055   18.9895   20.9362 C   0  0  0  0  0  0  0  0  0  0  0  0
   18.8759   18.6752   21.5797 H   0  0  0  0  0  0  0  0  0  0  0  0
   19.3295   18.8518   19.9133 H   0  0  0  0  0  0  0  0  0  0  0  0
   20.9161   18.0392   21.1132 C   0  0  0  0  0  0  0  0  0  0  0  0
   20.5844   17.0292   20.8362 H   0  0  0  0  0  0  0  0  0  0  0  0
   21.6958   18.3053   20.3867 H   0  0  0  0  0  0  0  0  0  0  0  0
   21.5505   17.9585   22.5253 C   0  0  0  0  0  0  0  0  0  0  0  0
   22.2605   18.7796   22.6759 H   0  0  0  0  0  0  0  0  0  0  0  0
   22.1701   17.0516   22.5506 H   0  0  0  0  0  0  0  0  0  0  0  0
   20.5415   17.8886   23.7028 C   0  0  0  0  0  0  0  0  0  0  0  0
   19.5757   17.4863   23.3738 H   0  0  0  0  0  0  0  0  0  0  0  0
   20.9287   17.1558   24.4231 H   0  0  0  0  0  0  0  0  0  0  0  0
   20.3421   19.2173   24.4741 C   0  0  0  0  0  0  0  0  0  0  0  0
   21.3314   19.5856   24.7814 H   0  0  0  0  0  0  0  0  0  0  0  0
   19.6158   20.3542   23.7115 C   0  0  0  0  0  0  0  0  0  0  0  0
   18.6242   20.0223   23.3802 H   0  0  0  0  0  0  0  0  0  0  0  0
   19.4253   21.1608   24.4314 H   0  0  0  0  0  0  0  0  0  0  0  0
   20.4202   20.9700   22.5355 C   0  0  0  0  0  0  0  0  0  0  0  0
   21.4952   20.8155   22.6822 H   0  0  0  0  0  0  0  0  0  0  0  0
   20.2930   22.0608   22.5667 H   0  0  0  0  0  0  0  0  0  0  0  0
   19.9908   20.5007   21.1220 C   0  0  0  0  0  0  0  0  0  0  0  0
   20.7502   20.8186   20.3949 H   0  0  0  0  0  0  0  0  0  0  0  0
   19.0750   21.0439   20.8516 H   0  0  0  0  0  0  0  0  0  0  0  0
   19.5814   18.9251   25.6396 O   0  0  0  0  0  0  0  0  0  0  0  0
   19.5196   19.7572   26.1534 H   0  0  0  0  0  0  0  0  0  0  0  0
  1  2  1  0  0  0  0
  1  3  1  0  0  0  0
  1  4  1  0  0  0  0
  4  5  1  0  0  0  0
  4  6  1  0  0  0  0
  4  7  1  0  0  0  0
  7  8  1  0  0  0  0
  7  9  1  0  0  0  0
  7 10  1  0  0  0  0
 10 11  1  0  0  0  0
 10 12  1  0  0  0  0
 10 13  1  0  0  0  0
 13 14  1  0  0  0  0
 13 15  1  0  0  0  0
 15 16  1  0  0  0  0
 15 17  1  0  0  0  0
 15 18  1  0  0  0  0
 18 19  1  0  0  0  0
 18 20  1  0  0  0  0
  1 21  1  0  0  0  0
 18 21  1  0  0  0  0
 21 22  1  0  0  0  0
 21 23  1  0  0  0  0
 13 24  1  0  0  0  0
 24 25  1  0  0  0  0
M  END
> <VConfSearch Rank>
7

> <Conf_Id>
24

> <Delta U+W>
-1.236

> <U+W>
9.678

> <U>
11.876

> <W>
-2.199

> <W(PB)>
-4.335

> <W(SA)>
2.137

> <Valence>
17.153

> <Coulomb>
-7.966

> <VdW>
2.689

> <VdW6>
-12.458

> <VdW12>
15.147

> <Bond>
0.421

> <Angle>
5.258

> <Pdih>
11.475

> <Idih>
0.000

> <Tether>
0.000

$$$$
VeraChem MOL file


 25 25  0  0  0  0  0  0  0  0999 V2000     
   20.8194   19.4040   20.5842 C   0  0  0  0  0  0  0  0  0  0  0  0
   21.8645   19.4445   20.2482 H   0  0  0  0  0  0  0  0  0  0  0  0
   20.2113   19.5591   19.6825 H   0  0  0  0  0  0  0  0  0  0  0  0
   20.5202   17.9796   21.1225 C   0  0  0  0  0  0  0  0  0  0  0  0
   19.4383   17.7993   21.1583 H   0  0  0  0  0  0  0  0  0  0  0  0
   20.8969   17.2693   20.3737 H   0  0  0  0  0  0  0  0  0  0  0  0
   21.1621   17.6193   22.4852 C   0  0  0  0  0  0  0  0  0  0  0  0
   22.1456   18.0965   22.5915 H   0  0  0  0  0  0  0  0  0  0  0  0
   21.3632   16.5393   22.4671 H   0  0  0  0  0  0  0  0  0  0  0  0
   20.2686   17.8907   23.7285 C   0  0  0  0  0  0  0  0  0  0  0  0
   19.2150   17.6790   23.5060 H   0  0  0  0  0  0  0  0  0  0  0  0
   20.5618   17.1562   24.4912 H   0  0  0  0  0  0  0  0  0  0  0  0
   20.4204   19.3016   24.3478 C   0  0  0  0  0  0  0  0  0  0  0  0
   21.4374   19.6633   24.1463 H   0  0  0  0  0  0  0  0  0  0  0  0
   19.3954   20.3557   23.8577 C   0  0  0  0  0  0  0  0  0  0  0  0
   18.4092   20.1307   24.2845 H   0  0  0  0  0  0  0  0  0  0  0  0
   19.6912   21.3266   24.2766 H   0  0  0  0  0  0  0  0  0  0  0  0
   19.2340   20.5146   22.3250 C   0  0  0  0  0  0  0  0  0  0  0  0
   18.6676   21.4366   22.1360 H   0  0  0  0  0  0  0  0  0  0  0  0
   18.5983   19.7112   21.9349 H   0  0  0  0  0  0  0  0  0  0  0  0
   20.5751   20.5877   21.5519 C   0  0  0  0  0  0  0  0  0  0  0  0
   21.4231   20.6817   22.2401 H   0  0  0  0  0  0  0  0  0  0  0  0
   20.5909   21.5152   20.9634 H   0  0  0  0  0  0  0  0  0  0  0  0
   20.2688   19.1900   25.7571 O   0  0  0  0  0  0  0  0  0  0  0  0
   19.3647   18.8473   25.9122 H   0  0  0  0  0  0  0  0  0  0  0  0
  1  2  1  0  0  0  0
  1  3  1  0  0  0  0
  1  4  1  0  0  0  0
  4  5  1  0  0  0  0
  4  6  1  0  0  0  0
  4  7  1  0  0  0  0
  7  8  1  0  0  0  0
  7  9  1  0  0  0  0
  7 10  1  0  0  0  0
 10 11  1  0  0  0  0
 10 12  1  0  0  0  0
 10 13  1  0  0  0  0
 13 14  1  0  0  0  0
 13 15  1  0  0  0  0
 15 16  1  0  0  0  0
 15 17  1  0  0  0  0
 15 18  1  0  0  0  0
 18 19  1  0  0  0  0
 18 20  1  0  0  0  0
  1 21  1  0  0  0  0
 18 21  1  0  0  0  0
 21 22  1  0  0  0  0
 21 23  1  0  0  0  0
 13 24  1  0  0  0  0
 24 25  1  0  0  0  0
M  END
> <VConfSearch Rank>
8

> <Conf_Id>
167

> <Delta U+W>
0.388

> <U+W>
11.301

> <U>
13.202

> <W>
-1.901

> <W(PB)>
-4.065

> <W(SA)>
2.163

> <Valence>
18.957

> <Coulomb>
-8.753

> <VdW>
2.998

> <VdW6>
-12.294

> <VdW12>
15.292

> <Bond>
0.419

> <Angle>
4.543

> <Pdih>
13.996

> <Idih>
0.000

> <Tether>
0.000

$$$$
VeraChem MOL file


 25 25  0  0  0  0  0  0  0  0999 V2000     
   20.4803   19.3604   20.6029 C   0  0  0  0  0  0  0  0  0  0  0  0
   19.6100   19.5759   19.9682 H   0  0  0  0  0  0  0  0  0  0  0  0
   21.3341   19.2788   19.9164 H   0  0  0  0  0  0  0  0  0  0  0  0
   20.2815   17.9769   21.2748 C   0  0  0  0  0  0  0  0  0  0  0  0
   19.2434   17.8520   21.6028 H   0  0  0  0  0  0  0  0  0  0  0  0
   20.4132   17.2171   20.4923 H   0  0  0  0  0  0  0  0  0  0  0  0
   21.2608   17.6507   22.4322 C   0  0  0  0  0  0  0  0  0  0  0  0
   22.1989   18.2104   22.3249 H   0  0  0  0  0  0  0  0  0  0  0  0
   21.5450   16.5939   22.3362 H   0  0  0  0  0  0  0  0  0  0  0  0
   20.6703   17.8331   23.8570 C   0  0  0  0  0  0  0  0  0  0  0  0
   19.7563   17.2325   23.9530 H   0  0  0  0  0  0  0  0  0  0  0  0
   21.3854   17.3996   24.5688 H   0  0  0  0  0  0  0  0  0  0  0  0
   20.3766   19.2843   24.3122 C   0  0  0  0  0  0  0  0  0  0  0  0
   21.2830   19.8912   24.1845 H   0  0  0  0  0  0  0  0  0  0  0  0
   19.1890   19.9520   23.5715 C   0  0  0  0  0  0  0  0  0  0  0  0
   18.5307   19.1864   23.1487 H   0  0  0  0  0  0  0  0  0  0  0  0
   18.5576   20.4834   24.2960 H   0  0  0  0  0  0  0  0  0  0  0  0
   19.5908   20.9759   22.4784 C   0  0  0  0  0  0  0  0  0  0  0  0
   19.8839   21.9082   22.9803 H   0  0  0  0  0  0  0  0  0  0  0  0
   18.7037   21.2257   21.8807 H   0  0  0  0  0  0  0  0  0  0  0  0
   20.7485   20.5717   21.5311 C   0  0  0  0  0  0  0  0  0  0  0  0
   21.6745   20.4198   22.0972 H   0  0  0  0  0  0  0  0  0  0  0  0
   20.9581   21.4359   20.8861 H   0  0  0  0  0  0  0  0  0  0  0  0
   20.0663   19.2380   25.6999 O   0  0  0  0  0  0  0  0  0  0  0  0
   19.9503   20.1661   25.9926 H   0  0  0  0  0  0  0  0  0  0  0  0
  1  2  1  0  0  0  0
  1  3  1  0  0  0  0
  1  4  1  0  0  0  0
  4  5  1  0  0  0  0
  4  6  1  0  0  0  0
  4  7  1  0  0  0  0
  7  8  1  0  0  0  0
  7  9  1  0  0  0  0
  7 10  1  0  0  0  0
 10 11  1  0  0  0  0
 10 12  1  0  0  0  0
 10 13  1  0  0  0  0
 13 14  1  0  0  0  0
 13 15  1  0  0  0  0
 15 16  1  0  0  0  0
 15 17  1  0  0  0  0
 15 18  1  0  0  0  0
 18 19  1  0  0  0  0
 18 20  1  0  0  0  0
  1 21  1  0  0  0  0
 18 21  1  0  0  0  0
 21 22  1  0  0  0  0
 21 23  1  0  0  0  0
 13 24  1  0  0  0  0
 24 25  1  0  0  0  0
M  END
> <VConfSearch Rank>
9

> <Conf_Id>
60

> <Delta U+W>
-1.838

> <U+W>
9.075

> <U>
11.150

> <W>
-2.074

> <W(PB)>
-4.196

> <W(SA)>
2.121

> <Valence>
16.582

> <Coulomb>
-8.361

> <VdW>
2.928

> <VdW6>
-12.539

> <VdW12>
15.467

> <Bond>
0.441

> <Angle>
5.093

> <Pdih>
11.049

> <Idih>
0.000

> <Tether>
0.000

$$$$
VeraChem MOL file


 25 25  0  0  0  0  0  0  0  0999 V2000     
   20.5066   19.2133   20.5998 C   0  0  0  0  0  0  0  0  0  0  0  0
   19.9708   18.4908   19.9695 H   0  0  0  0  0  0  0  0  0  0  0  0
   21.0982   19.8282   19.9078 H   0  0  0  0  0  0  0  0  0  0  0  0
   21.5040   18.4553   21.5116 C   0  0  0  0  0  0  0  0  0  0  0  0
   22.2119   17.9315   20.8549 H   0  0  0  0  0  0  0  0  0  0  0  0
   22.1225   19.1655   22.0722 H   0  0  0  0  0  0  0  0  0  0  0  0
   20.8911   17.3970   22.4631 C   0  0  0  0  0  0  0  0  0  0  0  0
   21.7222   16.8702   22.9517 H   0  0  0  0  0  0  0  0  0  0  0  0
   20.3650   16.6372   21.8694 H   0  0  0  0  0  0  0  0  0  0  0  0
   19.9394   17.9175   23.5712 C   0  0  0  0  0  0  0  0  0  0  0  0
   18.9372   18.0813   23.1626 H   0  0  0  0  0  0  0  0  0  0  0  0
   19.8080   17.1016   24.2944 H   0  0  0  0  0  0  0  0  0  0  0  0
   20.4284   19.1900   24.3105 C   0  0  0  0  0  0  0  0  0  0  0  0
   21.5109   19.3095   24.1686 H   0  0  0  0  0  0  0  0  0  0  0  0
   19.7130   20.4914   23.8702 C   0  0  0  0  0  0  0  0  0  0  0  0
   18.6284   20.3623   23.9803 H   0  0  0  0  0  0  0  0  0  0  0  0
   19.9908   21.2806   24.5814 H   0  0  0  0  0  0  0  0  0  0  0  0
   20.0282   21.0168   22.4430 C   0  0  0  0  0  0  0  0  0  0  0  0
   21.1049   21.1928   22.3219 H   0  0  0  0  0  0  0  0  0  0  0  0
   19.5642   22.0089   22.3573 H   0  0  0  0  0  0  0  0  0  0  0  0
   19.4731   20.1415   21.2896 C   0  0  0  0  0  0  0  0  0  0  0  0
   19.0743   20.8108   20.5150 H   0  0  0  0  0  0  0  0  0  0  0  0
   18.6028   19.5675   21.6270 H   0  0  0  0  0  0  0  0  0  0  0  0
   20.1800   19.0201   25.7010 O   0  0  0  0  0  0  0  0  0  0  0  0
   20.6926   18.2340   25.9837 H   0  0  0  0  0  0  0  0  0  0  0  0
  1  2  1  0  0  0  0
  1  3  1  0  0  0  0
  1  4  1  0  0  0  0
  4  5  1  0  0  0  0
  4  6  1  0  0  0  0
  4  7  1  0  0  0  0
  7  8  1  0  0  0  0
  7  9  1  0  0  0  0
  7 10  1  0  0  0  0
 10 11  1  0  0  0  0
 10 12  1  0  0  0  0
 10 13  1  0  0  0  0
 13 14  1  0  0  0  0
 13 15  1  0  0  0  0
 15 16  1  0  0  0  0
 15 17  1  0  0  0  0
 15 18  1  0  0  0  0
 18 19  1  0  0  0  0
 18 20  1  0  0  0  0
  1 21  1  0  0  0  0
 18 21  1  0  0  0  0
 21 22  1  0  0  0  0
 21 23  1  0  0  0  0
 13 24  1  0  0  0  0
 24 25  1  0  0  0  0
M  END
> <VConfSearch Rank>
10

> <Conf_Id>
129

> <Delta U+W>
-1.846

> <U+W>
9.067

> <U>
11.150

> <W>
-2.083

> <W(PB)>
-4.217

> <W(SA)>
2.134

> <Valence>
16.583

> <Coulomb>
-8.361

> <VdW>
2.928

> <VdW6>
-12.539

> <VdW12>
15.467

> <Bond>
0.441

> <Angle>
5.093

> <Pdih>
11.049

> <Idih>
0.000

> <Tether>
0.000

$$$$
VeraChem MOL file


 25 25  0  0  0  0  0  0  0  0999 V2000     
   20.5054   19.2136   20.5994 C   0  0  0  0  0  0  0  0  0  0  0  0
   19.9697   18.4909   19.9692 H   0  0  0  0  0  0  0  0  0  0  0  0
   21.0958   19.8294   19.9072 H   0  0  0  0  0  0  0  0  0  0  0  0
   21.5037   18.4564   21.5106 C   0  0  0  0  0  0  0  0  0  0  0  0
   22.2119   17.9332   20.8536 H   0  0  0  0  0  0  0  0  0  0  0  0
   22.1218   19.1664   22.0718 H   0  0  0  0  0  0  0  0  0  0  0  0
   20.8918   17.3978   22.4620 C   0  0  0  0  0  0  0  0  0  0  0  0
   21.7240   16.8720   22.9500 H   0  0  0  0  0  0  0  0  0  0  0  0
   20.3662   16.6373   21.8688 H   0  0  0  0  0  0  0  0  0  0  0  0
   19.9415   17.9158   23.5727 C   0  0  0  0  0  0  0  0  0  0  0  0
   18.9367   18.0725   23.1671 H   0  0  0  0  0  0  0  0  0  0  0  0
   19.8232   17.0997   24.2983 H   0  0  0  0  0  0  0  0  0  0  0  0
   20.4278   19.1898   24.3110 C   0  0  0  0  0  0  0  0  0  0  0  0
   21.5111   19.3060   24.1742 H   0  0  0  0  0  0  0  0  0  0  0  0
   19.7146   20.4927   23.8701 C   0  0  0  0  0  0  0  0  0  0  0  0
   18.6290   20.3694   23.9769 H   0  0  0  0  0  0  0  0  0  0  0  0
   19.9959   21.2831   24.5789 H   0  0  0  0  0  0  0  0  0  0  0  0
   20.0300   21.0160   22.4426 C   0  0  0  0  0  0  0  0  0  0  0  0
   21.1069   21.1901   22.3206 H   0  0  0  0  0  0  0  0  0  0  0  0
   19.5679   22.0089   22.3557 H   0  0  0  0  0  0  0  0  0  0  0  0
   19.4721   20.1400   21.2912 C   0  0  0  0  0  0  0  0  0  0  0  0
   19.0700   20.8084   20.5176 H   0  0  0  0  0  0  0  0  0  0  0  0
   18.6040   19.5642   21.6313 H   0  0  0  0  0  0  0  0  0  0  0  0
   20.1770   19.0209   25.7006 O   0  0  0  0  0  0  0  0  0  0  0  0
   19.2074   18.9239   25.7969 H   0  0  0  0  0  0  0  0  0  0  0  0
  1  2  1  0  0  0  0
  1  3  1  0  0  0  0
  1  4  1  0  0  0  0
  4  5  1  0  0  0  0
  4  6  1  0  0  0  0
  4  7  1  0  0  0  0
  7  8  1  0  0  0  0
  7  9  1  0  0  0  0
  7 10  1  0  0  0  0
 10 11  1  0  0  0  0
 10 12  1  0  0  0  0
 10 13  1  0  0  0  0
 13 14  1  0  0  0  0
 13 15  1  0  0  0  0
 15 16  1  0  0  0  0
 15 17  1  0  0  0  0
 15 18  1  0  0  0  0
 18 19  1  0  0  0  0
 18 20  1  0  0  0  0
  1 21  1  0  0  0  0
 18 21  1  0  0  0  0
 21 22  1  0  0  0  0
 21 23  1  0  0  0  0
 13 24  1  0  0  0  0
 24 25  1  0  0  0  0
M  END
> <VConfSearch Rank>
11

> <Conf_Id>
140

> <Delta U+W>
-1.702

> <U+W>
9.211

> <U>
11.181

> <W>
-1.969

> <W(PB)>
-4.093

> <W(SA)>
2.124

> <Valence>
16.954

> <Coulomb>
-8.661

> <VdW>
2.887

> <VdW6>
-12.561

> <VdW12>
15.448

> <Bond>
0.433

> <Angle>
5.120

> <Pdih>
11.401

> <Idih>
0.000

> <Tether>
0.000

$$$$
VeraChem MOL file


 25 25  0  0  0  0  0  0  0  0999 V2000     
   20.4794   19.3594   20.6024 C   0  0  0  0  0  0  0  0  0  0  0  0
   19.6091   19.5751   19.9680 H   0  0  0  0  0  0  0  0  0  0  0  0
   21.3330   19.2763   19.9158 H   0  0  0  0  0  0  0  0  0  0  0  0
   20.2797   17.9773   21.2764 C   0  0  0  0  0  0  0  0  0  0  0  0
   19.2421   17.8553   21.6071 H   0  0  0  0  0  0  0  0  0  0  0  0
   20.4082   17.2161   20.4948 H   0  0  0  0  0  0  0  0  0  0  0  0
   21.2616   17.6524   22.4318 C   0  0  0  0  0  0  0  0  0  0  0  0
   22.1986   18.2137   22.3236 H   0  0  0  0  0  0  0  0  0  0  0  0
   21.5477   16.5962   22.3346 H   0  0  0  0  0  0  0  0  0  0  0  0
   20.6723   17.8331   23.8569 C   0  0  0  0  0  0  0  0  0  0  0  0
   19.7613   17.2275   23.9496 H   0  0  0  0  0  0  0  0  0  0  0  0
   21.3908   17.4009   24.5663 H   0  0  0  0  0  0  0  0  0  0  0  0
   20.3760   19.2840   24.3127 C   0  0  0  0  0  0  0  0  0  0  0  0
   21.2809   19.8939   24.1900 H   0  0  0  0  0  0  0  0  0  0  0  0
   19.1895   19.9546   23.5730 C   0  0  0  0  0  0  0  0  0  0  0  0
   18.5246   19.1928   23.1534 H   0  0  0  0  0  0  0  0  0  0  0  0
   18.5681   20.4945   24.3003 H   0  0  0  0  0  0  0  0  0  0  0  0
   19.5919   20.9758   22.4773 C   0  0  0  0  0  0  0  0  0  0  0  0
   19.8864   21.9080   22.9787 H   0  0  0  0  0  0  0  0  0  0  0  0
   18.7046   21.2264   21.8802 H   0  0  0  0  0  0  0  0  0  0  0  0
   20.7489   20.5707   21.5300 C   0  0  0  0  0  0  0  0  0  0  0  0
   21.6746   20.4186   22.0967 H   0  0  0  0  0  0  0  0  0  0  0  0
   20.9591   21.4346   20.8848 H   0  0  0  0  0  0  0  0  0  0  0  0
   20.0647   19.2356   25.6994 O   0  0  0  0  0  0  0  0  0  0  0  0
   19.2594   18.6846   25.7830 H   0  0  0  0  0  0  0  0  0  0  0  0
  1  2  1  0  0  0  0
  1  3  1  0  0  0  0
  1  4  1  0  0  0  0
  4  5  1  0  0  0  0
  4  6  1  0  0  0  0
  4  7  1  0  0  0  0
  7  8  1  0  0  0  0
  7  9  1  0  0  0  0
  7 10  1  0  0  0  0
 10 11  1  0  0  0  0
 10 12  1  0  0  0  0
 10 13  1  0  0  0  0
 13 14  1  0  0  0  0
 13 15  1  0  0  0  0
 15 16  1  0  0  0  0
 15 17  1  0  0  0  0
 15 18  1  0  0  0  0
 18 19  1  0  0  0  0
 18 20  1  0  0  0  0
  1 21  1  0  0  0  0
 18 21  1  0  0  0  0
 21 22  1  0  0  0  0
 21 23  1  0  0  0  0
 13 24  1  0  0  0  0
 24 25  1  0  0  0  0
M  END
> <VConfSearch Rank>
12

> <Conf_Id>
68

> <Delta U+W>
-1.765

> <U+W>
9.148

> <U>
11.181

> <W>
-2.032

> <W(PB)>
-4.147

> <W(SA)>
2.114

> <Valence>
16.955

> <Coulomb>
-8.661

> <VdW>
2.887

> <VdW6>
-12.561

> <VdW12>
15.448

> <Bond>
0.433

> <Angle>
5.121

> <Pdih>
11.402

> <Idih>
0.000

> <Tether>
0.000

$$$$
VeraChem MOL file


 25 25  0  0  0  0  0  0  0  0999 V2000     
   21.2192   19.5430   21.1089 C   0  0  0  0  0  0  0  0  0  0  0  0
   21.7046   19.6995   20.1357 H   0  0  0  0  0  0  0  0  0  0  0  0
   22.0232   19.6875   21.8393 H   0  0  0  0  0  0  0  0  0  0  0  0
   20.6953   18.0840   21.1559 C   0  0  0  0  0  0  0  0  0  0  0  0
   19.6410   18.0323   20.8553 H   0  0  0  0  0  0  0  0  0  0  0  0
   21.2388   17.5134   20.3904 H   0  0  0  0  0  0  0  0  0  0  0  0
   20.9190   17.3551   22.5069 C   0  0  0  0  0  0  0  0  0  0  0  0
   21.9875   17.3794   22.7615 H   0  0  0  0  0  0  0  0  0  0  0  0
   20.6761   16.2942   22.3578 H   0  0  0  0  0  0  0  0  0  0  0  0
   20.0918   17.8630   23.7179 C   0  0  0  0  0  0  0  0  0  0  0  0
   19.0194   17.8180   23.4932 H   0  0  0  0  0  0  0  0  0  0  0  0
   20.2465   17.1412   24.5313 H   0  0  0  0  0  0  0  0  0  0  0  0
   20.4931   19.2726   24.2247 C   0  0  0  0  0  0  0  0  0  0  0  0
   21.5027   19.5067   23.8675 H   0  0  0  0  0  0  0  0  0  0  0  0
   19.5299   20.4109   23.8067 C   0  0  0  0  0  0  0  0  0  0  0  0
   18.6380   20.3647   24.4455 H   0  0  0  0  0  0  0  0  0  0  0  0
   20.0110   21.3717   24.0314 H   0  0  0  0  0  0  0  0  0  0  0  0
   19.0442   20.4227   22.3343 C   0  0  0  0  0  0  0  0  0  0  0  0
   18.3184   21.2414   22.2360 H   0  0  0  0  0  0  0  0  0  0  0  0
   18.4696   19.5159   22.1128 H   0  0  0  0  0  0  0  0  0  0  0  0
   20.1370   20.6436   21.2586 C   0  0  0  0  0  0  0  0  0  0  0  0
   20.6317   21.6082   21.4359 H   0  0  0  0  0  0  0  0  0  0  0  0
   19.6278   20.7457   20.2905 H   0  0  0  0  0  0  0  0  0  0  0  0
   20.5345   19.2481   25.6461 O   0  0  0  0  0  0  0  0  0  0  0  0
   19.6304   19.0204   25.9456 H   0  0  0  0  0  0  0  0  0  0  0  0
  1  2  1  0  0  0  0
  1  3  1  0  0  0  0
  1  4  1  0  0  0  0
  4  5  1  0  0  0  0
  4  6  1  0  0  0  0
  4  7  1  0  0  0  0
  7  8  1  0  0  0  0
  7  9  1  0  0  0  0
  7 10  1  0  0  0  0
 10 11  1  0  0  0  0
 10 12  1  0  0  0  0
 10 13  1  0  0  0  0
 13 14  1  0  0  0  0
 13 15  1  0  0  0  0
 15 16  1  0  0  0  0
 15 17  1  0  0  0  0
 15 18  1  0  0  0  0
 18 19  1  0  0  0  0
 18 20  1  0  0  0  0
  1 21  1  0  0  0  0
 18 21  1  0  0  0  0
 21 22  1  0  0  0  0
 21 23  1  0  0  0  0
 13 24  1  0  0  0  0
 24 25  1  0  0  0  0
M  END
> <VConfSearch Rank>
13

> <Conf_Id>
165

> <Delta U+W>
-1.999

> <U+W>
8.915

> <U>
10.935

> <W>
-2.020

> <W(PB)>
-4.135

> <W(SA)>
2.115

> <Valence>
16.757

> <Coulomb>
-8.731

> <VdW>
2.908

> <VdW6>
-12.597

> <VdW12>
15.506

> <Bond>
0.434

> <Angle>
5.069

> <Pdih>
11.254

> <Idih>
0.000

> <Tether>
0.000

$$$$
VeraChem MOL file


 25 25  0  0  0  0  0  0  0  0999 V2000     
   21.2020   19.5515   21.1007 C   0  0  0  0  0  0  0  0  0  0  0  0
   21.6631   19.7490   20.1232 H   0  0  0  0  0  0  0  0  0  0  0  0
   21.9166   19.9587   21.8247 H   0  0  0  0  0  0  0  0  0  0  0  0
   21.0893   18.0115   21.2464 C   0  0  0  0  0  0  0  0  0  0  0  0
   20.7582   17.6079   20.2797 H   0  0  0  0  0  0  0  0  0  0  0  0
   22.0918   17.5947   21.4132 H   0  0  0  0  0  0  0  0  0  0  0  0
   20.1219   17.4695   22.3284 C   0  0  0  0  0  0  0  0  0  0  0  0
   20.0948   16.3762   22.2253 H   0  0  0  0  0  0  0  0  0  0  0  0
   19.0958   17.7923   22.1180 H   0  0  0  0  0  0  0  0  0  0  0  0
   20.4985   17.7852   23.7990 C   0  0  0  0  0  0  0  0  0  0  0  0
   19.7881   17.2488   24.4426 H   0  0  0  0  0  0  0  0  0  0  0  0
   21.4852   17.3545   24.0125 H   0  0  0  0  0  0  0  0  0  0  0  0
   20.5054   19.2745   24.2228 C   0  0  0  0  0  0  0  0  0  0  0  0
   21.4225   19.7506   23.8563 H   0  0  0  0  0  0  0  0  0  0  0  0
   19.2829   20.0920   23.7315 C   0  0  0  0  0  0  0  0  0  0  0  0
   18.4338   19.4328   23.5156 H   0  0  0  0  0  0  0  0  0  0  0  0
   18.9429   20.7356   24.5540 H   0  0  0  0  0  0  0  0  0  0  0  0
   19.5719   21.0203   22.5216 C   0  0  0  0  0  0  0  0  0  0  0  0
   20.4042   21.6926   22.7709 H   0  0  0  0  0  0  0  0  0  0  0  0
   18.6982   21.6719   22.3845 H   0  0  0  0  0  0  0  0  0  0  0  0
   19.8598   20.3261   21.1644 C   0  0  0  0  0  0  0  0  0  0  0  0
   19.8984   21.1165   20.4023 H   0  0  0  0  0  0  0  0  0  0  0  0
   19.0190   19.6856   20.8687 H   0  0  0  0  0  0  0  0  0  0  0  0
   20.5323   19.3125   25.6452 O   0  0  0  0  0  0  0  0  0  0  0  0
   21.3368   18.8279   25.9254 H   0  0  0  0  0  0  0  0  0  0  0  0
  1  2  1  0  0  0  0
  1  3  1  0  0  0  0
  1  4  1  0  0  0  0
  4  5  1  0  0  0  0
  4  6  1  0  0  0  0
  4  7  1  0  0  0  0
  7  8  1  0  0  0  0
  7  9  1  0  0  0  0
  7 10  1  0  0  0  0
 10 11  1  0  0  0  0
 10 12  1  0  0  0  0
 10 13  1  0  0  0  0
 13 14  1  0  0  0  0
 13 15  1  0  0  0  0
 15 16  1  0  0  0  0
 15 17  1  0  0  0  0
 15 18  1  0  0  0  0
 18 19  1  0  0  0  0
 18 20  1  0  0  0  0
  1 21  1  0  0  0  0
 18 21  1  0  0  0  0
 21 22  1  0  0  0  0
 21 23  1  0  0  0  0
 13 24  1  0  0  0  0
 24 25  1  0  0  0  0
M  END
> <VConfSearch Rank>
14

> <Conf_Id>
133

> <Delta U+W>
-2.139

> <U+W>
8.774

> <U>
10.905

> <W>
-2.131

> <W(PB)>
-4.281

> <W(SA)>
2.150

> <Valence>
16.378

> <Coulomb>
-8.448

> <VdW>
2.976

> <VdW6>
-12.570

> <VdW12>
15.545

> <Bond>
0.439

> <Angle>
5.049

> <Pdih>
10.889

> <Idih>
0.000

> <Tether>
0.000

$$$$
VeraChem MOL file


 25 25  0  0  0  0  0  0  0  0999 V2000     
   21.2194   19.5427   21.1081 C   0  0  0  0  0  0  0  0  0  0  0  0
   21.7033   19.6995   20.1343 H   0  0  0  0  0  0  0  0  0  0  0  0
   22.0247   19.6867   21.8372 H   0  0  0  0  0  0  0  0  0  0  0  0
   20.6954   18.0837   21.1552 C   0  0  0  0  0  0  0  0  0  0  0  0
   19.6412   18.0321   20.8542 H   0  0  0  0  0  0  0  0  0  0  0  0
   21.2391   17.5129   20.3900 H   0  0  0  0  0  0  0  0  0  0  0  0
   20.9181   17.3547   22.5064 C   0  0  0  0  0  0  0  0  0  0  0  0
   21.9867   17.3771   22.7608 H   0  0  0  0  0  0  0  0  0  0  0  0
   20.6731   16.2942   22.3579 H   0  0  0  0  0  0  0  0  0  0  0  0
   20.0923   17.8647   23.7176 C   0  0  0  0  0  0  0  0  0  0  0  0
   19.0193   17.8211   23.4964 H   0  0  0  0  0  0  0  0  0  0  0  0
   20.2450   17.1458   24.5339 H   0  0  0  0  0  0  0  0  0  0  0  0
   20.4947   19.2737   24.2244 C   0  0  0  0  0  0  0  0  0  0  0  0
   21.5038   19.5065   23.8647 H   0  0  0  0  0  0  0  0  0  0  0  0
   19.5288   20.4098   23.8073 C   0  0  0  0  0  0  0  0  0  0  0  0
   18.6372   20.3539   24.4463 H   0  0  0  0  0  0  0  0  0  0  0  0
   20.0026   21.3740   24.0324 H   0  0  0  0  0  0  0  0  0  0  0  0
   19.0442   20.4217   22.3345 C   0  0  0  0  0  0  0  0  0  0  0  0
   18.3174   21.2395   22.2361 H   0  0  0  0  0  0  0  0  0  0  0  0
   18.4707   19.5144   22.1127 H   0  0  0  0  0  0  0  0  0  0  0  0
   20.1376   20.6438   21.2596 C   0  0  0  0  0  0  0  0  0  0  0  0
   20.6326   21.6080   21.4381 H   0  0  0  0  0  0  0  0  0  0  0  0
   19.6286   20.7473   20.2916 H   0  0  0  0  0  0  0  0  0  0  0  0
   20.5334   19.2483   25.6469 O   0  0  0  0  0  0  0  0  0  0  0  0
   20.8330   20.1351   25.9370 H   0  0  0  0  0  0  0  0  0  0  0  0
  1  2  1  0  0  0  0
  1  3  1  0  0  0  0
  1  4  1  0  0  0  0
  4  5  1  0  0  0  0
  4  6  1  0  0  0  0
  4  7  1  0  0  0  0
  7  8  1  0  0  0  0
  7  9  1  0  0  0  0
  7 10  1  0  0  0  0
 10 11  1  0  0  0  0
 10 12  1  0  0  0  0
 10 13  1  0  0  0  0
 13 14  1  0  0  0  0
 13 15  1  0  0  0  0
 15 16  1  0  0  0  0
 15 17  1  0  0  0  0
 15 18  1  0  0  0  0
 18 19  1  0  0  0  0
 18 20  1  0  0  0  0
  1 21  1  0  0  0  0
 18 21  1  0  0  0  0
 21 22  1  0  0  0  0
 21 23  1  0  0  0  0
 13 24  1  0  0  0  0
 24 25  1  0  0  0  0
M  END
> <VConfSearch Rank>
15

> <Conf_Id>
95

> <Delta U+W>
-2.190

> <U+W>
8.723

> <U>
10.905

> <W>
-2.182

> <W(PB)>
-4.296

> <W(SA)>
2.114

> <Valence>
16.377

> <Coulomb>
-8.448

> <VdW>
2.976

> <VdW6>
-12.570

> <VdW12>
15.546

> <Bond>
0.439

> <Angle>
5.049

> <Pdih>
10.889

> <Idih>
0.000

> <Tether>
0.000

$$$$
VeraChem MOL file


 25 25  0  0  0  0  0  0  0  0999 V2000     
   21.3008   19.6584   21.2167 C   0  0  0  0  0  0  0  0  0  0  0  0
   21.8500   19.8629   20.2874 H   0  0  0  0  0  0  0  0  0  0  0  0
   21.9233   20.1242   21.9872 H   0  0  0  0  0  0  0  0  0  0  0  0
   21.2620   18.1117   21.3914 C   0  0  0  0  0  0  0  0  0  0  0  0
   21.1840   17.6705   20.3883 H   0  0  0  0  0  0  0  0  0  0  0  0
   22.2300   17.7731   21.7847 H   0  0  0  0  0  0  0  0  0  0  0  0
   20.1199   17.4985   22.2435 C   0  0  0  0  0  0  0  0  0  0  0  0
   20.1878   16.4058   22.1534 H   0  0  0  0  0  0  0  0  0  0  0  0
   19.1567   17.7340   21.7800 H   0  0  0  0  0  0  0  0  0  0  0  0
   20.1003   17.8333   23.7647 C   0  0  0  0  0  0  0  0  0  0  0  0
   19.0884   17.6586   24.1534 H   0  0  0  0  0  0  0  0  0  0  0  0
   20.7416   17.0954   24.2642 H   0  0  0  0  0  0  0  0  0  0  0  0
   20.5798   19.2371   24.2133 C   0  0  0  0  0  0  0  0  0  0  0  0
   21.6056   19.3752   23.8565 H   0  0  0  0  0  0  0  0  0  0  0  0
   19.7098   20.4514   23.7784 C   0  0  0  0  0  0  0  0  0  0  0  0
   18.9126   20.5798   24.5229 H   0  0  0  0  0  0  0  0  0  0  0  0
   20.3250   21.3576   23.8458 H   0  0  0  0  0  0  0  0  0  0  0  0
   19.0237   20.4104   22.3860 C   0  0  0  0  0  0  0  0  0  0  0  0
   18.3767   21.2947   22.3090 H   0  0  0  0  0  0  0  0  0  0  0  0
   18.3182   19.5740   22.3551 H   0  0  0  0  0  0  0  0  0  0  0  0
   19.9438   20.4056   21.1303 C   0  0  0  0  0  0  0  0  0  0  0  0
   20.1698   21.4522   20.8846 H   0  0  0  0  0  0  0  0  0  0  0  0
   19.3737   20.0211   20.2738 H   0  0  0  0  0  0  0  0  0  0  0  0
   20.6240   19.2366   25.6355 O   0  0  0  0  0  0  0  0  0  0  0  0
   21.2256   18.5098   25.8997 H   0  0  0  0  0  0  0  0  0  0  0  0
  1  2  1  0  0  0  0
  1  3  1  0  0  0  0
  1  4  1  0  0  0  0
  4  5  1  0  0  0  0
  4  6  1  0  0  0  0
  4  7  1  0  0  0  0
  7  8  1  0  0  0  0
  7  9  1  0  0  0  0
  7 10  1  0  0  0  0
 10 11  1  0  0  0  0
 10 12  1  0  0  0  0
 10 13  1  0  0  0  0
 13 14  1  0  0  0  0
 13 15  1  0  0  0  0
 15 16  1  0  0  0  0
 15 17  1  0  0  0  0
 15 18  1  0  0  0  0
 18 19  1  0  0  0  0
 18 20  1  0  0  0  0
  1 21  1  0  0  0  0
 18 21  1  0  0  0  0
 21 22  1  0  0  0  0
 21 23  1  0  0  0  0
 13 24  1  0  0  0  0
 24 25  1  0  0  0  0
M  END
> <VConfSearch Rank>
16

> <Conf_Id>
161

> <Delta U+W>
2.120

> <U+W>
13.033

> <U>
15.076

> <W>
-2.043

> <W(PB)>
-4.186

> <W(SA)>
2.143

> <Valence>
18.884

> <Coulomb>
-8.074

> <VdW>
4.266

> <VdW6>
-13.486

> <VdW12>
17.752

> <Bond>
0.713

> <Angle>
8.955

> <Pdih>
9.215

> <Idih>
0.000

> <Tether>
0.000

$$$$
VeraChem MOL file


 25 25  0  0  0  0  0  0  0  0999 V2000     
   20.8100   19.5109   20.7445 C   0  0  0  0  0  0  0  0  0  0  0  0
   20.8645   19.5390   19.6476 H   0  0  0  0  0  0  0  0  0  0  0  0
   21.7878   19.8772   21.0823 H   0  0  0  0  0  0  0  0  0  0  0  0
   20.6204   18.0354   21.1765 C   0  0  0  0  0  0  0  0  0  0  0  0
   19.5566   17.7625   21.1772 H   0  0  0  0  0  0  0  0  0  0  0  0
   21.0789   17.4137   20.3952 H   0  0  0  0  0  0  0  0  0  0  0  0
   21.3016   17.6463   22.5181 C   0  0  0  0  0  0  0  0  0  0  0  0
   22.2676   18.1558   22.6346 H   0  0  0  0  0  0  0  0  0  0  0  0
   21.5438   16.5766   22.4522 H   0  0  0  0  0  0  0  0  0  0  0  0
   20.4252   17.8305   23.7840 C   0  0  0  0  0  0  0  0  0  0  0  0
   19.3756   17.6216   23.5437 H   0  0  0  0  0  0  0  0  0  0  0  0
   20.7109   17.0518   24.5035 H   0  0  0  0  0  0  0  0  0  0  0  0
   20.5655   19.1854   24.5231 C   0  0  0  0  0  0  0  0  0  0  0  0
   21.5571   19.2100   24.9973 H   0  0  0  0  0  0  0  0  0  0  0  0
   20.4351   20.4590   23.6561 C   0  0  0  0  0  0  0  0  0  0  0  0
   20.3239   21.3218   24.3265 H   0  0  0  0  0  0  0  0  0  0  0  0
   21.3843   20.6362   23.1390 H   0  0  0  0  0  0  0  0  0  0  0  0
   19.2509   20.4488   22.6527 C   0  0  0  0  0  0  0  0  0  0  0  0
   18.6141   21.3221   22.8487 H   0  0  0  0  0  0  0  0  0  0  0  0
   18.5992   19.5829   22.8160 H   0  0  0  0  0  0  0  0  0  0  0  0
   19.6833   20.4904   21.1675 C   0  0  0  0  0  0  0  0  0  0  0  0
   20.0080   21.5110   20.9231 H   0  0  0  0  0  0  0  0  0  0  0  0
   18.7974   20.3020   20.5459 H   0  0  0  0  0  0  0  0  0  0  0  0
   19.5720   19.2363   25.5374 O   0  0  0  0  0  0  0  0  0  0  0  0
   18.7192   19.3528   25.0716 H   0  0  0  0  0  0  0  0  0  0  0  0
  1  2  1  0  0  0  0
  1  3  1  0  0  0  0
  1  4  1  0  0  0  0
  4  5  1  0  0  0  0
  4  6  1  0  0  0  0
  4  7  1  0  0  0  0
  7  8  1  0  0  0  0
  7  9  1  0  0  0  0
  7 10  1  0  0  0  0
 10 11  1  0  0  0  0
 10 12  1  0  0  0  0
 10 13  1  0  0  0  0
 13 14  1  0  0  0  0
 13 15  1  0  0  0  0
 15 16  1  0  0  0  0
 15 17  1  0  0  0  0
 15 18  1  0  0  0  0
 18 19  1  0  0  0  0
 18 20  1  0  0  0  0
  1 21  1  0  0  0  0
 18 21  1  0  0  0  0
 21 22  1  0  0  0  0
 21 23  1  0  0  0  0
 13 24  1  0  0  0  0
 24 25  1  0  0  0  0
M  END
> <VConfSearch Rank>
17

> <Conf_Id>
164

> <Delta U+W>
0.008

> <U+W>
10.922

> <U>
12.433

> <W>
-1.511

> <W(PB)>
-3.669

> <W(SA)>
2.157

> <Valence>
19.007

> <Coulomb>
-9.373

> <VdW>
2.799

> <VdW6>
-12.597

> <VdW12>
15.396

> <Bond>
0.425

> <Angle>
4.784

> <Pdih>
13.799

> <Idih>
0.000

> <Tether>
0.000

$$$$
VeraChem MOL file


 25 25  0  0  0  0  0  0  0  0999 V2000     
   19.7061   18.9901   20.9364 C   0  0  0  0  0  0  0  0  0  0  0  0
   18.8757   18.6761   21.5788 H   0  0  0  0  0  0  0  0  0  0  0  0
   19.3309   18.8528   19.9131 H   0  0  0  0  0  0  0  0  0  0  0  0
   20.9162   18.0394   21.1137 C   0  0  0  0  0  0  0  0  0  0  0  0
   20.5844   17.0295   20.8362 H   0  0  0  0  0  0  0  0  0  0  0  0
   21.6962   18.3055   20.3875 H   0  0  0  0  0  0  0  0  0  0  0  0
   21.5503   17.9582   22.5258 C   0  0  0  0  0  0  0  0  0  0  0  0
   22.2592   18.7802   22.6773 H   0  0  0  0  0  0  0  0  0  0  0  0
   22.1712   17.0522   22.5505 H   0  0  0  0  0  0  0  0  0  0  0  0
   20.5408   17.8861   23.7024 C   0  0  0  0  0  0  0  0  0  0  0  0
   19.5782   17.4796   23.3694 H   0  0  0  0  0  0  0  0  0  0  0  0
   20.9312   17.1546   24.4227 H   0  0  0  0  0  0  0  0  0  0  0  0
   20.3404   19.2158   24.4719 C   0  0  0  0  0  0  0  0  0  0  0  0
   21.3289   19.5858   24.7795 H   0  0  0  0  0  0  0  0  0  0  0  0
   19.6145   20.3536   23.7111 C   0  0  0  0  0  0  0  0  0  0  0  0
   18.6214   20.0283   23.3784 H   0  0  0  0  0  0  0  0  0  0  0  0
   19.4288   21.1568   24.4368 H   0  0  0  0  0  0  0  0  0  0  0  0
   20.4194   20.9709   22.5364 C   0  0  0  0  0  0  0  0  0  0  0  0
   21.4944   20.8175   22.6845 H   0  0  0  0  0  0  0  0  0  0  0  0
   20.2907   22.0615   22.5680 H   0  0  0  0  0  0  0  0  0  0  0  0
   19.9921   20.5012   21.1223 C   0  0  0  0  0  0  0  0  0  0  0  0
   20.7528   20.8185   20.3963 H   0  0  0  0  0  0  0  0  0  0  0  0
   19.0770   21.0449   20.8503 H   0  0  0  0  0  0  0  0  0  0  0  0
   19.5842   18.9278   25.6400 O   0  0  0  0  0  0  0  0  0  0  0  0
   18.7137   18.6020   25.3320 H   0  0  0  0  0  0  0  0  0  0  0  0
  1  2  1  0  0  0  0
  1  3  1  0  0  0  0
  1  4  1  0  0  0  0
  4  5  1  0  0  0  0
  4  6  1  0  0  0  0
  4  7  1  0  0  0  0
  7  8  1  0  0  0  0
  7  9  1  0  0  0  0
  7 10  1  0  0  0  0
 10 11  1  0  0  0  0
 10 12  1  0  0  0  0
 10 13  1  0  0  0  0
 13 14  1  0  0  0  0
 13 15  1  0  0  0  0
 15 16  1  0  0  0  0
 15 17  1  0  0  0  0
 15 18  1  0  0  0  0
 18 19  1  0  0  0  0
 18 20  1  0  0  0  0
  1 21  1  0  0  0  0
 18 21  1  0  0  0  0
 21 22  1  0  0  0  0
 21 23  1  0  0  0  0
 13 24  1  0  0  0  0
 24 25  1  0  0  0  0
M  END
> <VConfSearch Rank>
18

> <Conf_Id>
15

> <Delta U+W>
-1.271

> <U+W>
9.643

> <U>
11.413

> <W>
-1.770

> <W(PB)>
-3.908

> <W(SA)>
2.138

> <Valence>
17.496

> <Coulomb>
-8.736

> <VdW>
2.653

> <VdW6>
-12.485

> <VdW12>
15.138

> <Bond>
0.414

> <Angle>
5.295

> <Pdih>
11.787

> <Idih>
0.000

> <Tether>
0.000

$$$$
VeraChem MOL file


 25 25  0  0  0  0  0  0  0  0999 V2000     
   19.8315   18.9944   20.8077 C   0  0  0  0  0  0  0  0  0  0  0  0
   19.6713   19.0136   19.7210 H   0  0  0  0  0  0  0  0  0  0  0  0
   18.8846   18.6273   21.2234 H   0  0  0  0  0  0  0  0  0  0  0  0
   20.9765   17.9835   21.0791 C   0  0  0  0  0  0  0  0  0  0  0  0
   20.6147   16.9800   20.8163 H   0  0  0  0  0  0  0  0  0  0  0  0
   21.8056   18.1919   20.3892 H   0  0  0  0  0  0  0  0  0  0  0  0
   21.5419   17.9451   22.5193 C   0  0  0  0  0  0  0  0  0  0  0  0
   22.2273   18.7878   22.6669 H   0  0  0  0  0  0  0  0  0  0  0  0
   22.1726   17.0507   22.6142 H   0  0  0  0  0  0  0  0  0  0  0  0
   20.4559   17.9086   23.6260 C   0  0  0  0  0  0  0  0  0  0  0  0
   19.4612   17.7549   23.1930 H   0  0  0  0  0  0  0  0  0  0  0  0
   20.6298   17.0249   24.2538 H   0  0  0  0  0  0  0  0  0  0  0  0
   20.4448   19.1448   24.5544 C   0  0  0  0  0  0  0  0  0  0  0  0
   21.3145   19.0664   25.2224 H   0  0  0  0  0  0  0  0  0  0  0  0
   20.5234   20.5309   23.8639 C   0  0  0  0  0  0  0  0  0  0  0  0
   20.3336   21.2861   24.6385 H   0  0  0  0  0  0  0  0  0  0  0  0
   21.5508   20.7287   23.5355 H   0  0  0  0  0  0  0  0  0  0  0  0
   19.5399   20.7894   22.6913 C   0  0  0  0  0  0  0  0  0  0  0  0
   19.3212   21.8662   22.6935 H   0  0  0  0  0  0  0  0  0  0  0  0
   18.5741   20.2988   22.8680 H   0  0  0  0  0  0  0  0  0  0  0  0
   20.0885   20.4472   21.2786 C   0  0  0  0  0  0  0  0  0  0  0  0
   21.1532   20.7029   21.1930 H   0  0  0  0  0  0  0  0  0  0  0  0
   19.5730   21.1084   20.5685 H   0  0  0  0  0  0  0  0  0  0  0  0
   19.2616   19.0991   25.3396 O   0  0  0  0  0  0  0  0  0  0  0  0
   18.5229   19.2671   24.7206 H   0  0  0  0  0  0  0  0  0  0  0  0
  1  2  1  0  0  0  0
  1  3  1  0  0  0  0
  1  4  1  0  0  0  0
  4  5  1  0  0  0  0
  4  6  1  0  0  0  0
  4  7  1  0  0  0  0
  7  8  1  0  0  0  0
  7  9  1  0  0  0  0
  7 10  1  0  0  0  0
 10 11  1  0  0  0  0
 10 12  1  0  0  0  0
 10 13  1  0  0  0  0
 13 14  1  0  0  0  0
 13 15  1  0  0  0  0
 15 16  1  0  0  0  0
 15 17  1  0  0  0  0
 15 18  1  0  0  0  0
 18 19  1  0  0  0  0
 18 20  1  0  0  0  0
  1 21  1  0  0  0  0
 18 21  1  0  0  0  0
 21 22  1  0  0  0  0
 21 23  1  0  0  0  0
 13 24  1  0  0  0  0
 24 25  1  0  0  0  0
M  END
> <VConfSearch Rank>
19

> <Conf_Id>
115

> <Delta U+W>
0.038

> <U+W>
10.952

> <U>
12.526

> <W>
-1.575

> <W(PB)>
-3.698

> <W(SA)>
2.123

> <Valence>
19.016

> <Coulomb>
-9.226

> <VdW>
2.737

> <VdW6>
-12.612

> <VdW12>
15.349

> <Bond>
0.421

> <Angle>
4.883

> <Pdih>
13.711

> <Idih>
0.000

> <Tether>
0.000

$$$$
VeraChem MOL file


 25 25  0  0  0  0  0  0  0  0999 V2000     
   21.2633   20.7056   23.9264 C   0  0  0  0  0  0  0  0  0  0  0  0
   21.5646   21.7266   24.1982 H   0  0  0  0  0  0  0  0  0  0  0  0
   21.4242   20.1013   24.8294 H   0  0  0  0  0  0  0  0  0  0  0  0
   22.2066   20.2326   22.7959 C   0  0  0  0  0  0  0  0  0  0  0  0
   22.1343   20.9117   21.9355 H   0  0  0  0  0  0  0  0  0  0  0  0
   23.2368   20.3323   23.1646 H   0  0  0  0  0  0  0  0  0  0  0  0
   22.0040   18.7691   22.3398 C   0  0  0  0  0  0  0  0  0  0  0  0
   21.8410   18.1179   23.2089 H   0  0  0  0  0  0  0  0  0  0  0  0
   22.9494   18.4297   21.8947 H   0  0  0  0  0  0  0  0  0  0  0  0
   20.8924   18.5806   21.2727 C   0  0  0  0  0  0  0  0  0  0  0  0
   20.5891   19.5416   20.8387 H   0  0  0  0  0  0  0  0  0  0  0  0
   21.3294   18.0099   20.4421 H   0  0  0  0  0  0  0  0  0  0  0  0
   19.6492   17.8117   21.7740 C   0  0  0  0  0  0  0  0  0  0  0  0
   19.9731   17.0326   22.4789 H   0  0  0  0  0  0  0  0  0  0  0  0
   18.5788   18.6922   22.4562 C   0  0  0  0  0  0  0  0  0  0  0  0
   18.1990   19.4380   21.7455 H   0  0  0  0  0  0  0  0  0  0  0  0
   17.7239   18.0468   22.6972 H   0  0  0  0  0  0  0  0  0  0  0  0
   19.0250   19.3843   23.7671 C   0  0  0  0  0  0  0  0  0  0  0  0
   19.6182   18.6940   24.3816 H   0  0  0  0  0  0  0  0  0  0  0  0
   18.1186   19.5894   24.3532 H   0  0  0  0  0  0  0  0  0  0  0  0
   19.7601   20.7349   23.5631 C   0  0  0  0  0  0  0  0  0  0  0  0
   19.2799   21.4726   24.2206 H   0  0  0  0  0  0  0  0  0  0  0  0
   19.6196   21.1196   22.5442 H   0  0  0  0  0  0  0  0  0  0  0  0
   19.0367   17.1863   20.6527 O   0  0  0  0  0  0  0  0  0  0  0  0
   18.2843   16.6613   20.9971 H   0  0  0  0  0  0  0  0  0  0  0  0
  1  2  1  0  0  0  0
  1  3  1  0  0  0  0
  1  4  1  0  0  0  0
  4  5  1  0  0  0  0
  4  6  1  0  0  0  0
  4  7  1  0  0  0  0
  7  8  1  0  0  0  0
  7  9  1  0  0  0  0
  7 10  1  0  0  0  0
 10 11  1  0  0  0  0
 10 12  1  0  0  0  0
 10 13  1  0  0  0  0
 13 14  1  0  0  0  0
 13 15  1  0  0  0  0
 15 16  1  0  0  0  0
 15 17  1  0  0  0  0
 15 18  1  0  0  0  0
 18 19  1  0  0  0  0
 18 20  1  0  0  0  0
  1 21  1  0  0  0  0
 18 21  1  0  0  0  0
 21 22  1  0  0  0  0
 21 23  1  0  0  0  0
 13 24  1  0  0  0  0
 24 25  1  0  0  0  0
M  END
> <VConfSearch Rank>
20

> <Conf_Id>
30

> <Delta U+W>
0.000

> <U+W>
10.913

> <U>
13.140

> <W>
-2.227

> <W(PB)>
-4.367

> <W(SA)>
2.140

> <Valence>
19.155

> <Coulomb>
-8.157

> <VdW>
2.142

> <VdW6>
-11.576

> <VdW12>
13.718

> <Bond>
0.294

> <Angle>
3.547

> <Pdih>
15.314

> <Idih>
0.000

> <Tether>
0.000

$$$$
VeraChem MOL file


 25 25  0  0  0  0  0  0  0  0999 V2000     
   19.7756   21.1327   23.5118 C   0  0  0  0  0  0  0  0  0  0  0  0
   20.1977   21.7244   24.3356 H   0  0  0  0  0  0  0  0  0  0  0  0
   18.8882   21.6852   23.1741 H   0  0  0  0  0  0  0  0  0  0  0  0
   19.3111   19.7673   24.0756 C   0  0  0  0  0  0  0  0  0  0  0  0
   18.7875   19.9531   25.0233 H   0  0  0  0  0  0  0  0  0  0  0  0
   18.5472   19.3377   23.4171 H   0  0  0  0  0  0  0  0  0  0  0  0
   20.4578   18.7571   24.3336 C   0  0  0  0  0  0  0  0  0  0  0  0
   20.4143   18.4345   25.3827 H   0  0  0  0  0  0  0  0  0  0  0  0
   21.4371   19.2385   24.2294 H   0  0  0  0  0  0  0  0  0  0  0  0
   20.3994   17.4927   23.4396 C   0  0  0  0  0  0  0  0  0  0  0  0
   21.3403   16.9395   23.5596 H   0  0  0  0  0  0  0  0  0  0  0  0
   19.6106   16.8324   23.8230 H   0  0  0  0  0  0  0  0  0  0  0  0
   20.1331   17.7148   21.9296 C   0  0  0  0  0  0  0  0  0  0  0  0
   19.0903   18.0291   21.7889 H   0  0  0  0  0  0  0  0  0  0  0  0
   21.0585   18.7497   21.2441 C   0  0  0  0  0  0  0  0  0  0  0  0
   22.0471   18.7522   21.7209 H   0  0  0  0  0  0  0  0  0  0  0  0
   21.2352   18.4187   20.2120 H   0  0  0  0  0  0  0  0  0  0  0  0
   20.4806   20.1907   21.1587 C   0  0  0  0  0  0  0  0  0  0  0  0
   19.3983   20.1749   20.9722 H   0  0  0  0  0  0  0  0  0  0  0  0
   20.9226   20.6593   20.2685 H   0  0  0  0  0  0  0  0  0  0  0  0
   20.8176   21.1057   22.3620 C   0  0  0  0  0  0  0  0  0  0  0  0
   20.9074   22.1349   21.9882 H   0  0  0  0  0  0  0  0  0  0  0  0
   21.8148   20.8623   22.7502 H   0  0  0  0  0  0  0  0  0  0  0  0
   20.3068   16.4593   21.2834 O   0  0  0  0  0  0  0  0  0  0  0  0
   20.0595   16.5887   20.3439 H   0  0  0  0  0  0  0  0  0  0  0  0
  1  2  1  0  0  0  0
  1  3  1  0  0  0  0
  1  4  1  0  0  0  0
  4  5  1  0  0  0  0
  4  6  1  0  0  0  0
  4  7  1  0  0  0  0
  7  8  1  0  0  0  0
  7  9  1  0  0  0  0
  7 10  1  0  0  0  0
 10 11  1  0  0  0  0
 10 12  1  0  0  0  0
 10 13  1  0  0  0  0
 13 14  1  0  0  0  0
 13 15  1  0  0  0  0
 15 16  1  0  0  0  0
 15 17  1  0  0  0  0
 15 18  1  0  0  0  0
 18 19  1  0  0  0  0
 18 20  1  0  0  0  0
  1 21  1  0  0  0  0
 18 21  1  0  0  0  0
 21 22  1  0  0  0  0
 21 23  1  0  0  0  0
 13 24  1  0  0  0  0
 24 25  1  0  0  0  0
M  END
> <VConfSearch Rank>
21

> <Conf_Id>
162

> <Delta U+W>
0.219

> <U+W>
11.132

> <U>
13.296

> <W>
-2.164

> <W(PB)>
-4.311

> <W(SA)>
2.148

> <Valence>
18.607

> <Coulomb>
-8.339

> <VdW>
3.028

> <VdW6>
-12.271

> <VdW12>
15.299

> <Bond>
0.423

> <Angle>
4.488

> <Pdih>
13.696

> <Idih>
0.000

> <Tether>
0.000

$$$$
VeraChem MOL file


 25 25  0  0  0  0  0  0  0  0999 V2000     
   21.9180   17.9897   22.5550 C   0  0  0  0  0  0  0  0  0  0  0  0
   22.2589   18.4039   23.5122 H   0  0  0  0  0  0  0  0  0  0  0  0
   22.6518   17.2094   22.3107 H   0  0  0  0  0  0  0  0  0  0  0  0
   20.5382   17.3089   22.7350 C   0  0  0  0  0  0  0  0  0  0  0  0
   20.0241   17.2084   21.7697 H   0  0  0  0  0  0  0  0  0  0  0  0
   20.7318   16.2804   23.0695 H   0  0  0  0  0  0  0  0  0  0  0  0
   19.6121   17.9612   23.7992 C   0  0  0  0  0  0  0  0  0  0  0  0
   20.1899   18.3210   24.6611 H   0  0  0  0  0  0  0  0  0  0  0  0
   18.9699   17.1618   24.1935 H   0  0  0  0  0  0  0  0  0  0  0  0
   18.6697   19.0709   23.2648 C   0  0  0  0  0  0  0  0  0  0  0  0
   18.3637   18.8393   22.2372 H   0  0  0  0  0  0  0  0  0  0  0  0
   17.7421   19.0340   23.8509 H   0  0  0  0  0  0  0  0  0  0  0  0
   19.1950   20.5255   23.3620 C   0  0  0  0  0  0  0  0  0  0  0  0
   19.1990   20.8117   24.4236 H   0  0  0  0  0  0  0  0  0  0  0  0
   20.6193   20.7776   22.8125 C   0  0  0  0  0  0  0  0  0  0  0  0
   20.7816   21.8613   22.7462 H   0  0  0  0  0  0  0  0  0  0  0  0
   21.3514   20.4374   23.5527 H   0  0  0  0  0  0  0  0  0  0  0  0
   20.9015   20.1455   21.4239 C   0  0  0  0  0  0  0  0  0  0  0  0
   21.2074   20.9398   20.7298 H   0  0  0  0  0  0  0  0  0  0  0  0
   19.9842   19.7323   20.9881 H   0  0  0  0  0  0  0  0  0  0  0  0
   22.0045   19.0596   21.4343 C   0  0  0  0  0  0  0  0  0  0  0  0
   22.9834   19.5526   21.5077 H   0  0  0  0  0  0  0  0  0  0  0  0
   21.9974   18.5536   20.4592 H   0  0  0  0  0  0  0  0  0  0  0  0
   18.2841   21.3643   22.6614 O   0  0  0  0  0  0  0  0  0  0  0  0
   18.6317   22.2773   22.7304 H   0  0  0  0  0  0  0  0  0  0  0  0
  1  2  1  0  0  0  0
  1  3  1  0  0  0  0
  1  4  1  0  0  0  0
  4  5  1  0  0  0  0
  4  6  1  0  0  0  0
  4  7  1  0  0  0  0
  7  8  1  0  0  0  0
  7  9  1  0  0  0  0
  7 10  1  0  0  0  0
 10 11  1  0  0  0  0
 10 12  1  0  0  0  0
 10 13  1  0  0  0  0
 13 14  1  0  0  0  0
 13 15  1  0  0  0  0
 15 16  1  0  0  0  0
 15 17  1  0  0  0  0
 15 18  1  0  0  0  0
 18 19  1  0  0  0  0
 18 20  1  0  0  0  0
  1 21  1  0  0  0  0
 18 21  1  0  0  0  0
 21 22  1  0  0  0  0
 21 23  1  0  0  0  0
 13 24  1  0  0  0  0
 24 25  1  0  0  0  0
M  END
> <VConfSearch Rank>
22

> <Conf_Id>
155

> <Delta U+W>
0.339

> <U+W>
11.252

> <U>
13.420

> <W>
-2.167

> <W(PB)>
-4.325

> <W(SA)>
2.157

> <Valence>
18.609

> <Coulomb>
-8.052

> <VdW>
2.863

> <VdW6>
-12.524

> <VdW12>
15.387

> <Bond>
0.430

> <Angle>
4.724

> <Pdih>
13.455

> <Idih>
0.000

> <Tether>
0.000

$$$$
VeraChem MOL file


 25 25  0  0  0  0  0  0  0  0999 V2000     
   18.6979   20.3545   22.7696 C   0  0  0  0  0  0  0  0  0  0  0  0
   18.0214   20.2447   21.9112 H   0  0  0  0  0  0  0  0  0  0  0  0
   18.2083   21.0767   23.4370 H   0  0  0  0  0  0  0  0  0  0  0  0
   18.7712   19.0086   23.5378 C   0  0  0  0  0  0  0  0  0  0  0  0
   19.3500   19.1477   24.4564 H   0  0  0  0  0  0  0  0  0  0  0  0
   17.7609   18.7795   23.9030 H   0  0  0  0  0  0  0  0  0  0  0  0
   19.2683   17.7586   22.7543 C   0  0  0  0  0  0  0  0  0  0  0  0
   18.3975   17.3192   22.2492 H   0  0  0  0  0  0  0  0  0  0  0  0
   19.6054   16.9990   23.4727 H   0  0  0  0  0  0  0  0  0  0  0  0
   20.3660   17.9593   21.6742 C   0  0  0  0  0  0  0  0  0  0  0  0
   20.4796   17.0064   21.1411 H   0  0  0  0  0  0  0  0  0  0  0  0
   19.9892   18.6334   20.8999 H   0  0  0  0  0  0  0  0  0  0  0  0
   21.7791   18.4133   22.1446 C   0  0  0  0  0  0  0  0  0  0  0  0
   22.2764   18.8976   21.2920 H   0  0  0  0  0  0  0  0  0  0  0  0
   21.8597   19.3787   23.3538 C   0  0  0  0  0  0  0  0  0  0  0  0
   21.4257   18.8897   24.2308 H   0  0  0  0  0  0  0  0  0  0  0  0
   22.9198   19.4894   23.6173 H   0  0  0  0  0  0  0  0  0  0  0  0
   21.2835   20.8159   23.1784 C   0  0  0  0  0  0  0  0  0  0  0  0
   22.0788   21.4385   22.7464 H   0  0  0  0  0  0  0  0  0  0  0  0
   21.0848   21.2422   24.1709 H   0  0  0  0  0  0  0  0  0  0  0  0
   20.0292   20.9991   22.2840 C   0  0  0  0  0  0  0  0  0  0  0  0
   20.2632   20.6862   21.2615 H   0  0  0  0  0  0  0  0  0  0  0  0
   19.8473   22.0780   22.1860 H   0  0  0  0  0  0  0  0  0  0  0  0
   22.5170   17.2478   22.4957 O   0  0  0  0  0  0  0  0  0  0  0  0
   22.5087   16.6607   21.7117 H   0  0  0  0  0  0  0  0  0  0  0  0
  1  2  1  0  0  0  0
  1  3  1  0  0  0  0
  1  4  1  0  0  0  0
  4  5  1  0  0  0  0
  4  6  1  0  0  0  0
  4  7  1  0  0  0  0
  7  8  1  0  0  0  0
  7  9  1  0  0  0  0
  7 10  1  0  0  0  0
 10 11  1  0  0  0  0
 10 12  1  0  0  0  0
 10 13  1  0  0  0  0
 13 14  1  0  0  0  0
 13 15  1  0  0  0  0
 15 16  1  0  0  0  0
 15 17  1  0  0  0  0
 15 18  1  0  0  0  0
 18 19  1  0  0  0  0
 18 20  1  0  0  0  0
  1 21  1  0  0  0  0
 18 21  1  0  0  0  0
 21 22  1  0  0  0  0
 21 23  1  0  0  0  0
 13 24  1  0  0  0  0
 24 25  1  0  0  0  0
M  END
> <VConfSearch Rank>
23

> <Conf_Id>
146

> <Delta U+W>
2.553

> <U+W>
13.466

> <U>
15.643

> <W>
-2.176

> <W(PB)>
-4.307

> <W(SA)>
2.131

> <Valence>
18.916

> <Coulomb>
-7.506

> <VdW>
4.232

> <VdW6>
-13.632

> <VdW12>
17.864

> <Bond>
0.735

> <Angle>
9.140

> <Pdih>
9.042

> <Idih>
0.000

> <Tether>
0.000

$$$$
VeraChem MOL file


 25 25  0  0  0  0  0  0  0  0999 V2000     
   22.1888   19.6283   21.8557 C   0  0  0  0  0  0  0  0  0  0  0  0
   23.1191   19.4719   22.4184 H   0  0  0  0  0  0  0  0  0  0  0  0
   22.4985   19.9975   20.8684 H   0  0  0  0  0  0  0  0  0  0  0  0
   21.3650   20.7526   22.5322 C   0  0  0  0  0  0  0  0  0  0  0  0
   21.9775   21.6642   22.5090 H   0  0  0  0  0  0  0  0  0  0  0  0
   20.4845   20.9968   21.9270 H   0  0  0  0  0  0  0  0  0  0  0  0
   20.9602   20.5084   24.0076 C   0  0  0  0  0  0  0  0  0  0  0  0
   20.4912   21.4300   24.3786 H   0  0  0  0  0  0  0  0  0  0  0  0
   21.8652   20.3697   24.6144 H   0  0  0  0  0  0  0  0  0  0  0  0
   19.9840   19.3352   24.2839 C   0  0  0  0  0  0  0  0  0  0  0  0
   20.5298   18.3872   24.3221 H   0  0  0  0  0  0  0  0  0  0  0  0
   19.5975   19.4703   25.3032 H   0  0  0  0  0  0  0  0  0  0  0  0
   18.7904   19.2265   23.3002 C   0  0  0  0  0  0  0  0  0  0  0  0
   18.6390   20.1907   22.7968 H   0  0  0  0  0  0  0  0  0  0  0  0
   18.9458   18.1107   22.2360 C   0  0  0  0  0  0  0  0  0  0  0  0
   19.1299   17.1534   22.7415 H   0  0  0  0  0  0  0  0  0  0  0  0
   17.9820   17.9947   21.7233 H   0  0  0  0  0  0  0  0  0  0  0  0
   20.0265   18.3294   21.1424 C   0  0  0  0  0  0  0  0  0  0  0  0
   19.8430   19.2623   20.5941 H   0  0  0  0  0  0  0  0  0  0  0  0
   19.8969   17.5304   20.3995 H   0  0  0  0  0  0  0  0  0  0  0  0
   21.4900   18.2595   21.6502 C   0  0  0  0  0  0  0  0  0  0  0  0
   22.0820   17.7033   20.9104 H   0  0  0  0  0  0  0  0  0  0  0  0
   21.5529   17.6530   22.5607 H   0  0  0  0  0  0  0  0  0  0  0  0
   17.6209   18.9309   24.0553 O   0  0  0  0  0  0  0  0  0  0  0  0
   16.8707   18.9248   23.4249 H   0  0  0  0  0  0  0  0  0  0  0  0
  1  2  1  0  0  0  0
  1  3  1  0  0  0  0
  1  4  1  0  0  0  0
  4  5  1  0  0  0  0
  4  6  1  0  0  0  0
  4  7  1  0  0  0  0
  7  8  1  0  0  0  0
  7  9  1  0  0  0  0
  7 10  1  0  0  0  0
 10 11  1  0  0  0  0
 10 12  1  0  0  0  0
 10 13  1  0  0  0  0
 13 14  1  0  0  0  0
 13 15  1  0  0  0  0
 15 16  1  0  0  0  0
 15 17  1  0  0  0  0
 15 18  1  0  0  0  0
 18 19  1  0  0  0  0
 18 20  1  0  0  0  0
  1 21  1  0  0  0  0
 18 21  1  0  0  0  0
 21 22  1  0  0  0  0
 21 23  1  0  0  0  0
 13 24  1  0  0  0  0
 24 25  1  0  0  0  0
M  END
> <VConfSearch Rank>
24

> <Conf_Id>
62

> <Delta U+W>
-1.779

> <U+W>
9.134

> <U>
11.364

> <W>
-2.230

> <W(PB)>
-4.359

> <W(SA)>
2.129

> <Valence>
16.582

> <Coulomb>
-8.150

> <VdW>
2.933

> <VdW6>
-12.531

> <VdW12>
15.464

> <Bond>
0.439

> <Angle>
5.099

> <Pdih>
11.044

> <Idih>
0.000

> <Tether>
0.000

$$$$
VeraChem MOL file


 25 25  0  0  0  0  0  0  0  0999 V2000     
   21.8438   19.6335   21.6150 C   0  0  0  0  0  0  0  0  0  0  0  0
   21.0816   20.3659   21.3254 H   0  0  0  0  0  0  0  0  0  0  0  0
   22.7107   19.8726   20.9841 H   0  0  0  0  0  0  0  0  0  0  0  0
   21.3855   18.2012   21.2434 C   0  0  0  0  0  0  0  0  0  0  0  0
   21.2309   18.1771   20.1560 H   0  0  0  0  0  0  0  0  0  0  0  0
   22.2032   17.4954   21.4427 H   0  0  0  0  0  0  0  0  0  0  0  0
   20.0923   17.6760   21.9176 C   0  0  0  0  0  0  0  0  0  0  0  0
   20.3127   17.2769   22.9141 H   0  0  0  0  0  0  0  0  0  0  0  0
   19.7579   16.8032   21.3401 H   0  0  0  0  0  0  0  0  0  0  0  0
   18.9201   18.6912   21.9845 C   0  0  0  0  0  0  0  0  0  0  0  0
   19.0141   19.4547   21.2024 H   0  0  0  0  0  0  0  0  0  0  0  0
   18.0010   18.1415   21.7429 H   0  0  0  0  0  0  0  0  0  0  0  0
   18.7101   19.3553   23.3688 C   0  0  0  0  0  0  0  0  0  0  0  0
   18.6286   18.5600   24.1237 H   0  0  0  0  0  0  0  0  0  0  0  0
   19.8074   20.3464   23.8307 C   0  0  0  0  0  0  0  0  0  0  0  0
   19.9243   21.1576   23.1019 H   0  0  0  0  0  0  0  0  0  0  0  0
   19.4369   20.8307   24.7440 H   0  0  0  0  0  0  0  0  0  0  0  0
   21.1757   19.6979   24.1726 C   0  0  0  0  0  0  0  0  0  0  0  0
   21.0449   18.6432   24.4398 H   0  0  0  0  0  0  0  0  0  0  0  0
   21.5583   20.1679   25.0889 H   0  0  0  0  0  0  0  0  0  0  0  0
   22.2718   19.8530   23.0875 C   0  0  0  0  0  0  0  0  0  0  0  0
   23.1077   19.1817   23.3266 H   0  0  0  0  0  0  0  0  0  0  0  0
   22.6775   20.8711   23.1635 H   0  0  0  0  0  0  0  0  0  0  0  0
   17.4810   20.0691   23.3230 O   0  0  0  0  0  0  0  0  0  0  0  0
   16.7840   19.4185   23.0966 H   0  0  0  0  0  0  0  0  0  0  0  0
  1  2  1  0  0  0  0
  1  3  1  0  0  0  0
  1  4  1  0  0  0  0
  4  5  1  0  0  0  0
  4  6  1  0  0  0  0
  4  7  1  0  0  0  0
  7  8  1  0  0  0  0
  7  9  1  0  0  0  0
  7 10  1  0  0  0  0
 10 11  1  0  0  0  0
 10 12  1  0  0  0  0
 10 13  1  0  0  0  0
 13 14  1  0  0  0  0
 13 15  1  0  0  0  0
 15 16  1  0  0  0  0
 15 17  1  0  0  0  0
 15 18  1  0  0  0  0
 18 19  1  0  0  0  0
 18 20  1  0  0  0  0
  1 21  1  0  0  0  0
 18 21  1  0  0  0  0
 21 22  1  0  0  0  0
 21 23  1  0  0  0  0
 13 24  1  0  0  0  0
 24 25  1  0  0  0  0
M  END
> <VConfSearch Rank>
25

> <Conf_Id>
121

> <Delta U+W>
-1.283

> <U+W>
9.630

> <U>
11.876

> <W>
-2.246

> <W(PB)>
-4.376

> <W(SA)>
2.130

> <Valence>
17.153

> <Coulomb>
-7.966

> <VdW>
2.689

> <VdW6>
-12.458

> <VdW12>
15.147

> <Bond>
0.421

> <Angle>
5.258

> <Pdih>
11.475

> <Idih>
0.000

> <Tether>
0.000

$$$$
VeraChem MOL file


 25 25  0  0  0  0  0  0  0  0999 V2000     
   20.1495   20.4655   24.0796 C   0  0  0  0  0  0  0  0  0  0  0  0
   20.5897   21.0627   23.2729 H   0  0  0  0  0  0  0  0  0  0  0  0
   20.0149   21.1751   24.9072 H   0  0  0  0  0  0  0  0  0  0  0  0
   21.1501   19.3843   24.5587 C   0  0  0  0  0  0  0  0  0  0  0  0
   22.0479   19.9044   24.9199 H   0  0  0  0  0  0  0  0  0  0  0  0
   20.7343   18.8671   25.4340 H   0  0  0  0  0  0  0  0  0  0  0  0
   21.6016   18.3282   23.5176 C   0  0  0  0  0  0  0  0  0  0  0  0
   20.8665   17.5185   23.4469 H   0  0  0  0  0  0  0  0  0  0  0  0
   22.5042   17.8455   23.9165 H   0  0  0  0  0  0  0  0  0  0  0  0
   21.9336   18.8864   22.1078 C   0  0  0  0  0  0  0  0  0  0  0  0
   22.2111   19.9463   22.1563 H   0  0  0  0  0  0  0  0  0  0  0  0
   22.8350   18.3684   21.7542 H   0  0  0  0  0  0  0  0  0  0  0  0
   20.8354   18.6609   21.0387 C   0  0  0  0  0  0  0  0  0  0  0  0
   20.5861   17.5901   21.0258 H   0  0  0  0  0  0  0  0  0  0  0  0
   19.5221   19.4631   21.2205 C   0  0  0  0  0  0  0  0  0  0  0  0
   19.7300   20.5399   21.2462 H   0  0  0  0  0  0  0  0  0  0  0  0
   18.9162   19.3071   20.3183 H   0  0  0  0  0  0  0  0  0  0  0  0
   18.6558   19.0326   22.4343 C   0  0  0  0  0  0  0  0  0  0  0  0
   18.8748   17.9960   22.7148 H   0  0  0  0  0  0  0  0  0  0  0  0
   17.6043   19.0145   22.1164 H   0  0  0  0  0  0  0  0  0  0  0  0
   18.7426   19.9612   23.6724 C   0  0  0  0  0  0  0  0  0  0  0  0
   18.2757   19.4571   24.5294 H   0  0  0  0  0  0  0  0  0  0  0  0
   18.1213   20.8451   23.4733 H   0  0  0  0  0  0  0  0  0  0  0  0
   21.3871   19.0165   19.7772 O   0  0  0  0  0  0  0  0  0  0  0  0
   20.7089   18.8060   19.1020 H   0  0  0  0  0  0  0  0  0  0  0  0
  1  2  1  0  0  0  0
  1  3  1  0  0  0  0
  1  4  1  0  0  0  0
  4  5  1  0  0  0  0
  4  6  1  0  0  0  0
  4  7  1  0  0  0  0
  7  8  1  0  0  0  0
  7  9  1  0  0  0  0
  7 10  1  0  0  0  0
 10 11  1  0  0  0  0
 10 12  1  0  0  0  0
 10 13  1  0  0  0  0
 13 14  1  0  0  0  0
 13 15  1  0  0  0  0
 15 16  1  0  0  0  0
 15 17  1  0  0  0  0
 15 18  1  0  0  0  0
 18 19  1  0  0  0  0
 18 20  1  0  0  0  0
  1 21  1  0  0  0  0
 18 21  1  0  0  0  0
 21 22  1  0  0  0  0
 21 23  1  0  0  0  0
 13 24  1  0  0  0  0
 24 25  1  0  0  0  0
M  END
> <VConfSearch Rank>
26

> <Conf_Id>
24

> <Delta U+W>
-1.236

> <U+W>
9.678

> <U>
11.876

> <W>
-2.199

> <W(PB)>
-4.335

> <W(SA)>
2.137

> <Valence>
17.153

> <Coulomb>
-7.966

> <VdW>
2.689

> <VdW6>
-12.458

> <VdW12>
15.147

> <Bond>
0.421

> <Angle>
5.258

> <Pdih>
11.475

> <Idih>
0.000

> <Tether>
0.000

$$$$
VeraChem MOL file


 25 25  0  0  0  0  0  0  0  0999 V2000     
   19.5737   17.1653   22.8661 C   0  0  0  0  0  0  0  0  0  0  0  0
   19.3396   16.7154   23.8406 H   0  0  0  0  0  0  0  0  0  0  0  0
   19.4413   16.3620   22.1286 H   0  0  0  0  0  0  0  0  0  0  0  0
   18.5289   18.2712   22.5600 C   0  0  0  0  0  0  0  0  0  0  0  0
   18.5227   18.5113   21.4892 H   0  0  0  0  0  0  0  0  0  0  0  0
   17.5383   17.8376   22.7545 H   0  0  0  0  0  0  0  0  0  0  0  0
   18.6511   19.5711   23.3931 C   0  0  0  0  0  0  0  0  0  0  0  0
   18.9965   19.3503   24.4121 H   0  0  0  0  0  0  0  0  0  0  0  0
   17.6346   19.9711   23.5107 H   0  0  0  0  0  0  0  0  0  0  0  0
   19.5054   20.6953   22.7417 C   0  0  0  0  0  0  0  0  0  0  0  0
   19.3654   20.7111   21.6533 H   0  0  0  0  0  0  0  0  0  0  0  0
   19.0978   21.6486   23.1049 H   0  0  0  0  0  0  0  0  0  0  0  0
   21.0123   20.6599   23.0952 C   0  0  0  0  0  0  0  0  0  0  0  0
   21.1272   20.2039   24.0875 H   0  0  0  0  0  0  0  0  0  0  0  0
   21.9151   19.9131   22.0808 C   0  0  0  0  0  0  0  0  0  0  0  0
   22.0092   20.5132   21.1662 H   0  0  0  0  0  0  0  0  0  0  0  0
   22.9238   19.8585   22.5110 H   0  0  0  0  0  0  0  0  0  0  0  0
   21.4789   18.4822   21.6774 C   0  0  0  0  0  0  0  0  0  0  0  0
   22.3189   18.0047   21.1547 H   0  0  0  0  0  0  0  0  0  0  0  0
   20.6792   18.5365   20.9296 H   0  0  0  0  0  0  0  0  0  0  0  0
   21.0635   17.5871   22.8721 C   0  0  0  0  0  0  0  0  0  0  0  0
   21.3067   18.0659   23.8278 H   0  0  0  0  0  0  0  0  0  0  0  0
   21.6741   16.6740   22.8557 H   0  0  0  0  0  0  0  0  0  0  0  0
   21.4847   21.9987   23.1736 O   0  0  0  0  0  0  0  0  0  0  0  0
   21.3540   22.3911   22.2860 H   0  0  0  0  0  0  0  0  0  0  0  0
  1  2  1  0  0  0  0
  1  3  1  0  0  0  0
  1  4  1  0  0  0  0
  4  5  1  0  0  0  0
  4  6  1  0  0  0  0
  4  7  1  0  0  0  0
  7  8  1  0  0  0  0
  7  9  1  0  0  0  0
  7 10  1  0  0  0  0
 10 11  1  0  0  0  0
 10 12  1  0  0  0  0
 10 13  1  0  0  0  0
 13 14  1  0  0  0  0
 13 15  1  0  0  0  0
 15 16  1  0  0  0  0
 15 17  1  0  0  0  0
 15 18  1  0  0  0  0
 18 19  1  0  0  0  0
 18 20  1  0  0  0  0
  1 21  1  0  0  0  0
 18 21  1  0  0  0  0
 21 22  1  0  0  0  0
 21 23  1  0  0  0  0
 13 24  1  0  0  0  0
 24 25  1  0  0  0  0
M  END
> <VConfSearch Rank>
27

> <Conf_Id>
167

> <Delta U+W>
0.388

> <U+W>
11.301

> <U>
13.202

> <W>
-1.901

> <W(PB)>
-4.065

> <W(SA)>
2.163

> <Valence>
18.957

> <Coulomb>
-8.753

> <VdW>
2.998

> <VdW6>
-12.294

> <VdW12>
15.292

> <Bond>
0.419

> <Angle>
4.543

> <Pdih>
13.996

> <Idih>
0.000

> <Tether>
0.000

$$$$
VeraChem MOL file


 25 25  0  0  0  0  0  0  0  0999 V2000     
   18.2897   18.9742   22.3129 C   0  0  0  0  0  0  0  0  0  0  0  0
   17.5545   19.7291   22.6229 H   0  0  0  0  0  0  0  0  0  0  0  0
   17.7106   18.1837   21.8162 H   0  0  0  0  0  0  0  0  0  0  0  0
   18.9404   18.3576   23.5785 C   0  0  0  0  0  0  0  0  0  0  0  0
   19.1425   19.1330   24.3260 H   0  0  0  0  0  0  0  0  0  0  0  0
   18.1831   17.7159   24.0496 H   0  0  0  0  0  0  0  0  0  0  0  0
   20.2081   17.5007   23.3266 C   0  0  0  0  0  0  0  0  0  0  0  0
   20.2108   17.0898   22.3088 H   0  0  0  0  0  0  0  0  0  0  0  0
   20.1523   16.6260   23.9888 H   0  0  0  0  0  0  0  0  0  0  0  0
   21.5512   18.2171   23.6350 C   0  0  0  0  0  0  0  0  0  0  0  0
   21.5404   18.5831   24.6699 H   0  0  0  0  0  0  0  0  0  0  0  0
   22.3456   17.4599   23.5971 H   0  0  0  0  0  0  0  0  0  0  0  0
   21.9604   19.3739   22.6895 C   0  0  0  0  0  0  0  0  0  0  0  0
   21.9387   19.0145   21.6519 H   0  0  0  0  0  0  0  0  0  0  0  0
   21.0797   20.6431   22.8240 C   0  0  0  0  0  0  0  0  0  0  0  0
   20.5852   20.6565   23.8005 H   0  0  0  0  0  0  0  0  0  0  0  0
   21.7207   21.5346   22.8317 H   0  0  0  0  0  0  0  0  0  0  0  0
   20.0370   20.8400   21.6931 C   0  0  0  0  0  0  0  0  0  0  0  0
   20.5655   21.2236   20.8097 H   0  0  0  0  0  0  0  0  0  0  0  0
   19.3363   21.6327   21.9884 H   0  0  0  0  0  0  0  0  0  0  0  0
   19.2370   19.5885   21.2518 C   0  0  0  0  0  0  0  0  0  0  0  0
   19.9105   18.8214   20.8530 H   0  0  0  0  0  0  0  0  0  0  0  0
   18.6172   19.8842   20.3943 H   0  0  0  0  0  0  0  0  0  0  0  0
   23.3013   19.7268   23.0082 O   0  0  0  0  0  0  0  0  0  0  0  0
   23.5732   20.4101   22.3604 H   0  0  0  0  0  0  0  0  0  0  0  0
  1  2  1  0  0  0  0
  1  3  1  0  0  0  0
  1  4  1  0  0  0  0
  4  5  1  0  0  0  0
  4  6  1  0  0  0  0
  4  7  1  0  0  0  0
  7  8  1  0  0  0  0
  7  9  1  0  0  0  0
  7 10  1  0  0  0  0
 10 11  1  0  0  0  0
 10 12  1  0  0  0  0
 10 13  1  0  0  0  0
 13 14  1  0  0  0  0
 13 15  1  0  0  0  0
 15 16  1  0  0  0  0
 15 17  1  0  0  0  0
 15 18  1  0  0  0  0
 18 19  1  0  0  0  0
 18 20  1  0  0  0  0
  1 21  1  0  0  0  0
 18 21  1  0  0  0  0
 21 22  1  0  0  0  0
 21 23  1  0  0  0  0
 13 24  1  0  0  0  0
 24 25  1  0  0  0  0
M  END
> <VConfSearch Rank>
28

> <Conf_Id>
60

> <Delta U+W>
-1.838

> <U+W>
9.075

> <U>
11.150

> <W>
-2.074

> <W(PB)>
-4.196

> <W(SA)>
2.121

> <Valence>
16.582

> <Coulomb>
-8.361

> <VdW>
2.928

> <VdW6>
-12.539

> <VdW12>
15.467

> <Bond>
0.441

> <Angle>
5.093

> <Pdih>
11.049

> <Idih>
0.000

> <Tether>
0.000

$$$$
VeraChem MOL file


 25 25  0  0  0  0  0  0  0  0999 V2000     
   22.2650   19.8512   22.8720 C   0  0  0  0  0  0  0  0  0  0  0  0
   22.4868   20.8494   23.2731 H   0  0  0  0  0  0  0  0  0  0  0  0
   23.2400   19.4055   22.6318 H   0  0  0  0  0  0  0  0  0  0  0  0
   21.4839   19.9968   21.5418 C   0  0  0  0  0  0  0  0  0  0  0  0
   22.1291   20.5477   20.8440 H   0  0  0  0  0  0  0  0  0  0  0  0
   21.3451   19.0161   21.0726 H   0  0  0  0  0  0  0  0  0  0  0  0
   20.1369   20.7586   21.6206 C   0  0  0  0  0  0  0  0  0  0  0  0
   19.7649   20.8804   20.5941 H   0  0  0  0  0  0  0  0  0  0  0  0
   20.3169   21.7756   21.9946 H   0  0  0  0  0  0  0  0  0  0  0  0
   19.0097   20.1054   22.4617 C   0  0  0  0  0  0  0  0  0  0  0  0
   19.1564   20.3233   23.5244 H   0  0  0  0  0  0  0  0  0  0  0  0
   18.0746   20.6208   22.2051 H   0  0  0  0  0  0  0  0  0  0  0  0
   18.8343   18.5793   22.2494 C   0  0  0  0  0  0  0  0  0  0  0  0
   19.2965   18.2806   21.2990 H   0  0  0  0  0  0  0  0  0  0  0  0
   19.4178   17.7108   23.3916 C   0  0  0  0  0  0  0  0  0  0  0  0
   18.9813   18.0299   24.3470 H   0  0  0  0  0  0  0  0  0  0  0  0
   19.0702   16.6807   23.2368 H   0  0  0  0  0  0  0  0  0  0  0  0
   20.9650   17.6673   23.5195 C   0  0  0  0  0  0  0  0  0  0  0  0
   21.4228   17.3112   22.5876 H   0  0  0  0  0  0  0  0  0  0  0  0
   21.2030   16.8989   24.2677 H   0  0  0  0  0  0  0  0  0  0  0  0
   21.6170   18.9934   23.9898 C   0  0  0  0  0  0  0  0  0  0  0  0
   22.4112   18.7471   24.7078 H   0  0  0  0  0  0  0  0  0  0  0  0
   20.9024   19.5891   24.5689 H   0  0  0  0  0  0  0  0  0  0  0  0
   17.4418   18.2978   22.1726 O   0  0  0  0  0  0  0  0  0  0  0  0
   17.0961   18.7986   21.4044 H   0  0  0  0  0  0  0  0  0  0  0  0
  1  2  1  0  0  0  0
  1  3  1  0  0  0  0
  1  4  1  0  0  0  0
  4  5  1  0  0  0  0
  4  6  1  0  0  0  0
  4  7  1  0  0  0  0
  7  8  1  0  0  0  0
  7  9  1  0  0  0  0
  7 10  1  0  0  0  0
 10 11  1  0  0  0  0
 10 12  1  0  0  0  0
 10 13  1  0  0  0  0
 13 14  1  0  0  0  0
 13 15  1  0  0  0  0
 15 16  1  0  0  0  0
 15 17  1  0  0  0  0
 15 18  1  0  0  0  0
 18 19  1  0  0  0  0
 18 20  1  0  0  0  0
  1 21  1  0  0  0  0
 18 21  1  0  0  0  0
 21 22  1  0  0  0  0
 21 23  1  0  0  0  0
 13 24  1  0  0  0  0
 24 25  1  0  0  0  0
M  END
> <VConfSearch Rank>
29

> <Conf_Id>
129

> <Delta U+W>
-1.846

> <U+W>
9.067

> <U>
11.150

> <W>
-2.083

> <W(PB)>
-4.217

> <W(SA)>
2.134

> <Valence>
16.583

> <Coulomb>
-8.361

> <VdW>
2.928

> <VdW6>
-12.539

> <VdW12>
15.467

> <Bond>
0.441

> <Angle>
5.093

> <Pdih>
11.049

> <Idih>
0.000

> <Tether>
0.000

$$$$
VeraChem MOL file


 25 25  0  0  0  0  0  0  0  0999 V2000     
   20.6018   20.8361   21.4167 C   0  0  0  0  0  0  0  0  0  0  0  0
   20.2625   21.8412   21.7014 H   0  0  0  0  0  0  0  0  0  0  0  0
   21.0986   20.9557   20.4441 H   0  0  0  0  0  0  0  0  0  0  0  0
   19.3694   19.9234   21.1968 C   0  0  0  0  0  0  0  0  0  0  0  0
   18.7782   20.3649   20.3830 H   0  0  0  0  0  0  0  0  0  0  0  0
   19.6823   18.9464   20.8111 H   0  0  0  0  0  0  0  0  0  0  0  0
   18.4225   19.7508   22.4108 C   0  0  0  0  0  0  0  0  0  0  0  0
   17.5477   19.1808   22.0690 H   0  0  0  0  0  0  0  0  0  0  0  0
   18.0375   20.7339   22.7136 H   0  0  0  0  0  0  0  0  0  0  0  0
   19.0004   19.0306   23.6569 C   0  0  0  0  0  0  0  0  0  0  0  0
   19.5824   19.7326   24.2627 H   0  0  0  0  0  0  0  0  0  0  0  0
   18.1472   18.7575   24.2925 H   0  0  0  0  0  0  0  0  0  0  0  0
   19.8375   17.7614   23.3520 C   0  0  0  0  0  0  0  0  0  0  0  0
   19.5893   17.3861   22.3504 H   0  0  0  0  0  0  0  0  0  0  0  0
   21.3696   17.9694   23.4543 C   0  0  0  0  0  0  0  0  0  0  0  0
   21.6184   18.3734   24.4443 H   0  0  0  0  0  0  0  0  0  0  0  0
   21.8442   16.9800   23.4083 H   0  0  0  0  0  0  0  0  0  0  0  0
   22.0316   18.8527   22.3623 C   0  0  0  0  0  0  0  0  0  0  0  0
   21.8353   18.4473   21.3613 H   0  0  0  0  0  0  0  0  0  0  0  0
   23.1187   18.7683   22.4972 H   0  0  0  0  0  0  0  0  0  0  0  0
   21.6684   20.3584   22.4359 C   0  0  0  0  0  0  0  0  0  0  0  0
   22.5808   20.9395   22.2436 H   0  0  0  0  0  0  0  0  0  0  0  0
   21.3793   20.6354   23.4559 H   0  0  0  0  0  0  0  0  0  0  0  0
   19.4838   16.7586   24.2961 O   0  0  0  0  0  0  0  0  0  0  0  0
   19.7179   17.1140   25.1781 H   0  0  0  0  0  0  0  0  0  0  0  0
  1  2  1  0  0  0  0
  1  3  1  0  0  0  0
  1  4  1  0  0  0  0
  4  5  1  0  0  0  0
  4  6  1  0  0  0  0
  4  7  1  0  0  0  0
  7  8  1  0  0  0  0
  7  9  1  0  0  0  0
  7 10  1  0  0  0  0
 10 11  1  0  0  0  0
 10 12  1  0  0  0  0
 10 13  1  0  0  0  0
 13 14  1  0  0  0  0
 13 15  1  0  0  0  0
 15 16  1  0  0  0  0
 15 17  1  0  0  0  0
 15 18  1  0  0  0  0
 18 19  1  0  0  0  0
 18 20  1  0  0  0  0
  1 21  1  0  0  0  0
 18 21  1  0  0  0  0
 21 22  1  0  0  0  0
 21 23  1  0  0  0  0
 13 24  1  0  0  0  0
 24 25  1  0  0  0  0
M  END
> <VConfSearch Rank>
30

> <Conf_Id>
140

> <Delta U+W>
-1.702

> <U+W>
9.211

> <U>
11.181

> <W>
-1.969

> <W(PB)>
-4.093

> <W(SA)>
2.124

> <Valence>
16.954

> <Coulomb>
-8.661

> <VdW>
2.887

> <VdW6>
-12.561

> <VdW12>
15.448

> <Bond>
0.433

> <Angle>
5.120

> <Pdih>
11.401

> <Idih>
0.000

> <Tether>
0.000

$$$$
VeraChem MOL file


 25 25  0  0  0  0  0  0  0  0999 V2000     
   19.9034   17.7218   21.2364 C   0  0  0  0  0  0  0  0  0  0  0  0
   19.2983   17.9418   20.3465 H   0  0  0  0  0  0  0  0  0  0  0  0
   20.1822   16.6626   21.1504 H   0  0  0  0  0  0  0  0  0  0  0  0
   19.0152   17.8749   22.4982 C   0  0  0  0  0  0  0  0  0  0  0  0
   18.3643   18.7519   22.4083 H   0  0  0  0  0  0  0  0  0  0  0  0
   18.3232   17.0217   22.5107 H   0  0  0  0  0  0  0  0  0  0  0  0
   19.7765   17.8977   23.8489 C   0  0  0  0  0  0  0  0  0  0  0  0
   20.7391   17.3764   23.7688 H   0  0  0  0  0  0  0  0  0  0  0  0
   19.1909   17.3087   24.5680 H   0  0  0  0  0  0  0  0  0  0  0  0
   19.9643   19.3100   24.4664 C   0  0  0  0  0  0  0  0  0  0  0  0
   18.9826   19.7895   24.5743 H   0  0  0  0  0  0  0  0  0  0  0  0
   20.3432   19.1737   25.4882 H   0  0  0  0  0  0  0  0  0  0  0  0
   20.9306   20.2723   23.7309 C   0  0  0  0  0  0  0  0  0  0  0  0
   21.9021   19.7779   23.5979 H   0  0  0  0  0  0  0  0  0  0  0  0
   20.4082   20.7754   22.3603 C   0  0  0  0  0  0  0  0  0  0  0  0
   19.3172   20.6957   22.3176 H   0  0  0  0  0  0  0  0  0  0  0  0
   20.6112   21.8510   22.2682 H   0  0  0  0  0  0  0  0  0  0  0  0
   21.0436   20.0888   21.1234 C   0  0  0  0  0  0  0  0  0  0  0  0
   22.0409   20.5244   20.9726 H   0  0  0  0  0  0  0  0  0  0  0  0
   20.4637   20.3563   20.2297 H   0  0  0  0  0  0  0  0  0  0  0  0
   21.2117   18.5498   21.1830 C   0  0  0  0  0  0  0  0  0  0  0  0
   21.8759   18.2671   22.0076 H   0  0  0  0  0  0  0  0  0  0  0  0
   21.7526   18.2460   20.2764 H   0  0  0  0  0  0  0  0  0  0  0  0
   21.1249   21.4010   24.5738 O   0  0  0  0  0  0  0  0  0  0  0  0
   20.2468   21.8211   24.6803 H   0  0  0  0  0  0  0  0  0  0  0  0
  1  2  1  0  0  0  0
  1  3  1  0  0  0  0
  1  4  1  0  0  0  0
  4  5  1  0  0  0  0
  4  6  1  0  0  0  0
  4  7  1  0  0  0  0
  7  8  1  0  0  0  0
  7  9  1  0  0  0  0
  7 10  1  0  0  0  0
 10 11  1  0  0  0  0
 10 12  1  0  0  0  0
 10 13  1  0  0  0  0
 13 14  1  0  0  0  0
 13 15  1  0  0  0  0
 15 16  1  0  0  0  0
 15 17  1  0  0  0  0
 15 18  1  0  0  0  0
 18 19  1  0  0  0  0
 18 20  1  0  0  0  0
  1 21  1  0  0  0  0
 18 21  1  0  0  0  0
 21 22  1  0  0  0  0
 21 23  1  0  0  0  0
 13 24  1  0  0  0  0
 24 25  1  0  0  0  0
M  END
> <VConfSearch Rank>
31

> <Conf_Id>
68

> <Delta U+W>
-1.765

> <U+W>
9.148

> <U>
11.181

> <W>
-2.032

> <W(PB)>
-4.147

> <W(SA)>
2.114

> <Valence>
16.955

> <Coulomb>
-8.661

> <VdW>
2.887

> <VdW6>
-12.561

> <VdW12>
15.448

> <Bond>
0.433

> <Angle>
5.121

> <Pdih>
11.402

> <Idih>
0.000

> <Tether>
0.000

$$$$
VeraChem MOL file


 25 25  0  0  0  0  0  0  0  0999 V2000     
   19.7060   19.5738   20.9125 C   0  0  0  0  0  0  0  0  0  0  0  0
   19.3835   19.9134   19.9187 H   0  0  0  0  0  0  0  0  0  0  0  0
   19.5598   18.4880   20.8888 H   0  0  0  0  0  0  0  0  0  0  0  0
   18.7767   20.2264   21.9688 C   0  0  0  0  0  0  0  0  0  0  0  0
   19.2184   21.1480   22.3691 H   0  0  0  0  0  0  0  0  0  0  0  0
   17.8634   20.5492   21.4503 H   0  0  0  0  0  0  0  0  0  0  0  0
   18.3346   19.2833   23.1185 C   0  0  0  0  0  0  0  0  0  0  0  0
   17.8533   18.3917   22.6937 H   0  0  0  0  0  0  0  0  0  0  0  0
   17.5494   19.7980   23.6888 H   0  0  0  0  0  0  0  0  0  0  0  0
   19.4348   18.8435   24.1208 C   0  0  0  0  0  0  0  0  0  0  0  0
   19.9071   19.7212   24.5783 H   0  0  0  0  0  0  0  0  0  0  0  0
   18.9234   18.3287   24.9455 H   0  0  0  0  0  0  0  0  0  0  0  0
   20.5010   17.8872   23.5263 C   0  0  0  0  0  0  0  0  0  0  0  0
   20.0982   17.4228   22.6188 H   0  0  0  0  0  0  0  0  0  0  0  0
   21.8587   18.5544   23.1956 C   0  0  0  0  0  0  0  0  0  0  0  0
   22.4146   18.6960   24.1319 H   0  0  0  0  0  0  0  0  0  0  0  0
   22.4530   17.8522   22.5966 H   0  0  0  0  0  0  0  0  0  0  0  0
   21.8165   19.9246   22.4711 C   0  0  0  0  0  0  0  0  0  0  0  0
   22.8520   20.2816   22.3863 H   0  0  0  0  0  0  0  0  0  0  0  0
   21.3163   20.6735   23.0958 H   0  0  0  0  0  0  0  0  0  0  0  0
   21.2114   19.9223   21.0449 C   0  0  0  0  0  0  0  0  0  0  0  0
   21.7919   19.2441   20.4049 H   0  0  0  0  0  0  0  0  0  0  0  0
   21.3604   20.9262   20.6243 H   0  0  0  0  0  0  0  0  0  0  0  0
   20.7524   16.8492   24.4655 O   0  0  0  0  0  0  0  0  0  0  0  0
   21.0940   17.2838   25.2738 H   0  0  0  0  0  0  0  0  0  0  0  0
  1  2  1  0  0  0  0
  1  3  1  0  0  0  0
  1  4  1  0  0  0  0
  4  5  1  0  0  0  0
  4  6  1  0  0  0  0
  4  7  1  0  0  0  0
  7  8  1  0  0  0  0
  7  9  1  0  0  0  0
  7 10  1  0  0  0  0
 10 11  1  0  0  0  0
 10 12  1  0  0  0  0
 10 13  1  0  0  0  0
 13 14  1  0  0  0  0
 13 15  1  0  0  0  0
 15 16  1  0  0  0  0
 15 17  1  0  0  0  0
 15 18  1  0  0  0  0
 18 19  1  0  0  0  0
 18 20  1  0  0  0  0
  1 21  1  0  0  0  0
 18 21  1  0  0  0  0
 21 22  1  0  0  0  0
 21 23  1  0  0  0  0
 13 24  1  0  0  0  0
 24 25  1  0  0  0  0
M  END
> <VConfSearch Rank>
32

> <Conf_Id>
165

> <Delta U+W>
-1.999

> <U+W>
8.915

> <U>
10.935

> <W>
-2.020

> <W(PB)>
-4.135

> <W(SA)>
2.115

> <Valence>
16.757

> <Coulomb>
-8.731

> <VdW>
2.908

> <VdW6>
-12.597

> <VdW12>
15.506

> <Bond>
0.434

> <Angle>
5.069

> <Pdih>
11.254

> <Idih>
0.000

> <Tether>
0.000

$$$$
VeraChem MOL file


 25 25  0  0  0  0  0  0  0  0999 V2000     
   21.5044   18.8841   21.2988 C   0  0  0  0  0  0  0  0  0  0  0  0
   22.1718   18.7652   20.4342 H   0  0  0  0  0  0  0  0  0  0  0  0
   22.0180   18.3587   22.1118 H   0  0  0  0  0  0  0  0  0  0  0  0
   20.1709   18.1765   20.9433 C   0  0  0  0  0  0  0  0  0  0  0  0
   19.9303   18.4220   19.8998 H   0  0  0  0  0  0  0  0  0  0  0  0
   20.3276   17.0895   20.9628 H   0  0  0  0  0  0  0  0  0  0  0  0
   18.9288   18.5312   21.7988 C   0  0  0  0  0  0  0  0  0  0  0  0
   18.0658   18.0203   21.3505 H   0  0  0  0  0  0  0  0  0  0  0  0
   18.6958   19.5983   21.7079 H   0  0  0  0  0  0  0  0  0  0  0  0
   18.9877   18.1145   23.2911 C   0  0  0  0  0  0  0  0  0  0  0  0
   18.0053   18.3315   23.7320 H   0  0  0  0  0  0  0  0  0  0  0  0
   19.1123   17.0256   23.3505 H   0  0  0  0  0  0  0  0  0  0  0  0
   20.0711   18.7861   24.1703 C   0  0  0  0  0  0  0  0  0  0  0  0
   21.0411   18.3154   23.9716 H   0  0  0  0  0  0  0  0  0  0  0  0
   20.2052   20.3182   23.9730 C   0  0  0  0  0  0  0  0  0  0  0  0
   19.2813   20.7411   23.5611 H   0  0  0  0  0  0  0  0  0  0  0  0
   20.3183   20.7864   24.9602 H   0  0  0  0  0  0  0  0  0  0  0  0
   21.4288   20.7544   23.1236 C   0  0  0  0  0  0  0  0  0  0  0  0
   22.3453   20.3465   23.5714 H   0  0  0  0  0  0  0  0  0  0  0  0
   21.5212   21.8459   23.2070 H   0  0  0  0  0  0  0  0  0  0  0  0
   21.3911   20.3984   21.6140 C   0  0  0  0  0  0  0  0  0  0  0  0
   22.2500   20.8983   21.1456 H   0  0  0  0  0  0  0  0  0  0  0  0
   20.5080   20.8377   21.1325 H   0  0  0  0  0  0  0  0  0  0  0  0
   19.7335   18.5333   25.5296 O   0  0  0  0  0  0  0  0  0  0  0  0
   19.6997   17.5596   25.6356 H   0  0  0  0  0  0  0  0  0  0  0  0
  1  2  1  0  0  0  0
  1  3  1  0  0  0  0
  1  4  1  0  0  0  0
  4  5  1  0  0  0  0
  4  6  1  0  0  0  0
  4  7  1  0  0  0  0
  7  8  1  0  0  0  0
  7  9  1  0  0  0  0
  7 10  1  0  0  0  0
 10 11  1  0  0  0  0
 10 12  1  0  0  0  0
 10 13  1  0  0  0  0
 13 14  1  0  0  0  0
 13 15  1  0  0  0  0
 15 16  1  0  0  0  0
 15 17  1  0  0  0  0
 15 18  1  0  0  0  0
 18 19  1  0  0  0  0
 18 20  1  0  0  0  0
  1 21  1  0  0  0  0
 18 21  1  0  0  0  0
 21 22  1  0  0  0  0
 21 23  1  0  0  0  0
 13 24  1  0  0  0  0
 24 25  1  0  0  0  0
M  END
> <VConfSearch Rank>
33

> <Conf_Id>
133

> <Delta U+W>
-2.139

> <U+W>
8.774

> <U>
10.905

> <W>
-2.131

> <W(PB)>
-4.281

> <W(SA)>
2.150

> <Valence>
16.378

> <Coulomb>
-8.448

> <VdW>
2.976

> <VdW6>
-12.570

> <VdW12>
15.545

> <Bond>
0.439

> <Angle>
5.049

> <Pdih>
10.889

> <Idih>
0.000

> <Tether>
0.000

$$$$
VeraChem MOL file


 25 25  0  0  0  0  0  0  0  0999 V2000     
   18.8331   19.5593   21.5905 C   0  0  0  0  0  0  0  0  0  0  0  0
   17.9535   19.8330   20.9917 H   0  0  0  0  0  0  0  0  0  0  0  0
   19.0178   18.5094   21.3367 H   0  0  0  0  0  0  0  0  0  0  0  0
   18.4574   19.7003   23.0887 C   0  0  0  0  0  0  0  0  0  0  0  0
   18.7526   20.6824   23.4798 H   0  0  0  0  0  0  0  0  0  0  0  0
   17.3610   19.6835   23.1570 H   0  0  0  0  0  0  0  0  0  0  0  0
   18.9848   18.5629   24.0025 C   0  0  0  0  0  0  0  0  0  0  0  0
   18.6350   17.5949   23.6183 H   0  0  0  0  0  0  0  0  0  0  0  0
   18.5101   18.6780   24.9865 H   0  0  0  0  0  0  0  0  0  0  0  0
   20.5199   18.5020   24.2235 C   0  0  0  0  0  0  0  0  0  0  0  0
   20.8863   19.4491   24.6370 H   0  0  0  0  0  0  0  0  0  0  0  0
   20.7001   17.7579   25.0110 H   0  0  0  0  0  0  0  0  0  0  0  0
   21.3357   18.0949   22.9693 C   0  0  0  0  0  0  0  0  0  0  0  0
   20.6689   17.5933   22.2583 H   0  0  0  0  0  0  0  0  0  0  0  0
   22.0528   19.2680   22.2570 C   0  0  0  0  0  0  0  0  0  0  0  0
   22.9443   19.5312   22.8423 H   0  0  0  0  0  0  0  0  0  0  0  0
   22.4218   18.9161   21.2851 H   0  0  0  0  0  0  0  0  0  0  0  0
   21.2381   20.5696   22.0419 C   0  0  0  0  0  0  0  0  0  0  0  0
   21.9165   21.3102   21.5970 H   0  0  0  0  0  0  0  0  0  0  0  0
   20.9487   21.0040   23.0057 H   0  0  0  0  0  0  0  0  0  0  0  0
   20.0050   20.4550   21.1110 C   0  0  0  0  0  0  0  0  0  0  0  0
   20.3293   20.1164   20.1177 H   0  0  0  0  0  0  0  0  0  0  0  0
   19.6110   21.4699   20.9635 H   0  0  0  0  0  0  0  0  0  0  0  0
   22.3350   17.1614   23.3637 O   0  0  0  0  0  0  0  0  0  0  0  0
   22.8039   16.8882   22.5477 H   0  0  0  0  0  0  0  0  0  0  0  0
  1  2  1  0  0  0  0
  1  3  1  0  0  0  0
  1  4  1  0  0  0  0
  4  5  1  0  0  0  0
  4  6  1  0  0  0  0
  4  7  1  0  0  0  0
  7  8  1  0  0  0  0
  7  9  1  0  0  0  0
  7 10  1  0  0  0  0
 10 11  1  0  0  0  0
 10 12  1  0  0  0  0
 10 13  1  0  0  0  0
 13 14  1  0  0  0  0
 13 15  1  0  0  0  0
 15 16  1  0  0  0  0
 15 17  1  0  0  0  0
 15 18  1  0  0  0  0
 18 19  1  0  0  0  0
 18 20  1  0  0  0  0
  1 21  1  0  0  0  0
 18 21  1  0  0  0  0
 21 22  1  0  0  0  0
 21 23  1  0  0  0  0
 13 24  1  0  0  0  0
 24 25  1  0  0  0  0
M  END
> <VConfSearch Rank>
34

> <Conf_Id>
95

> <Delta U+W>
-2.190

> <U+W>
8.723

> <U>
10.905

> <W>
-2.182

> <W(PB)>
-4.296

> <W(SA)>
2.114

> <Valence>
16.377

> <Coulomb>
-8.448

> <VdW>
2.976

> <VdW6>
-12.570

> <VdW12>
15.546

> <Bond>
0.439

> <Angle>
5.049

> <Pdih>
10.889

> <Idih>
0.000

> <Tether>
0.000

$$$$
VeraChem MOL file


 25 25  0  0  0  0  0  0  0  0999 V2000     
   21.6522   20.1952   23.3262 C   0  0  0  0  0  0  0  0  0  0  0  0
   22.5423   20.7162   23.7044 H   0  0  0  0  0  0  0  0  0  0  0  0
   20.8226   20.7592   23.7643 H   0  0  0  0  0  0  0  0  0  0  0  0
   21.6996   18.7449   23.8907 C   0  0  0  0  0  0  0  0  0  0  0  0
   22.7554   18.4440   23.9330 H   0  0  0  0  0  0  0  0  0  0  0  0
   21.3577   18.7573   24.9344 H   0  0  0  0  0  0  0  0  0  0  0  0
   20.9445   17.6320   23.1174 C   0  0  0  0  0  0  0  0  0  0  0  0
   21.1893   16.6723   23.5926 H   0  0  0  0  0  0  0  0  0  0  0  0
   21.3706   17.5365   22.1137 H   0  0  0  0  0  0  0  0  0  0  0  0
   19.3911   17.7297   23.0538 C   0  0  0  0  0  0  0  0  0  0  0  0
   19.0322   17.1286   22.2081 H   0  0  0  0  0  0  0  0  0  0  0  0
   19.0013   17.2376   23.9545 H   0  0  0  0  0  0  0  0  0  0  0  0
   18.7467   19.1374   22.9843 C   0  0  0  0  0  0  0  0  0  0  0  0
   19.0794   19.7063   23.8586 H   0  0  0  0  0  0  0  0  0  0  0  0
   19.0050   19.9679   21.6942 C   0  0  0  0  0  0  0  0  0  0  0  0
   18.2505   19.6795   20.9500 H   0  0  0  0  0  0  0  0  0  0  0  0
   18.8087   21.0238   21.9193 H   0  0  0  0  0  0  0  0  0  0  0  0
   20.3896   19.8491   21.0015 C   0  0  0  0  0  0  0  0  0  0  0  0
   20.3405   20.4172   20.0626 H   0  0  0  0  0  0  0  0  0  0  0  0
   20.5400   18.8174   20.6685 H   0  0  0  0  0  0  0  0  0  0  0  0
   21.6324   20.3653   21.7841 C   0  0  0  0  0  0  0  0  0  0  0  0
   21.7263   21.4405   21.5796 H   0  0  0  0  0  0  0  0  0  0  0  0
   22.5354   19.9070   21.3587 H   0  0  0  0  0  0  0  0  0  0  0  0
   17.3390   18.9667   23.1023 O   0  0  0  0  0  0  0  0  0  0  0  0
   17.1806   18.5003   23.9493 H   0  0  0  0  0  0  0  0  0  0  0  0
  1  2  1  0  0  0  0
  1  3  1  0  0  0  0
  1  4  1  0  0  0  0
  4  5  1  0  0  0  0
  4  6  1  0  0  0  0
  4  7  1  0  0  0  0
  7  8  1  0  0  0  0
  7  9  1  0  0  0  0
  7 10  1  0  0  0  0
 10 11  1  0  0  0  0
 10 12  1  0  0  0  0
 10 13  1  0  0  0  0
 13 14  1  0  0  0  0
 13 15  1  0  0  0  0
 15 16  1  0  0  0  0
 15 17  1  0  0  0  0
 15 18  1  0  0  0  0
 18 19  1  0  0  0  0
 18 20  1  0  0  0  0
  1 21  1  0  0  0  0
 18 21  1  0  0  0  0
 21 22  1  0  0  0  0
 21 23  1  0  0  0  0
 13 24  1  0  0  0  0
 24 25  1  0  0  0  0
M  END
> <VConfSearch Rank>
35

> <Conf_Id>
161

> <Delta U+W>
2.120

> <U+W>
13.033

> <U>
15.076

> <W>
-2.043

> <W(PB)>
-4.186

> <W(SA)>
2.143

> <Valence>
18.884

> <Coulomb>
-8.074

> <VdW>
4.266

> <VdW6>
-13.486

> <VdW12>
17.752

> <Bond>
0.713

> <Angle>
8.955

> <Pdih>
9.215

> <Idih>
0.000

> <Tether>
0.000

$$$$
VeraChem MOL file


 25 25  0  0  0  0  0  0  0  0999 V2000     
   22.1702   18.5955   22.9486 C   0  0  0  0  0  0  0  0  0  0  0  0
   23.0934   18.0161   23.0862 H   0  0  0  0  0  0  0  0  0  0  0  0
   22.4210   19.6068   23.2929 H   0  0  0  0  0  0  0  0  0  0  0  0
   21.0796   17.9817   23.8615 C   0  0  0  0  0  0  0  0  0  0  0  0
   20.5648   17.1553   23.3533 H   0  0  0  0  0  0  0  0  0  0  0  0
   21.5996   17.5201   24.7123 H   0  0  0  0  0  0  0  0  0  0  0  0
   20.0636   18.9979   24.4533 C   0  0  0  0  0  0  0  0  0  0  0  0
   20.5548   19.9464   24.7089 H   0  0  0  0  0  0  0  0  0  0  0  0
   19.7200   18.5820   25.4104 H   0  0  0  0  0  0  0  0  0  0  0  0
   18.7981   19.2472   23.5925 C   0  0  0  0  0  0  0  0  0  0  0  0
   18.5133   18.3239   23.0734 H   0  0  0  0  0  0  0  0  0  0  0  0
   17.9650   19.4553   24.2769 H   0  0  0  0  0  0  0  0  0  0  0  0
   18.8651   20.4400   22.6053 C   0  0  0  0  0  0  0  0  0  0  0  0
   18.8550   21.3675   23.1956 H   0  0  0  0  0  0  0  0  0  0  0  0
   20.0998   20.4958   21.6762 C   0  0  0  0  0  0  0  0  0  0  0  0
   19.9067   21.2396   20.8916 H   0  0  0  0  0  0  0  0  0  0  0  0
   20.9482   20.9039   22.2359 H   0  0  0  0  0  0  0  0  0  0  0  0
   20.4753   19.1471   21.0058 C   0  0  0  0  0  0  0  0  0  0  0  0
   20.4793   19.2835   19.9158 H   0  0  0  0  0  0  0  0  0  0  0  0
   19.7102   18.3846   21.1913 H   0  0  0  0  0  0  0  0  0  0  0  0
   21.8585   18.5971   21.4285 C   0  0  0  0  0  0  0  0  0  0  0  0
   22.6397   19.1784   20.9200 H   0  0  0  0  0  0  0  0  0  0  0  0
   21.9525   17.5717   21.0458 H   0  0  0  0  0  0  0  0  0  0  0  0
   17.7004   20.4023   21.7927 O   0  0  0  0  0  0  0  0  0  0  0  0
   17.8187   19.6403   21.1901 H   0  0  0  0  0  0  0  0  0  0  0  0
  1  2  1  0  0  0  0
  1  3  1  0  0  0  0
  1  4  1  0  0  0  0
  4  5  1  0  0  0  0
  4  6  1  0  0  0  0
  4  7  1  0  0  0  0
  7  8  1  0  0  0  0
  7  9  1  0  0  0  0
  7 10  1  0  0  0  0
 10 11  1  0  0  0  0
 10 12  1  0  0  0  0
 10 13  1  0  0  0  0
 13 14  1  0  0  0  0
 13 15  1  0  0  0  0
 15 16  1  0  0  0  0
 15 17  1  0  0  0  0
 15 18  1  0  0  0  0
 18 19  1  0  0  0  0
 18 20  1  0  0  0  0
  1 21  1  0  0  0  0
 18 21  1  0  0  0  0
 21 22  1  0  0  0  0
 21 23  1  0  0  0  0
 13 24  1  0  0  0  0
 24 25  1  0  0  0  0
M  END
> <VConfSearch Rank>
36

> <Conf_Id>
164

> <Delta U+W>
0.008

> <U+W>
10.922

> <U>
12.433

> <W>
-1.511

> <W(PB)>
-3.669

> <W(SA)>
2.157

> <Valence>
19.007

> <Coulomb>
-9.373

> <VdW>
2.799

> <VdW6>
-12.597

> <VdW12>
15.396

> <Bond>
0.425

> <Angle>
4.784

> <Pdih>
13.799

> <Idih>
0.000

> <Tether>
0.000

$$$$
VeraChem MOL file


 25 25  0  0  0  0  0  0  0  0999 V2000     
   19.6897   19.6297   24.2939 C   0  0  0  0  0  0  0  0  0  0  0  0
   20.7624   19.8510   24.3272 H   0  0  0  0  0  0  0  0  0  0  0  0
   19.3236   19.8852   25.2976 H   0  0  0  0  0  0  0  0  0  0  0  0
   19.4568   18.1116   24.0922 C   0  0  0  0  0  0  0  0  0  0  0  0
   19.9238   17.5918   24.9398 H   0  0  0  0  0  0  0  0  0  0  0  0
   18.3823   17.8961   24.1675 H   0  0  0  0  0  0  0  0  0  0  0  0
   20.0062   17.4794   22.7879 C   0  0  0  0  0  0  0  0  0  0  0  0
   19.3025   17.6292   21.9612 H   0  0  0  0  0  0  0  0  0  0  0  0
   20.0253   16.3913   22.9384 H   0  0  0  0  0  0  0  0  0  0  0  0
   21.4317   17.9371   22.3790 C   0  0  0  0  0  0  0  0  0  0  0  0
   21.9974   18.2860   23.2513 H   0  0  0  0  0  0  0  0  0  0  0  0
   21.9693   17.0488   22.0209 H   0  0  0  0  0  0  0  0  0  0  0  0
   21.4780   18.9841   21.2379 C   0  0  0  0  0  0  0  0  0  0  0  0
   20.8955   18.5938   20.3912 H   0  0  0  0  0  0  0  0  0  0  0  0
   20.9486   20.4005   21.5758 C   0  0  0  0  0  0  0  0  0  0  0  0
   21.4984   20.8305   22.4218 H   0  0  0  0  0  0  0  0  0  0  0  0
   21.1857   21.0443   20.7182 H   0  0  0  0  0  0  0  0  0  0  0  0
   19.4164   20.4870   21.8073 C   0  0  0  0  0  0  0  0  0  0  0  0
   18.9036   19.6631   21.2981 H   0  0  0  0  0  0  0  0  0  0  0  0
   19.0446   21.3922   21.3080 H   0  0  0  0  0  0  0  0  0  0  0  0
   18.9748   20.5693   23.2909 C   0  0  0  0  0  0  0  0  0  0  0  0
   17.8903   20.4050   23.3496 H   0  0  0  0  0  0  0  0  0  0  0  0
   19.1377   21.6005   23.6329 H   0  0  0  0  0  0  0  0  0  0  0  0
   22.8325   19.1166   20.8295 O   0  0  0  0  0  0  0  0  0  0  0  0
   23.3215   19.4646   21.6032 H   0  0  0  0  0  0  0  0  0  0  0  0
  1  2  1  0  0  0  0
  1  3  1  0  0  0  0
  1  4  1  0  0  0  0
  4  5  1  0  0  0  0
  4  6  1  0  0  0  0
  4  7  1  0  0  0  0
  7  8  1  0  0  0  0
  7  9  1  0  0  0  0
  7 10  1  0  0  0  0
 10 11  1  0  0  0  0
 10 12  1  0  0  0  0
 10 13  1  0  0  0  0
 13 14  1  0  0  0  0
 13 15  1  0  0  0  0
 15 16  1  0  0  0  0
 15 17  1  0  0  0  0
 15 18  1  0  0  0  0
 18 19  1  0  0  0  0
 18 20  1  0  0  0  0
  1 21  1  0  0  0  0
 18 21  1  0  0  0  0
 21 22  1  0  0  0  0
 21 23  1  0  0  0  0
 13 24  1  0  0  0  0
 24 25  1  0  0  0  0
M  END
> <VConfSearch Rank>
37

> <Conf_Id>
15

> <Delta U+W>
-1.271

> <U+W>
9.643

> <U>
11.413

> <W>
-1.770

> <W(PB)>
-3.908

> <W(SA)>
2.138

> <Valence>
17.496

> <Coulomb>
-8.736

> <VdW>
2.653

> <VdW6>
-12.485

> <VdW12>
15.138

> <Bond>
0.414

> <Angle>
5.295

> <Pdih>
11.787

> <Idih>
0.000

> <Tether>
0.000

$$$$
VeraChem MOL file


 25 25  0  0  0  0  0  0  0  0999 V2000     
   19.4198   20.7854   23.2722 C   0  0  0  0  0  0  0  0  0  0  0  0
   18.7335   21.6018   23.5360 H   0  0  0  0  0  0  0  0  0  0  0  0
   20.4138   21.2501   23.2562 H   0  0  0  0  0  0  0  0  0  0  0  0
   19.3270   19.7312   24.4066 C   0  0  0  0  0  0  0  0  0  0  0  0
   19.7381   20.1784   25.3219 H   0  0  0  0  0  0  0  0  0  0  0  0
   18.2681   19.5323   24.6211 H   0  0  0  0  0  0  0  0  0  0  0  0
   20.0337   18.3774   24.1557 C   0  0  0  0  0  0  0  0  0  0  0  0
   19.4119   17.7546   23.5021 H   0  0  0  0  0  0  0  0  0  0  0  0
   20.0732   17.8318   25.1084 H   0  0  0  0  0  0  0  0  0  0  0  0
   21.4744   18.5083   23.5964 C   0  0  0  0  0  0  0  0  0  0  0  0
   21.8106   19.5507   23.6221 H   0  0  0  0  0  0  0  0  0  0  0  0
   22.1578   17.9748   24.2698 H   0  0  0  0  0  0  0  0  0  0  0  0
   21.6671   17.9238   22.1781 C   0  0  0  0  0  0  0  0  0  0  0  0
   21.6605   16.8279   22.2667 H   0  0  0  0  0  0  0  0  0  0  0  0
   20.5975   18.3023   21.1212 C   0  0  0  0  0  0  0  0  0  0  0  0
   20.9706   17.9539   20.1487 H   0  0  0  0  0  0  0  0  0  0  0  0
   19.6832   17.7201   21.2875 H   0  0  0  0  0  0  0  0  0  0  0  0
   20.2428   19.8074   20.9872 C   0  0  0  0  0  0  0  0  0  0  0  0
   19.9598   19.9735   19.9387 H   0  0  0  0  0  0  0  0  0  0  0  0
   21.1253   20.4391   21.1512 H   0  0  0  0  0  0  0  0  0  0  0  0
   19.0461   20.2859   21.8547 C   0  0  0  0  0  0  0  0  0  0  0  0
   18.2604   19.5202   21.9051 H   0  0  0  0  0  0  0  0  0  0  0  0
   18.5904   21.1352   21.3273 H   0  0  0  0  0  0  0  0  0  0  0  0
   22.9397   18.3345   21.6983 O   0  0  0  0  0  0  0  0  0  0  0  0
   22.8695   19.2982   21.5446 H   0  0  0  0  0  0  0  0  0  0  0  0
  1  2  1  0  0  0  0
  1  3  1  0  0  0  0
  1  4  1  0  0  0  0
  4  5  1  0  0  0  0
  4  6  1  0  0  0  0
  4  7  1  0  0  0  0
  7  8  1  0  0  0  0
  7  9  1  0  0  0  0
  7 10  1  0  0  0  0
 10 11  1  0  0  0  0
 10 12  1  0  0  0  0
 10 13  1  0  0  0  0
 13 14  1  0  0  0  0
 13 15  1  0  0  0  0
 15 16  1  0  0  0  0
 15 17  1  0  0  0  0
 15 18  1  0  0  0  0
 18 19  1  0  0  0  0
 18 20  1  0  0  0  0
  1 21  1  0  0  0  0
 18 21  1  0  0  0  0
 21 22  1  0  0  0  0
 21 23  1  0  0  0  0
 13 24  1  0  0  0  0
 24 25  1  0  0  0  0
M  END
> <VConfSearch Rank>
38

> <Conf_Id>
115

> <Delta U+W>
0.038

> <U+W>
10.952

> <U>
12.526

> <W>
-1.575

> <W(PB)>
-3.698

> <W(SA)>
2.123

> <Valence>
19.016

> <Coulomb>
-9.226

> <VdW>
2.737

> <VdW6>
-12.612

> <VdW12>
15.349

> <Bond>
0.421

> <Angle>
4.883

> <Pdih>
13.711

> <Idih>
0.000

> <Tether>
0.000

$$$$
VeraChem MOL file


 25 25  0  0  0  0  0  0  0  0999 V2000     
   22.4449   19.0371   22.3888 C   0  0  0  0  0  0  0  0  0  0  0  0
   23.4424   19.3958   22.1001 H   0  0  0  0  0  0  0  0  0  0  0  0
   22.6162   18.1001   22.9358 H   0  0  0  0  0  0  0  0  0  0  0  0
   21.6618   18.7553   21.0853 C   0  0  0  0  0  0  0  0  0  0  0  0
   21.5966   19.6693   20.4795 H   0  0  0  0  0  0  0  0  0  0  0  0
   22.2572   18.0491   20.4906 H   0  0  0  0  0  0  0  0  0  0  0  0
   20.2554   18.1438   21.2825 C   0  0  0  0  0  0  0  0  0  0  0  0
   20.2795   17.3777   22.0690 H   0  0  0  0  0  0  0  0  0  0  0  0
   19.9987   17.6057   20.3596 H   0  0  0  0  0  0  0  0  0  0  0  0
   19.1353   19.1873   21.5404 C   0  0  0  0  0  0  0  0  0  0  0  0
   19.4762   20.2039   21.3077 H   0  0  0  0  0  0  0  0  0  0  0  0
   18.3251   18.9806   20.8280 H   0  0  0  0  0  0  0  0  0  0  0  0
   18.5372   19.1438   22.9646 C   0  0  0  0  0  0  0  0  0  0  0  0
   18.5038   18.0989   23.3047 H   0  0  0  0  0  0  0  0  0  0  0  0
   19.2999   19.9877   24.0097 C   0  0  0  0  0  0  0  0  0  0  0  0
   19.2896   21.0458   23.7164 H   0  0  0  0  0  0  0  0  0  0  0  0
   18.7390   19.9336   24.9520 H   0  0  0  0  0  0  0  0  0  0  0  0
   20.7496   19.5303   24.3029 C   0  0  0  0  0  0  0  0  0  0  0  0
   20.8007   18.4349   24.3621 H   0  0  0  0  0  0  0  0  0  0  0  0
   21.0079   19.8881   25.3091 H   0  0  0  0  0  0  0  0  0  0  0  0
   21.8122   20.0944   23.3237 C   0  0  0  0  0  0  0  0  0  0  0  0
   22.6232   20.5211   23.9298 H   0  0  0  0  0  0  0  0  0  0  0  0
   21.4146   20.9344   22.7387 H   0  0  0  0  0  0  0  0  0  0  0  0
   17.2074   19.6448   22.8990 O   0  0  0  0  0  0  0  0  0  0  0  0
   16.8277   19.5591   23.7983 H   0  0  0  0  0  0  0  0  0  0  0  0
  1  2  1  0  0  0  0
  1  3  1  0  0  0  0
  1  4  1  0  0  0  0
  4  5  1  0  0  0  0
  4  6  1  0  0  0  0
  4  7  1  0  0  0  0
  7  8  1  0  0  0  0
  7  9  1  0  0  0  0
  7 10  1  0  0  0  0
 10 11  1  0  0  0  0
 10 12  1  0  0  0  0
 10 13  1  0  0  0  0
 13 14  1  0  0  0  0
 13 15  1  0  0  0  0
 15 16  1  0  0  0  0
 15 17  1  0  0  0  0
 15 18  1  0  0  0  0
 18 19  1  0  0  0  0
 18 20  1  0  0  0  0
  1 21  1  0  0  0  0
 18 21  1  0  0  0  0
 21 22  1  0  0  0  0
 21 23  1  0  0  0  0
 13 24  1  0  0  0  0
 24 25  1  0  0  0  0
M  END
> <VConfSearch Rank>
39

> <Conf_Id>
30

> <Delta U+W>
0.000

> <U+W>
10.913

> <U>
13.140

> <W>
-2.227

> <W(PB)>
-4.367

> <W(SA)>
2.140

> <Valence>
19.155

> <Coulomb>
-8.157

> <VdW>
2.142

> <VdW6>
-11.576

> <VdW12>
13.718

> <Bond>
0.294

> <Angle>
3.547

> <Pdih>
15.314

> <Idih>
0.000

> <Tether>
0.000

$$$$
VeraChem MOL file


 25 25  0  0  0  0  0  0  0  0999 V2000     
   19.6717   17.4687   23.6648 C   0  0  0  0  0  0  0  0  0  0  0  0
   20.1775   16.7825   24.3578 H   0  0  0  0  0  0  0  0  0  0  0  0
   18.6797   17.0320   23.4860 H   0  0  0  0  0  0  0  0  0  0  0  0
   20.4479   17.4739   22.3248 C   0  0  0  0  0  0  0  0  0  0  0  0
   20.7012   16.4341   22.0766 H   0  0  0  0  0  0  0  0  0  0  0  0
   19.7831   17.7973   21.5155 H   0  0  0  0  0  0  0  0  0  0  0  0
   21.7526   18.3101   22.3433 C   0  0  0  0  0  0  0  0  0  0  0  0
   22.5889   17.6657   22.0401 H   0  0  0  0  0  0  0  0  0  0  0  0
   22.0008   18.6295   23.3621 H   0  0  0  0  0  0  0  0  0  0  0  0
   21.7283   19.5404   21.4014 C   0  0  0  0  0  0  0  0  0  0  0  0
   22.6044   20.1641   21.6232 H   0  0  0  0  0  0  0  0  0  0  0  0
   21.8612   19.1903   20.3694 H   0  0  0  0  0  0  0  0  0  0  0  0
   20.4566   20.4244   21.4375 C   0  0  0  0  0  0  0  0  0  0  0  0
   19.6245   19.8800   20.9714 H   0  0  0  0  0  0  0  0  0  0  0  0
   20.0169   20.8865   22.8483 C   0  0  0  0  0  0  0  0  0  0  0  0
   20.8917   21.0069   23.5001 H   0  0  0  0  0  0  0  0  0  0  0  0
   19.5820   21.8909   22.7584 H   0  0  0  0  0  0  0  0  0  0  0  0
   18.9401   19.9920   23.5252 C   0  0  0  0  0  0  0  0  0  0  0  0
   18.2142   19.6183   22.7904 H   0  0  0  0  0  0  0  0  0  0  0  0
   18.3643   20.6410   24.1993 H   0  0  0  0  0  0  0  0  0  0  0  0
   19.4973   18.8316   24.3864 C   0  0  0  0  0  0  0  0  0  0  0  0
   18.8004   18.6651   25.2193 H   0  0  0  0  0  0  0  0  0  0  0  0
   20.4360   19.1377   24.8656 H   0  0  0  0  0  0  0  0  0  0  0  0
   20.7250   21.5786   20.6500 O   0  0  0  0  0  0  0  0  0  0  0  0
   19.8921   22.0937   20.6110 H   0  0  0  0  0  0  0  0  0  0  0  0
  1  2  1  0  0  0  0
  1  3  1  0  0  0  0
  1  4  1  0  0  0  0
  4  5  1  0  0  0  0
  4  6  1  0  0  0  0
  4  7  1  0  0  0  0
  7  8  1  0  0  0  0
  7  9  1  0  0  0  0
  7 10  1  0  0  0  0
 10 11  1  0  0  0  0
 10 12  1  0  0  0  0
 10 13  1  0  0  0  0
 13 14  1  0  0  0  0
 13 15  1  0  0  0  0
 15 16  1  0  0  0  0
 15 17  1  0  0  0  0
 15 18  1  0  0  0  0
 18 19  1  0  0  0  0
 18 20  1  0  0  0  0
  1 21  1  0  0  0  0
 18 21  1  0  0  0  0
 21 22  1  0  0  0  0
 21 23  1  0  0  0  0
 13 24  1  0  0  0  0
 24 25  1  0  0  0  0
M  END
> <VConfSearch Rank>
40

> <Conf_Id>
162

> <Delta U+W>
0.219

> <U+W>
11.132

> <U>
13.296

> <W>
-2.164

> <W(PB)>
-4.311

> <W(SA)>
2.148

> <Valence>
18.607

> <Coulomb>
-8.339

> <VdW>
3.028

> <VdW6>
-12.271

> <VdW12>
15.299

> <Bond>
0.423

> <Angle>
4.488

> <Pdih>
13.696

> <Idih>
0.000

> <Tether>
0.000

$$$$
VeraChem MOL file


 25 25  0  0  0  0  0  0  0  0999 V2000     
   18.4597   19.8448   22.9044 C   0  0  0  0  0  0  0  0  0  0  0  0
   18.8539   20.6947   23.4758 H   0  0  0  0  0  0  0  0  0  0  0  0
   17.3746   20.0120   22.8672 H   0  0  0  0  0  0  0  0  0  0  0  0
   19.0001   19.8873   21.4533 C   0  0  0  0  0  0  0  0  0  0  0  0
   18.9223   18.8996   20.9792 H   0  0  0  0  0  0  0  0  0  0  0  0
   18.3249   20.5382   20.8810 H   0  0  0  0  0  0  0  0  0  0  0  0
   20.4307   20.4742   21.2967 C   0  0  0  0  0  0  0  0  0  0  0  0
   20.5969   21.3061   21.9941 H   0  0  0  0  0  0  0  0  0  0  0  0
   20.4822   20.9211   20.2943 H   0  0  0  0  0  0  0  0  0  0  0  0
   21.5833   19.4404   21.3864 C   0  0  0  0  0  0  0  0  0  0  0  0
   21.2589   18.4808   20.9654 H   0  0  0  0  0  0  0  0  0  0  0  0
   22.3909   19.7805   20.7251 H   0  0  0  0  0  0  0  0  0  0  0  0
   22.2161   19.2352   22.7859 C   0  0  0  0  0  0  0  0  0  0  0  0
   22.7893   20.1407   23.0321 H   0  0  0  0  0  0  0  0  0  0  0  0
   21.2317   18.9827   23.9526 C   0  0  0  0  0  0  0  0  0  0  0  0
   21.8046   18.6478   24.8270 H   0  0  0  0  0  0  0  0  0  0  0  0
   20.7952   19.9382   24.2626 H   0  0  0  0  0  0  0  0  0  0  0  0
   20.1233   17.9391   23.6533 C   0  0  0  0  0  0  0  0  0  0  0  0
   20.1821   17.1370   24.4014 H   0  0  0  0  0  0  0  0  0  0  0  0
   20.3044   17.4397   22.6942 H   0  0  0  0  0  0  0  0  0  0  0  0
   18.6872   18.5163   23.6735 C   0  0  0  0  0  0  0  0  0  0  0  0
   18.3842   18.6703   24.7181 H   0  0  0  0  0  0  0  0  0  0  0  0
   18.0049   17.7536   23.2740 H   0  0  0  0  0  0  0  0  0  0  0  0
   23.1105   18.1320   22.7009 O   0  0  0  0  0  0  0  0  0  0  0  0
   23.4988   18.0148   23.5923 H   0  0  0  0  0  0  0  0  0  0  0  0
  1  2  1  0  0  0  0
  1  3  1  0  0  0  0
  1  4  1  0  0  0  0
  4  5  1  0  0  0  0
  4  6  1  0  0  0  0
  4  7  1  0  0  0  0
  7  8  1  0  0  0  0
  7  9  1  0  0  0  0
  7 10  1  0  0  0  0
 10 11  1  0  0  0  0
 10 12  1  0  0  0  0
 10 13  1  0  0  0  0
 13 14  1  0  0  0  0
 13 15  1  0  0  0  0
 15 16  1  0  0  0  0
 15 17  1  0  0  0  0
 15 18  1  0  0  0  0
 18 19  1  0  0  0  0
 18 20  1  0  0  0  0
  1 21  1  0  0  0  0
 18 21  1  0  0  0  0
 21 22  1  0  0  0  0
 21 23  1  0  0  0  0
 13 24  1  0  0  0  0
 24 25  1  0  0  0  0
M  END
> <VConfSearch Rank>
41

> <Conf_Id>
155

> <Delta U+W>
0.339

> <U+W>
11.252

> <U>
13.420

> <W>
-2.167

> <W(PB)>
-4.325

> <W(SA)>
2.157

> <Valence>
18.609

> <Coulomb>
-8.052

> <VdW>
2.863

> <VdW6>
-12.524

> <VdW12>
15.387

> <Bond>
0.430

> <Angle>
4.724

> <Pdih>
13.455

> <Idih>
0.000

> <Tether>
0.000

$$$$
VeraChem MOL file


 25 25  0  0  0  0  0  0  0  0999 V2000     
   18.8200   17.9444   22.9057 C   0  0  0  0  0  0  0  0  0  0  0  0
   19.0091   17.1310   23.6191 H   0  0  0  0  0  0  0  0  0  0  0  0
   17.7932   17.7871   22.5485 H   0  0  0  0  0  0  0  0  0  0  0  0
   18.8320   19.2996   23.6607 C   0  0  0  0  0  0  0  0  0  0  0  0
   18.5289   20.0978   22.9758 H   0  0  0  0  0  0  0  0  0  0  0  0
   18.0205   19.2743   24.4007 H   0  0  0  0  0  0  0  0  0  0  0  0
   20.1329   19.6880   24.4222 C   0  0  0  0  0  0  0  0  0  0  0  0
   20.0771   19.2348   25.4213 H   0  0  0  0  0  0  0  0  0  0  0  0
   20.1356   20.7734   24.5918 H   0  0  0  0  0  0  0  0  0  0  0  0
   21.4955   19.2660   23.8080 C   0  0  0  0  0  0  0  0  0  0  0  0
   22.2740   19.4981   24.5465 H   0  0  0  0  0  0  0  0  0  0  0  0
   21.5361   18.1755   23.7390 H   0  0  0  0  0  0  0  0  0  0  0  0
   21.9166   19.9091   22.4540 C   0  0  0  0  0  0  0  0  0  0  0  0
   22.6382   19.2337   21.9725 H   0  0  0  0  0  0  0  0  0  0  0  0
   20.7992   20.2221   21.4273 C   0  0  0  0  0  0  0  0  0  0  0  0
   20.1032   20.9433   21.8655 H   0  0  0  0  0  0  0  0  0  0  0  0
   21.2588   20.7766   20.5985 H   0  0  0  0  0  0  0  0  0  0  0  0
   20.0304   19.0213   20.7984 C   0  0  0  0  0  0  0  0  0  0  0  0
   20.6075   18.6812   19.9277 H   0  0  0  0  0  0  0  0  0  0  0  0
   19.0761   19.3838   20.3933 H   0  0  0  0  0  0  0  0  0  0  0  0
   19.7685   17.7740   21.6828 C   0  0  0  0  0  0  0  0  0  0  0  0
   20.7248   17.3386   21.9894 H   0  0  0  0  0  0  0  0  0  0  0  0
   19.3289   16.9990   21.0402 H   0  0  0  0  0  0  0  0  0  0  0  0
   22.5716   21.1399   22.7409 O   0  0  0  0  0  0  0  0  0  0  0  0
   23.3100   20.9323   23.3498 H   0  0  0  0  0  0  0  0  0  0  0  0
  1  2  1  0  0  0  0
  1  3  1  0  0  0  0
  1  4  1  0  0  0  0
  4  5  1  0  0  0  0
  4  6  1  0  0  0  0
  4  7  1  0  0  0  0
  7  8  1  0  0  0  0
  7  9  1  0  0  0  0
  7 10  1  0  0  0  0
 10 11  1  0  0  0  0
 10 12  1  0  0  0  0
 10 13  1  0  0  0  0
 13 14  1  0  0  0  0
 13 15  1  0  0  0  0
 15 16  1  0  0  0  0
 15 17  1  0  0  0  0
 15 18  1  0  0  0  0
 18 19  1  0  0  0  0
 18 20  1  0  0  0  0
  1 21  1  0  0  0  0
 18 21  1  0  0  0  0
 21 22  1  0  0  0  0
 21 23  1  0  0  0  0
 13 24  1  0  0  0  0
 24 25  1  0  0  0  0
M  END
> <VConfSearch Rank>
42

> <Conf_Id>
146

> <Delta U+W>
2.553

> <U+W>
13.466

> <U>
15.643

> <W>
-2.176

> <W(PB)>
-4.307

> <W(SA)>
2.131

> <Valence>
18.916

> <Coulomb>
-7.506

> <VdW>
4.232

> <VdW6>
-13.632

> <VdW12>
17.864

> <Bond>
0.735

> <Angle>
9.140

> <Pdih>
9.042

> <Idih>
0.000

> <Tether>
0.000

$$$$
VeraChem MOL file


 25 25  0  0  0  0  0  0  0  0999 V2000     
   19.2528   20.6463   23.7651 C   0  0  0  0  0  0  0  0  0  0  0  0
   18.2074   20.4921   24.0648 H   0  0  0  0  0  0  0  0  0  0  0  0
   19.5339   21.6296   24.1663 H   0  0  0  0  0  0  0  0  0  0  0  0
   19.3339   20.7367   22.2206 C   0  0  0  0  0  0  0  0  0  0  0  0
   18.7226   21.5958   21.9120 H   0  0  0  0  0  0  0  0  0  0  0  0
   20.3515   20.9958   21.9068 H   0  0  0  0  0  0  0  0  0  0  0  0
   18.8208   19.5026   21.4370 C   0  0  0  0  0  0  0  0  0  0  0  0
   18.8321   19.7608   20.3692 H   0  0  0  0  0  0  0  0  0  0  0  0
   17.7666   19.3248   21.6892 H   0  0  0  0  0  0  0  0  0  0  0  0
   19.6108   18.1796   21.6133 C   0  0  0  0  0  0  0  0  0  0  0  0
   19.3010   17.6710   22.5317 H   0  0  0  0  0  0  0  0  0  0  0  0
   19.2944   17.5048   20.8063 H   0  0  0  0  0  0  0  0  0  0  0  0
   21.1541   18.3245   21.5762 C   0  0  0  0  0  0  0  0  0  0  0  0
   21.4236   19.2683   21.0834 H   0  0  0  0  0  0  0  0  0  0  0  0
   21.8303   18.2614   22.9692 C   0  0  0  0  0  0  0  0  0  0  0  0
   21.5326   17.3322   23.4727 H   0  0  0  0  0  0  0  0  0  0  0  0
   22.9146   18.1815   22.8163 H   0  0  0  0  0  0  0  0  0  0  0  0
   21.5863   19.4625   23.9229 C   0  0  0  0  0  0  0  0  0  0  0  0
   21.9126   20.4018   23.4582 H   0  0  0  0  0  0  0  0  0  0  0  0
   22.2501   19.3251   24.7875 H   0  0  0  0  0  0  0  0  0  0  0  0
   20.1376   19.5811   24.4628 C   0  0  0  0  0  0  0  0  0  0  0  0
   20.1905   19.8525   25.5261 H   0  0  0  0  0  0  0  0  0  0  0  0
   19.6429   18.6033   24.4558 H   0  0  0  0  0  0  0  0  0  0  0  0
   21.6802   17.2527   20.8016 O   0  0  0  0  0  0  0  0  0  0  0  0
   22.6478   17.3952   20.7411 H   0  0  0  0  0  0  0  0  0  0  0  0
  1  2  1  0  0  0  0
  1  3  1  0  0  0  0
  1  4  1  0  0  0  0
  4  5  1  0  0  0  0
  4  6  1  0  0  0  0
  4  7  1  0  0  0  0
  7  8  1  0  0  0  0
  7  9  1  0  0  0  0
  7 10  1  0  0  0  0
 10 11  1  0  0  0  0
 10 12  1  0  0  0  0
 10 13  1  0  0  0  0
 13 14  1  0  0  0  0
 13 15  1  0  0  0  0
 15 16  1  0  0  0  0
 15 17  1  0  0  0  0
 15 18  1  0  0  0  0
 18 19  1  0  0  0  0
 18 20  1  0  0  0  0
  1 21  1  0  0  0  0
 18 21  1  0  0  0  0
 21 22  1  0  0  0  0
 21 23  1  0  0  0  0
 13 24  1  0  0  0  0
 24 25  1  0  0  0  0
M  END
> <VConfSearch Rank>
43

> <Conf_Id>
62

> <Delta U+W>
-1.779

> <U+W>
9.134

> <U>
11.364

> <W>
-2.230

> <W(PB)>
-4.359

> <W(SA)>
2.129

> <Valence>
16.582

> <Coulomb>
-8.150

> <VdW>
2.933

> <VdW6>
-12.531

> <VdW12>
15.464

> <Bond>
0.439

> <Angle>
5.099

> <Pdih>
11.044

> <Idih>
0.000

> <Tether>
0.000

$$$$
VeraChem MOL file


 25 25  0  0  0  0  0  0  0  0999 V2000     
   19.7359   18.8675   20.9438 C   0  0  0  0  0  0  0  0  0  0  0  0
   20.4377   18.0476   21.1349 H   0  0  0  0  0  0  0  0  0  0  0  0
   19.3748   18.6897   19.9217 H   0  0  0  0  0  0  0  0  0  0  0  0
   20.4807   20.2258   20.9389 C   0  0  0  0  0  0  0  0  0  0  0  0
   21.2382   20.1827   20.1444 H   0  0  0  0  0  0  0  0  0  0  0  0
   19.7834   21.0208   20.6415 H   0  0  0  0  0  0  0  0  0  0  0  0
   21.1928   20.6459   22.2500 C   0  0  0  0  0  0  0  0  0  0  0  0
   20.4819   21.1121   22.9416 H   0  0  0  0  0  0  0  0  0  0  0  0
   21.8944   21.4514   21.9934 H   0  0  0  0  0  0  0  0  0  0  0  0
   21.9876   19.5194   22.9632 C   0  0  0  0  0  0  0  0  0  0  0  0
   22.2798   18.7338   22.2555 H   0  0  0  0  0  0  0  0  0  0  0  0
   22.9309   19.9594   23.3124 H   0  0  0  0  0  0  0  0  0  0  0  0
   21.2813   18.9031   24.1972 C   0  0  0  0  0  0  0  0  0  0  0  0
   20.9983   19.7203   24.8761 H   0  0  0  0  0  0  0  0  0  0  0  0
   20.0173   18.0532   23.9140 C   0  0  0  0  0  0  0  0  0  0  0  0
   20.2549   17.2251   23.2354 H   0  0  0  0  0  0  0  0  0  0  0  0
   19.7336   17.5768   24.8618 H   0  0  0  0  0  0  0  0  0  0  0  0
   18.7866   18.8548   23.4117 C   0  0  0  0  0  0  0  0  0  0  0  0
   18.8548   19.9018   23.7281 H   0  0  0  0  0  0  0  0  0  0  0  0
   17.8945   18.4704   23.9249 H   0  0  0  0  0  0  0  0  0  0  0  0
   18.5129   18.7628   21.8887 C   0  0  0  0  0  0  0  0  0  0  0  0
   17.7741   19.5272   21.6124 H   0  0  0  0  0  0  0  0  0  0  0  0
   18.0280   17.7967   21.6928 H   0  0  0  0  0  0  0  0  0  0  0  0
   22.2209   18.0649   24.8582 O   0  0  0  0  0  0  0  0  0  0  0  0
   22.9872   18.6287   25.0930 H   0  0  0  0  0  0  0  0  0  0  0  0
  1  2  1  0  0  0  0
  1  3  1  0  0  0  0
  1  4  1  0  0  0  0
  4  5  1  0  0  0  0
  4  6  1  0  0  0  0
  4  7  1  0  0  0  0
  7  8  1  0  0  0  0
  7  9  1  0  0  0  0
  7 10  1  0  0  0  0
 10 11  1  0  0  0  0
 10 12  1  0  0  0  0
 10 13  1  0  0  0  0
 13 14  1  0  0  0  0
 13 15  1  0  0  0  0
 15 16  1  0  0  0  0
 15 17  1  0  0  0  0
 15 18  1  0  0  0  0
 18 19  1  0  0  0  0
 18 20  1  0  0  0  0
  1 21  1  0  0  0  0
 18 21  1  0  0  0  0
 21 22  1  0  0  0  0
 21 23  1  0  0  0  0
 13 24  1  0  0  0  0
 24 25  1  0  0  0  0
M  END
> <VConfSearch Rank>
44

> <Conf_Id>
121

> <Delta U+W>
-1.283

> <U+W>
9.630

> <U>
11.876

> <W>
-2.246

> <W(PB)>
-4.376

> <W(SA)>
2.130

> <Valence>
17.153

> <Coulomb>
-7.966

> <VdW>
2.689

> <VdW6>
-12.458

> <VdW12>
15.147

> <Bond>
0.421

> <Angle>
5.258

> <Pdih>
11.475

> <Idih>
0.000

> <Tether>
0.000

$$$$
VeraChem MOL file


 25 25  0  0  0  0  0  0  0  0999 V2000     
   18.7968   19.9212   23.4762 C   0  0  0  0  0  0  0  0  0  0  0  0
   18.7514   18.8410   23.6558 H   0  0  0  0  0  0  0  0  0  0  0  0
   17.8979   20.3208   23.9650 H   0  0  0  0  0  0  0  0  0  0  0  0
   18.6698   20.2227   21.9621 C   0  0  0  0  0  0  0  0  0  0  0  0
   17.7022   19.8242   21.6277 H   0  0  0  0  0  0  0  0  0  0  0  0
   18.6113   21.3092   21.8119 H   0  0  0  0  0  0  0  0  0  0  0  0
   19.7669   19.6445   21.0320 C   0  0  0  0  0  0  0  0  0  0  0  0
   20.6451   20.2998   21.0188 H   0  0  0  0  0  0  0  0  0  0  0  0
   19.3770   19.6873   20.0057 H   0  0  0  0  0  0  0  0  0  0  0  0
   20.1852   18.1797   21.3304 C   0  0  0  0  0  0  0  0  0  0  0  0
   19.3849   17.6365   21.8475 H   0  0  0  0  0  0  0  0  0  0  0  0
   20.3030   17.6694   20.3653 H   0  0  0  0  0  0  0  0  0  0  0  0
   21.5263   18.0234   22.0899 C   0  0  0  0  0  0  0  0  0  0  0  0
   22.2969   18.5838   21.5411 H   0  0  0  0  0  0  0  0  0  0  0  0
   21.5413   18.4954   23.5658 C   0  0  0  0  0  0  0  0  0  0  0  0
   20.7782   17.9633   24.1471 H   0  0  0  0  0  0  0  0  0  0  0  0
   22.5019   18.1863   23.9981 H   0  0  0  0  0  0  0  0  0  0  0  0
   21.4231   20.0306   23.7623 C   0  0  0  0  0  0  0  0  0  0  0  0
   21.7640   20.5605   22.8657 H   0  0  0  0  0  0  0  0  0  0  0  0
   22.1323   20.3319   24.5455 H   0  0  0  0  0  0  0  0  0  0  0  0
   20.0233   20.5371   24.1945 C   0  0  0  0  0  0  0  0  0  0  0  0
   19.9926   21.6303   24.0922 H   0  0  0  0  0  0  0  0  0  0  0  0
   19.9105   20.3361   25.2687 H   0  0  0  0  0  0  0  0  0  0  0  0
   21.8679   16.6430   22.0749 O   0  0  0  0  0  0  0  0  0  0  0  0
   22.7487   16.5647   22.4969 H   0  0  0  0  0  0  0  0  0  0  0  0
  1  2  1  0  0  0  0
  1  3  1  0  0  0  0
  1  4  1  0  0  0  0
  4  5  1  0  0  0  0
  4  6  1  0  0  0  0
  4  7  1  0  0  0  0
  7  8  1  0  0  0  0
  7  9  1  0  0  0  0
  7 10  1  0  0  0  0
 10 11  1  0  0  0  0
 10 12  1  0  0  0  0
 10 13  1  0  0  0  0
 13 14  1  0  0  0  0
 13 15  1  0  0  0  0
 15 16  1  0  0  0  0
 15 17  1  0  0  0  0
 15 18  1  0  0  0  0
 18 19  1  0  0  0  0
 18 20  1  0  0  0  0
  1 21  1  0  0  0  0
 18 21  1  0  0  0  0
 21 22  1  0  0  0  0
 21 23  1  0  0  0  0
 13 24  1  0  0  0  0
 24 25  1  0  0  0  0
M  END
> <VConfSearch Rank>
45

> <Conf_Id>
24

> <Delta U+W>
-1.236

> <U+W>
9.678

> <U>
11.876

> <W>
-2.199

> <W(PB)>
-4.335

> <W(SA)>
2.137

> <Valence>
17.153

> <Coulomb>
-7.966

> <VdW>
2.689

> <VdW6>
-12.458

> <VdW12>
15.147

> <Bond>
0.421

> <Angle>
5.258

> <Pdih>
11.475

> <Idih>
0.000

> <Tether>
0.000

$$$$
VeraChem MOL file


 25 25  0  0  0  0  0  0  0  0999 V2000     
   18.8185   19.0651   21.0612 C   0  0  0  0  0  0  0  0  0  0  0  0
   18.2074   19.9200   20.7410 H   0  0  0  0  0  0  0  0  0  0  0  0
   18.4734   18.2120   20.4612 H   0  0  0  0  0  0  0  0  0  0  0  0
   20.3001   19.3408   20.6909 C   0  0  0  0  0  0  0  0  0  0  0  0
   20.8780   18.4079   20.6888 H   0  0  0  0  0  0  0  0  0  0  0  0
   20.3107   19.6780   19.6453 H   0  0  0  0  0  0  0  0  0  0  0  0
   21.0259   20.4110   21.5433 C   0  0  0  0  0  0  0  0  0  0  0  0
   20.3325   21.2096   21.8398 H   0  0  0  0  0  0  0  0  0  0  0  0
   21.7632   20.8944   20.8877 H   0  0  0  0  0  0  0  0  0  0  0  0
   21.8063   19.8603   22.7704 C   0  0  0  0  0  0  0  0  0  0  0  0
   22.2643   18.8902   22.5386 H   0  0  0  0  0  0  0  0  0  0  0  0
   22.6452   20.5484   22.9425 H   0  0  0  0  0  0  0  0  0  0  0  0
   20.9878   19.7753   24.0818 C   0  0  0  0  0  0  0  0  0  0  0  0
   20.2113   20.5514   24.0593 H   0  0  0  0  0  0  0  0  0  0  0  0
   20.3301   18.4011   24.3663 C   0  0  0  0  0  0  0  0  0  0  0  0
   21.1059   17.6774   24.6489 H   0  0  0  0  0  0  0  0  0  0  0  0
   19.6885   18.5163   25.2498 H   0  0  0  0  0  0  0  0  0  0  0  0
   19.4834   17.7814   23.2262 C   0  0  0  0  0  0  0  0  0  0  0  0
   18.9027   16.9493   23.6470 H   0  0  0  0  0  0  0  0  0  0  0  0
   20.1443   17.3149   22.4865 H   0  0  0  0  0  0  0  0  0  0  0  0
   18.5072   18.7772   22.5504 C   0  0  0  0  0  0  0  0  0  0  0  0
   18.4587   19.7212   23.1055 H   0  0  0  0  0  0  0  0  0  0  0  0
   17.4898   18.3670   22.6106 H   0  0  0  0  0  0  0  0  0  0  0  0
   21.8569   20.0598   25.1706 O   0  0  0  0  0  0  0  0  0  0  0  0
   22.5509   19.3690   25.1588 H   0  0  0  0  0  0  0  0  0  0  0  0
  1  2  1  0  0  0  0
  1  3  1  0  0  0  0
  1  4  1  0  0  0  0
  4  5  1  0  0  0  0
  4  6  1  0  0  0  0
  4  7  1  0  0  0  0
  7  8  1  0  0  0  0
  7  9  1  0  0  0  0
  7 10  1  0  0  0  0
 10 11  1  0  0  0  0
 10 12  1  0  0  0  0
 10 13  1  0  0  0  0
 13 14  1  0  0  0  0
 13 15  1  0  0  0  0
 15 16  1  0  0  0  0
 15 17  1  0  0  0  0
 15 18  1  0  0  0  0
 18 19  1  0  0  0  0
 18 20  1  0  0  0  0
  1 21  1  0  0  0  0
 18 21  1  0  0  0  0
 21 22  1  0  0  0  0
 21 23  1  0  0  0  0
 13 24  1  0  0  0  0
 24 25  1  0  0  0  0
M  END
> <VConfSearch Rank>
46

> <Conf_Id>
167

> <Delta U+W>
0.388

> <U+W>
11.301

> <U>
13.202

> <W>
-1.901

> <W(PB)>
-4.065

> <W(SA)>
2.163

> <Valence>
18.957

> <Coulomb>
-8.753

> <VdW>
2.998

> <VdW6>
-12.294

> <VdW12>
15.292

> <Bond>
0.419

> <Angle>
4.543

> <Pdih>
13.996

> <Idih>
0.000

> <Tether>
0.000

$$$$
VeraChem MOL file


 25 25  0  0  0  0  0  0  0  0999 V2000     
   20.2870   19.9196   20.7083 C   0  0  0  0  0  0  0  0  0  0  0  0
   20.8852   19.4333   19.9259 H   0  0  0  0  0  0  0  0  0  0  0  0
   19.7403   20.7277   20.2033 H   0  0  0  0  0  0  0  0  0  0  0  0
   21.2442   20.5708   21.7402 C   0  0  0  0  0  0  0  0  0  0  0  0
   22.0960   19.9130   21.9461 H   0  0  0  0  0  0  0  0  0  0  0  0
   21.6900   21.4502   21.2555 H   0  0  0  0  0  0  0  0  0  0  0  0
   20.5823   21.0346   23.0637 C   0  0  0  0  0  0  0  0  0  0  0  0
   19.5154   21.2475   22.9180 H   0  0  0  0  0  0  0  0  0  0  0  0
   21.0321   21.9987   23.3377 H   0  0  0  0  0  0  0  0  0  0  0  0
   20.7935   20.0777   24.2687 C   0  0  0  0  0  0  0  0  0  0  0  0
   21.8683   19.9126   24.4197 H   0  0  0  0  0  0  0  0  0  0  0  0
   20.4447   20.5995   25.1698 H   0  0  0  0  0  0  0  0  0  0  0  0
   20.0710   18.7088   24.2101 C   0  0  0  0  0  0  0  0  0  0  0  0
   19.0011   18.8749   24.0262 H   0  0  0  0  0  0  0  0  0  0  0  0
   20.6419   17.7367   23.1453 C   0  0  0  0  0  0  0  0  0  0  0  0
   21.6700   18.0158   22.8934 H   0  0  0  0  0  0  0  0  0  0  0  0
   20.7314   16.7312   23.5778 H   0  0  0  0  0  0  0  0  0  0  0  0
   19.7915   17.6050   21.8552 C   0  0  0  0  0  0  0  0  0  0  0  0
   18.9348   16.9552   22.0804 H   0  0  0  0  0  0  0  0  0  0  0  0
   20.3778   17.0717   21.0948 H   0  0  0  0  0  0  0  0  0  0  0  0
   19.2354   18.9164   21.2455 C   0  0  0  0  0  0  0  0  0  0  0  0
   18.5606   19.4139   21.9514 H   0  0  0  0  0  0  0  0  0  0  0  0
   18.5922   18.6353   20.4005 H   0  0  0  0  0  0  0  0  0  0  0  0
   20.2116   18.1008   25.4887 O   0  0  0  0  0  0  0  0  0  0  0  0
   19.6937   17.2692   25.4625 H   0  0  0  0  0  0  0  0  0  0  0  0
  1  2  1  0  0  0  0
  1  3  1  0  0  0  0
  1  4  1  0  0  0  0
  4  5  1  0  0  0  0
  4  6  1  0  0  0  0
  4  7  1  0  0  0  0
  7  8  1  0  0  0  0
  7  9  1  0  0  0  0
  7 10  1  0  0  0  0
 10 11  1  0  0  0  0
 10 12  1  0  0  0  0
 10 13  1  0  0  0  0
 13 14  1  0  0  0  0
 13 15  1  0  0  0  0
 15 16  1  0  0  0  0
 15 17  1  0  0  0  0
 15 18  1  0  0  0  0
 18 19  1  0  0  0  0
 18 20  1  0  0  0  0
  1 21  1  0  0  0  0
 18 21  1  0  0  0  0
 21 22  1  0  0  0  0
 21 23  1  0  0  0  0
 13 24  1  0  0  0  0
 24 25  1  0  0  0  0
M  END
> <VConfSearch Rank>
47

> <Conf_Id>
60

> <Delta U+W>
-1.838

> <U+W>
9.075

> <U>
11.150

> <W>
-2.074

> <W(PB)>
-4.196

> <W(SA)>
2.121

> <Valence>
16.582

> <Coulomb>
-8.361

> <VdW>
2.928

> <VdW6>
-12.539

> <VdW12>
15.467

> <Bond>
0.441

> <Angle>
5.093

> <Pdih>
11.049

> <Idih>
0.000

> <Tether>
0.000

$$$$
VeraChem MOL file


 25 25  0  0  0  0  0  0  0  0999 V2000     
   20.7508   17.2633   22.0482 C   0  0  0  0  0  0  0  0  0  0  0  0
   21.7180   16.7945   22.2747 H   0  0  0  0  0  0  0  0  0  0  0  0
   20.1908   16.5194   21.4652 H   0  0  0  0  0  0  0  0  0  0  0  0
   20.9800   18.4910   21.1313 C   0  0  0  0  0  0  0  0  0  0  0  0
   21.4458   18.1242   20.2065 H   0  0  0  0  0  0  0  0  0  0  0  0
   20.0199   18.9096   20.8085 H   0  0  0  0  0  0  0  0  0  0  0  0
   21.8972   19.6044   21.6970 C   0  0  0  0  0  0  0  0  0  0  0  0
   22.0560   20.3407   20.8973 H   0  0  0  0  0  0  0  0  0  0  0  0
   22.8879   19.1825   21.9142 H   0  0  0  0  0  0  0  0  0  0  0  0
   21.3880   20.3635   22.9497 C   0  0  0  0  0  0  0  0  0  0  0  0
   21.5936   19.7816   23.8538 H   0  0  0  0  0  0  0  0  0  0  0  0
   22.0094   21.2624   23.0580 H   0  0  0  0  0  0  0  0  0  0  0  0
   19.8924   20.7708   22.9061 C   0  0  0  0  0  0  0  0  0  0  0  0
   19.5348   20.7622   21.8677 H   0  0  0  0  0  0  0  0  0  0  0  0
   18.9677   19.8753   23.7677 C   0  0  0  0  0  0  0  0  0  0  0  0
   19.3425   19.8562   24.7994 H   0  0  0  0  0  0  0  0  0  0  0  0
   17.9854   20.3633   23.8187 H   0  0  0  0  0  0  0  0  0  0  0  0
   18.7412   18.4203   23.2736 C   0  0  0  0  0  0  0  0  0  0  0  0
   18.3274   18.4144   22.2571 H   0  0  0  0  0  0  0  0  0  0  0  0
   17.9547   17.9862   23.9059 H   0  0  0  0  0  0  0  0  0  0  0  0
   19.9833   17.4974   23.3754 C   0  0  0  0  0  0  0  0  0  0  0  0
   19.6487   16.5134   23.7316 H   0  0  0  0  0  0  0  0  0  0  0  0
   20.6634   17.8527   24.1577 H   0  0  0  0  0  0  0  0  0  0  0  0
   19.7781   22.0990   23.4030 O   0  0  0  0  0  0  0  0  0  0  0  0
   20.3117   22.6677   22.8093 H   0  0  0  0  0  0  0  0  0  0  0  0
  1  2  1  0  0  0  0
  1  3  1  0  0  0  0
  1  4  1  0  0  0  0
  4  5  1  0  0  0  0
  4  6  1  0  0  0  0
  4  7  1  0  0  0  0
  7  8  1  0  0  0  0
  7  9  1  0  0  0  0
  7 10  1  0  0  0  0
 10 11  1  0  0  0  0
 10 12  1  0  0  0  0
 10 13  1  0  0  0  0
 13 14  1  0  0  0  0
 13 15  1  0  0  0  0
 15 16  1  0  0  0  0
 15 17  1  0  0  0  0
 15 18  1  0  0  0  0
 18 19  1  0  0  0  0
 18 20  1  0  0  0  0
  1 21  1  0  0  0  0
 18 21  1  0  0  0  0
 21 22  1  0  0  0  0
 21 23  1  0  0  0  0
 13 24  1  0  0  0  0
 24 25  1  0  0  0  0
M  END
> <VConfSearch Rank>
48

> <Conf_Id>
129

> <Delta U+W>
-1.846

> <U+W>
9.067

> <U>
11.150

> <W>
-2.083

> <W(PB)>
-4.217

> <W(SA)>
2.134

> <Valence>
16.583

> <Coulomb>
-8.361

> <VdW>
2.928

> <VdW6>
-12.539

> <VdW12>
15.467

> <Bond>
0.441

> <Angle>
5.093

> <Pdih>
11.049

> <Idih>
0.000

> <Tether>
0.000

$$$$
VeraChem MOL file


 25 25  0  0  0  0  0  0  0  0999 V2000     
   21.4521   18.7672   21.0224 C   0  0  0  0  0  0  0  0  0  0  0  0
   21.2845   17.8532   20.4366 H   0  0  0  0  0  0  0  0  0  0  0  0
   22.2980   19.2766   20.5409 H   0  0  0  0  0  0  0  0  0  0  0  0
   21.8994   18.3819   22.4547 C   0  0  0  0  0  0  0  0  0  0  0  0
   22.8375   17.8177   22.3622 H   0  0  0  0  0  0  0  0  0  0  0  0
   22.1722   19.2783   23.0232 H   0  0  0  0  0  0  0  0  0  0  0  0
   20.9133   17.5035   23.2648 C   0  0  0  0  0  0  0  0  0  0  0  0
   21.4149   17.2205   24.2004 H   0  0  0  0  0  0  0  0  0  0  0  0
   20.7372   16.5631   22.7252 H   0  0  0  0  0  0  0  0  0  0  0  0
   19.5461   18.1368   23.6325 C   0  0  0  0  0  0  0  0  0  0  0  0
   18.8551   18.0608   22.7868 H   0  0  0  0  0  0  0  0  0  0  0  0
   19.1004   17.5044   24.4122 H   0  0  0  0  0  0  0  0  0  0  0  0
   19.6160   19.6005   24.1397 C   0  0  0  0  0  0  0  0  0  0  0  0
   20.6332   19.8232   24.4884 H   0  0  0  0  0  0  0  0  0  0  0  0
   19.1928   20.6590   23.0902 C   0  0  0  0  0  0  0  0  0  0  0  0
   18.1879   20.4221   22.7168 H   0  0  0  0  0  0  0  0  0  0  0  0
   19.0987   21.6229   23.6081 H   0  0  0  0  0  0  0  0  0  0  0  0
   20.1476   20.8714   21.8843 C   0  0  0  0  0  0  0  0  0  0  0  0
   21.1517   21.1524   22.2272 H   0  0  0  0  0  0  0  0  0  0  0  0
   19.7779   21.7468   21.3330 H   0  0  0  0  0  0  0  0  0  0  0  0
   20.2096   19.6851   20.8876 C   0  0  0  0  0  0  0  0  0  0  0  0
   20.2213   20.0956   19.8685 H   0  0  0  0  0  0  0  0  0  0  0  0
   19.2871   19.0955   20.9328 H   0  0  0  0  0  0  0  0  0  0  0  0
   18.7345   19.7292   25.2481 O   0  0  0  0  0  0  0  0  0  0  0  0
   17.8365   19.5305   24.9118 H   0  0  0  0  0  0  0  0  0  0  0  0
  1  2  1  0  0  0  0
  1  3  1  0  0  0  0
  1  4  1  0  0  0  0
  4  5  1  0  0  0  0
  4  6  1  0  0  0  0
  4  7  1  0  0  0  0
  7  8  1  0  0  0  0
  7  9  1  0  0  0  0
  7 10  1  0  0  0  0
 10 11  1  0  0  0  0
 10 12  1  0  0  0  0
 10 13  1  0  0  0  0
 13 14  1  0  0  0  0
 13 15  1  0  0  0  0
 15 16  1  0  0  0  0
 15 17  1  0  0  0  0
 15 18  1  0  0  0  0
 18 19  1  0  0  0  0
 18 20  1  0  0  0  0
  1 21  1  0  0  0  0
 18 21  1  0  0  0  0
 21 22  1  0  0  0  0
 21 23  1  0  0  0  0
 13 24  1  0  0  0  0
 24 25  1  0  0  0  0
M  END
> <VConfSearch Rank>
49

> <Conf_Id>
140

> <Delta U+W>
-1.702

> <U+W>
9.211

> <U>
11.181

> <W>
-1.969

> <W(PB)>
-4.093

> <W(SA)>
2.124

> <Valence>
16.954

> <Coulomb>
-8.661

> <VdW>
2.887

> <VdW6>
-12.561

> <VdW12>
15.448

> <Bond>
0.433

> <Angle>
5.120

> <Pdih>
11.401

> <Idih>
0.000

> <Tether>
0.000

$$$$
VeraChem MOL file


 25 25  0  0  0  0  0  0  0  0999 V2000     
   18.5351   19.4261   21.5766 C   0  0  0  0  0  0  0  0  0  0  0  0
   17.9590   20.3588   21.6450 H   0  0  0  0  0  0  0  0  0  0  0  0
   17.9743   18.7818   20.8857 H   0  0  0  0  0  0  0  0  0  0  0  0
   18.5411   18.7364   22.9654 C   0  0  0  0  0  0  0  0  0  0  0  0
   18.6749   19.4756   23.7631 H   0  0  0  0  0  0  0  0  0  0  0  0
   17.5313   18.3363   23.1308 H   0  0  0  0  0  0  0  0  0  0  0  0
   19.5529   17.5723   23.1257 C   0  0  0  0  0  0  0  0  0  0  0  0
   19.7928   17.1207   22.1545 H   0  0  0  0  0  0  0  0  0  0  0  0
   19.0534   16.7769   23.6957 H   0  0  0  0  0  0  0  0  0  0  0  0
   20.8489   17.9383   23.8986 C   0  0  0  0  0  0  0  0  0  0  0  0
   20.5792   18.3468   24.8813 H   0  0  0  0  0  0  0  0  0  0  0  0
   21.3851   17.0017   24.1022 H   0  0  0  0  0  0  0  0  0  0  0  0
   21.8360   18.9017   23.1927 C   0  0  0  0  0  0  0  0  0  0  0  0
   22.0797   18.5052   22.1980 H   0  0  0  0  0  0  0  0  0  0  0  0
   21.3215   20.3587   23.0628 C   0  0  0  0  0  0  0  0  0  0  0  0
   20.5514   20.5577   23.8151 H   0  0  0  0  0  0  0  0  0  0  0  0
   22.1358   21.0535   23.3095 H   0  0  0  0  0  0  0  0  0  0  0  0
   20.8062   20.7498   21.6533 C   0  0  0  0  0  0  0  0  0  0  0  0
   21.6811   20.9365   21.0155 H   0  0  0  0  0  0  0  0  0  0  0  0
   20.2766   21.7097   21.7207 H   0  0  0  0  0  0  0  0  0  0  0  0
   19.9085   19.7199   20.9226 C   0  0  0  0  0  0  0  0  0  0  0  0
   20.4561   18.7864   20.7499 H   0  0  0  0  0  0  0  0  0  0  0  0
   19.7122   20.1149   19.9165 H   0  0  0  0  0  0  0  0  0  0  0  0
   23.0315   18.9197   23.9625 O   0  0  0  0  0  0  0  0  0  0  0  0
   22.7881   19.2719   24.8432 H   0  0  0  0  0  0  0  0  0  0  0  0
  1  2  1  0  0  0  0
  1  3  1  0  0  0  0
  1  4  1  0  0  0  0
  4  5  1  0  0  0  0
  4  6  1  0  0  0  0
  4  7  1  0  0  0  0
  7  8  1  0  0  0  0
  7  9  1  0  0  0  0
  7 10  1  0  0  0  0
 10 11  1  0  0  0  0
 10 12  1  0  0  0  0
 10 13  1  0  0  0  0
 13 14  1  0  0  0  0
 13 15  1  0  0  0  0
 15 16  1  0  0  0  0
 15 17  1  0  0  0  0
 15 18  1  0  0  0  0
 18 19  1  0  0  0  0
 18 20  1  0  0  0  0
  1 21  1  0  0  0  0
 18 21  1  0  0  0  0
 21 22  1  0  0  0  0
 21 23  1  0  0  0  0
 13 24  1  0  0  0  0
 24 25  1  0  0  0  0
M  END
> <VConfSearch Rank>
50

> <Conf_Id>
68

> <Delta U+W>
-1.765

> <U+W>
9.148

> <U>
11.181

> <W>
-2.032

> <W(PB)>
-4.147

> <W(SA)>
2.114

> <Valence>
16.955

> <Coulomb>
-8.661

> <VdW>
2.887

> <VdW6>
-12.561

> <VdW12>
15.448

> <Bond>
0.433

> <Angle>
5.121

> <Pdih>
11.402

> <Idih>
0.000

> <Tether>
0.000

$$$$
VeraChem MOL file


 25 25  0  0  0  0  0  0  0  0999 V2000     
   19.7855   20.5840   21.5030 C   0  0  0  0  0  0  0  0  0  0  0  0
   19.4371   21.4372   20.9048 H   0  0  0  0  0  0  0  0  0  0  0  0
   20.3416   19.9630   20.7917 H   0  0  0  0  0  0  0  0  0  0  0  0
   18.5396   19.8262   22.0310 C   0  0  0  0  0  0  0  0  0  0  0  0
   18.2727   20.1596   23.0420 H   0  0  0  0  0  0  0  0  0  0  0  0
   17.6868   20.1139   21.4010 H   0  0  0  0  0  0  0  0  0  0  0  0
   18.6446   18.2796   21.9713 C   0  0  0  0  0  0  0  0  0  0  0  0
   18.8650   17.9689   20.9407 H   0  0  0  0  0  0  0  0  0  0  0  0
   17.6509   17.8688   22.1962 H   0  0  0  0  0  0  0  0  0  0  0  0
   19.6606   17.6124   22.9362 C   0  0  0  0  0  0  0  0  0  0  0  0
   19.4381   17.8873   23.9742 H   0  0  0  0  0  0  0  0  0  0  0  0
   19.4849   16.5295   22.8807 H   0  0  0  0  0  0  0  0  0  0  0  0
   21.1480   17.8901   22.5961 C   0  0  0  0  0  0  0  0  0  0  0  0
   21.2214   18.2118   21.5508 H   0  0  0  0  0  0  0  0  0  0  0  0
   21.8349   18.9425   23.5008 C   0  0  0  0  0  0  0  0  0  0  0  0
   22.0761   18.4709   24.4626 H   0  0  0  0  0  0  0  0  0  0  0  0
   22.7980   19.2123   23.0486 H   0  0  0  0  0  0  0  0  0  0  0  0
   21.0413   20.2388   23.8074 C   0  0  0  0  0  0  0  0  0  0  0  0
   21.6396   20.8287   24.5151 H   0  0  0  0  0  0  0  0  0  0  0  0
   20.1200   20.0044   24.3528 H   0  0  0  0  0  0  0  0  0  0  0  0
   20.7313   21.1504   22.5938 C   0  0  0  0  0  0  0  0  0  0  0  0
   21.6736   21.4608   22.1223 H   0  0  0  0  0  0  0  0  0  0  0  0
   20.2779   22.0720   22.9837 H   0  0  0  0  0  0  0  0  0  0  0  0
   21.8763   16.6753   22.7246 O   0  0  0  0  0  0  0  0  0  0  0  0
   21.7846   16.3947   23.6583 H   0  0  0  0  0  0  0  0  0  0  0  0
  1  2  1  0  0  0  0
  1  3  1  0  0  0  0
  1  4  1  0  0  0  0
  4  5  1  0  0  0  0
  4  6  1  0  0  0  0
  4  7  1  0  0  0  0
  7  8  1  0  0  0  0
  7  9  1  0  0  0  0
  7 10  1  0  0  0  0
 10 11  1  0  0  0  0
 10 12  1  0  0  0  0
 10 13  1  0  0  0  0
 13 14  1  0  0  0  0
 13 15  1  0  0  0  0
 15 16  1  0  0  0  0
 15 17  1  0  0  0  0
 15 18  1  0  0  0  0
 18 19  1  0  0  0  0
 18 20  1  0  0  0  0
  1 21  1  0  0  0  0
 18 21  1  0  0  0  0
 21 22  1  0  0  0  0
 21 23  1  0  0  0  0
 13 24  1  0  0  0  0
 24 25  1  0  0  0  0
M  END
> <VConfSearch Rank>
51

> <Conf_Id>
165

> <Delta U+W>
-1.999

> <U+W>
8.915

> <U>
10.935

> <W>
-2.020

> <W(PB)>
-4.135

> <W(SA)>
2.115

> <Valence>
16.757

> <Coulomb>
-8.731

> <VdW>
2.908

> <VdW6>
-12.597

> <VdW12>
15.506

> <Bond>
0.434

> <Angle>
5.069

> <Pdih>
11.254

> <Idih>
0.000

> <Tether>
0.000

$$$$
VeraChem MOL file


 25 25  0  0  0  0  0  0  0  0999 V2000     
   22.0733   19.4283   23.0939 C   0  0  0  0  0  0  0  0  0  0  0  0
   23.1028   19.6409   23.4133 H   0  0  0  0  0  0  0  0  0  0  0  0
   22.1669   18.5510   22.4441 H   0  0  0  0  0  0  0  0  0  0  0  0
   21.5850   20.6599   22.2875 C   0  0  0  0  0  0  0  0  0  0  0  0
   21.9277   21.5612   22.8141 H   0  0  0  0  0  0  0  0  0  0  0  0
   22.0947   20.6741   21.3146 H   0  0  0  0  0  0  0  0  0  0  0  0
   20.0582   20.8056   22.0690 C   0  0  0  0  0  0  0  0  0  0  0  0
   19.8892   21.7705   21.5718 H   0  0  0  0  0  0  0  0  0  0  0  0
   19.5426   20.8971   23.0319 H   0  0  0  0  0  0  0  0  0  0  0  0
   19.3873   19.7133   21.1968 C   0  0  0  0  0  0  0  0  0  0  0  0
   18.3409   20.0108   21.0448 H   0  0  0  0  0  0  0  0  0  0  0  0
   19.8513   19.7195   20.2021 H   0  0  0  0  0  0  0  0  0  0  0  0
   19.4037   18.2642   21.7423 C   0  0  0  0  0  0  0  0  0  0  0  0
   20.3952   17.8267   21.5772 H   0  0  0  0  0  0  0  0  0  0  0  0
   19.0402   18.1350   23.2441 C   0  0  0  0  0  0  0  0  0  0  0  0
   18.4556   18.9996   23.5801 H   0  0  0  0  0  0  0  0  0  0  0  0
   18.3706   17.2728   23.3659 H   0  0  0  0  0  0  0  0  0  0  0  0
   20.2533   17.9007   24.1835 C   0  0  0  0  0  0  0  0  0  0  0  0
   20.8059   17.0126   23.8477 H   0  0  0  0  0  0  0  0  0  0  0  0
   19.8615   17.6450   25.1775 H   0  0  0  0  0  0  0  0  0  0  0  0
   21.2395   19.0858   24.3560 C   0  0  0  0  0  0  0  0  0  0  0  0
   21.9439   18.8032   25.1503 H   0  0  0  0  0  0  0  0  0  0  0  0
   20.7188   19.9729   24.7389 H   0  0  0  0  0  0  0  0  0  0  0  0
   18.4630   17.5127   20.9834 O   0  0  0  0  0  0  0  0  0  0  0  0
   18.7423   17.5752   20.0461 H   0  0  0  0  0  0  0  0  0  0  0  0
  1  2  1  0  0  0  0
  1  3  1  0  0  0  0
  1  4  1  0  0  0  0
  4  5  1  0  0  0  0
  4  6  1  0  0  0  0
  4  7  1  0  0  0  0
  7  8  1  0  0  0  0
  7  9  1  0  0  0  0
  7 10  1  0  0  0  0
 10 11  1  0  0  0  0
 10 12  1  0  0  0  0
 10 13  1  0  0  0  0
 13 14  1  0  0  0  0
 13 15  1  0  0  0  0
 15 16  1  0  0  0  0
 15 17  1  0  0  0  0
 15 18  1  0  0  0  0
 18 19  1  0  0  0  0
 18 20  1  0  0  0  0
  1 21  1  0  0  0  0
 18 21  1  0  0  0  0
 21 22  1  0  0  0  0
 21 23  1  0  0  0  0
 13 24  1  0  0  0  0
 24 25  1  0  0  0  0
M  END
> <VConfSearch Rank>
52

> <Conf_Id>
133

> <Delta U+W>
-2.139

> <U+W>
8.774

> <U>
10.905

> <W>
-2.131

> <W(PB)>
-4.281

> <W(SA)>
2.150

> <Valence>
16.378

> <Coulomb>
-8.448

> <VdW>
2.976

> <VdW6>
-12.570

> <VdW12>
15.545

> <Bond>
0.439

> <Angle>
5.049

> <Pdih>
10.889

> <Idih>
0.000

> <Tether>
0.000

$$$$
VeraChem MOL file


 25 25  0  0  0  0  0  0  0  0999 V2000     
   19.5428   17.6035   22.2772 C   0  0  0  0  0  0  0  0  0  0  0  0
   19.0862   16.6141   22.1371 H   0  0  0  0  0  0  0  0  0  0  0  0
   19.8873   17.8871   21.2763 H   0  0  0  0  0  0  0  0  0  0  0  0
   20.7456   17.4454   23.2436 C   0  0  0  0  0  0  0  0  0  0  0  0
   20.4522   17.6618   24.2788 H   0  0  0  0  0  0  0  0  0  0  0  0
   21.0317   16.3847   23.2436 H   0  0  0  0  0  0  0  0  0  0  0  0
   22.0091   18.2547   22.8492 C   0  0  0  0  0  0  0  0  0  0  0  0
   22.3112   17.9840   21.8282 H   0  0  0  0  0  0  0  0  0  0  0  0
   22.8326   17.9246   23.4970 H   0  0  0  0  0  0  0  0  0  0  0  0
   21.9102   19.7995   22.9617 C   0  0  0  0  0  0  0  0  0  0  0  0
   21.6400   20.0937   23.9828 H   0  0  0  0  0  0  0  0  0  0  0  0
   22.9229   20.1965   22.8087 H   0  0  0  0  0  0  0  0  0  0  0  0
   20.9634   20.4616   21.9277 C   0  0  0  0  0  0  0  0  0  0  0  0
   20.8062   19.7678   21.0936 H   0  0  0  0  0  0  0  0  0  0  0  0
   19.5902   20.8968   22.4959 C   0  0  0  0  0  0  0  0  0  0  0  0
   19.7338   21.8234   23.0679 H   0  0  0  0  0  0  0  0  0  0  0  0
   18.9300   21.1570   21.6586 H   0  0  0  0  0  0  0  0  0  0  0  0
   18.8554   19.8908   23.4190 C   0  0  0  0  0  0  0  0  0  0  0  0
   17.9466   20.3873   23.7858 H   0  0  0  0  0  0  0  0  0  0  0  0
   19.4468   19.6961   24.3210 H   0  0  0  0  0  0  0  0  0  0  0  0
   18.4198   18.5569   22.7624 C   0  0  0  0  0  0  0  0  0  0  0  0
   17.7440   18.7684   21.9227 H   0  0  0  0  0  0  0  0  0  0  0  0
   17.8142   18.0118   23.4994 H   0  0  0  0  0  0  0  0  0  0  0  0
   21.5996   21.6260   21.4130 O   0  0  0  0  0  0  0  0  0  0  0  0
   21.0006   21.9973   20.7320 H   0  0  0  0  0  0  0  0  0  0  0  0
  1  2  1  0  0  0  0
  1  3  1  0  0  0  0
  1  4  1  0  0  0  0
  4  5  1  0  0  0  0
  4  6  1  0  0  0  0
  4  7  1  0  0  0  0
  7  8  1  0  0  0  0
  7  9  1  0  0  0  0
  7 10  1  0  0  0  0
 10 11  1  0  0  0  0
 10 12  1  0  0  0  0
 10 13  1  0  0  0  0
 13 14  1  0  0  0  0
 13 15  1  0  0  0  0
 15 16  1  0  0  0  0
 15 17  1  0  0  0  0
 15 18  1  0  0  0  0
 18 19  1  0  0  0  0
 18 20  1  0  0  0  0
  1 21  1  0  0  0  0
 18 21  1  0  0  0  0
 21 22  1  0  0  0  0
 21 23  1  0  0  0  0
 13 24  1  0  0  0  0
 24 25  1  0  0  0  0
M  END
> <VConfSearch Rank>
53

> <Conf_Id>
95

> <Delta U+W>
-2.190

> <U+W>
8.723

> <U>
10.905

> <W>
-2.182

> <W(PB)>
-4.296

> <W(SA)>
2.114

> <Valence>
16.377

> <Coulomb>
-8.448

> <VdW>
2.976

> <VdW6>
-12.570

> <VdW12>
15.546

> <Bond>
0.439

> <Angle>
5.049

> <Pdih>
10.889

> <Idih>
0.000

> <Tether>
0.000

$$$$
VeraChem MOL file


 25 25  0  0  0  0  0  0  0  0999 V2000     
   19.0963   18.7767   21.3396 C   0  0  0  0  0  0  0  0  0  0  0  0
   18.4705   18.5005   20.4799 H   0  0  0  0  0  0  0  0  0  0  0  0
   18.4585   19.4607   21.9085 H   0  0  0  0  0  0  0  0  0  0  0  0
   20.3439   19.5176   20.7751 C   0  0  0  0  0  0  0  0  0  0  0  0
   20.5949   19.0505   19.8129 H   0  0  0  0  0  0  0  0  0  0  0  0
   20.0649   20.5521   20.5331 H   0  0  0  0  0  0  0  0  0  0  0  0
   21.6411   19.5225   21.6258 C   0  0  0  0  0  0  0  0  0  0  0  0
   22.4342   19.9818   21.0201 H   0  0  0  0  0  0  0  0  0  0  0  0
   21.9874   18.4932   21.7626 H   0  0  0  0  0  0  0  0  0  0  0  0
   21.6046   20.2811   22.9858 C   0  0  0  0  0  0  0  0  0  0  0  0
   22.4172   19.9072   23.6225 H   0  0  0  0  0  0  0  0  0  0  0  0
   21.8511   21.3299   22.7752 H   0  0  0  0  0  0  0  0  0  0  0  0
   20.2829   20.2735   23.7950 C   0  0  0  0  0  0  0  0  0  0  0  0
   19.4945   20.6916   23.1607 H   0  0  0  0  0  0  0  0  0  0  0  0
   19.8167   18.9053   24.3706 C   0  0  0  0  0  0  0  0  0  0  0  0
   20.3114   18.7605   25.3404 H   0  0  0  0  0  0  0  0  0  0  0  0
   18.7444   18.9729   24.5937 H   0  0  0  0  0  0  0  0  0  0  0  0
   20.0779   17.6225   23.5356 C   0  0  0  0  0  0  0  0  0  0  0  0
   19.7799   16.7612   24.1488 H   0  0  0  0  0  0  0  0  0  0  0  0
   21.1567   17.4861   23.4103 H   0  0  0  0  0  0  0  0  0  0  0  0
   19.3407   17.4897   22.1709 C   0  0  0  0  0  0  0  0  0  0  0  0
   18.3557   17.0463   22.3714 H   0  0  0  0  0  0  0  0  0  0  0  0
   19.8712   16.7545   21.5508 H   0  0  0  0  0  0  0  0  0  0  0  0
   20.4533   21.1591   24.8956 O   0  0  0  0  0  0  0  0  0  0  0  0
   20.6831   22.0349   24.5211 H   0  0  0  0  0  0  0  0  0  0  0  0
  1  2  1  0  0  0  0
  1  3  1  0  0  0  0
  1  4  1  0  0  0  0
  4  5  1  0  0  0  0
  4  6  1  0  0  0  0
  4  7  1  0  0  0  0
  7  8  1  0  0  0  0
  7  9  1  0  0  0  0
  7 10  1  0  0  0  0
 10 11  1  0  0  0  0
 10 12  1  0  0  0  0
 10 13  1  0  0  0  0
 13 14  1  0  0  0  0
 13 15  1  0  0  0  0
 15 16  1  0  0  0  0
 15 17  1  0  0  0  0
 15 18  1  0  0  0  0
 18 19  1  0  0  0  0
 18 20  1  0  0  0  0
  1 21  1  0  0  0  0
 18 21  1  0  0  0  0
 21 22  1  0  0  0  0
 21 23  1  0  0  0  0
 13 24  1  0  0  0  0
 24 25  1  0  0  0  0
M  END
> <VConfSearch Rank>
54

> <Conf_Id>
161

> <Delta U+W>
2.120

> <U+W>
13.033

> <U>
15.076

> <W>
-2.043

> <W(PB)>
-4.186

> <W(SA)>
2.143

> <Valence>
18.884

> <Coulomb>
-8.074

> <VdW>
4.266

> <VdW6>
-13.486

> <VdW12>
17.752

> <Bond>
0.713

> <Angle>
8.955

> <Pdih>
9.215

> <Idih>
0.000

> <Tether>
0.000

$$$$
VeraChem MOL file


 25 25  0  0  0  0  0  0  0  0999 V2000     
   21.8816   19.5083   23.8020 C   0  0  0  0  0  0  0  0  0  0  0  0
   22.7306   19.4148   24.4929 H   0  0  0  0  0  0  0  0  0  0  0  0
   21.7116   20.5888   23.7127 H   0  0  0  0  0  0  0  0  0  0  0  0
   20.6527   18.8325   24.4598 C   0  0  0  0  0  0  0  0  0  0  0  0
   20.6348   17.7566   24.2401 H   0  0  0  0  0  0  0  0  0  0  0  0
   20.7941   18.9044   25.5470 H   0  0  0  0  0  0  0  0  0  0  0  0
   19.2836   19.4946   24.1398 C   0  0  0  0  0  0  0  0  0  0  0  0
   19.3745   20.5880   24.0880 H   0  0  0  0  0  0  0  0  0  0  0  0
   18.6279   19.2984   24.9993 H   0  0  0  0  0  0  0  0  0  0  0  0
   18.5573   18.9420   22.8862 C   0  0  0  0  0  0  0  0  0  0  0  0
   18.7619   17.8697   22.7800 H   0  0  0  0  0  0  0  0  0  0  0  0
   17.4769   19.0069   23.0711 H   0  0  0  0  0  0  0  0  0  0  0  0
   18.8216   19.6912   21.5555 C   0  0  0  0  0  0  0  0  0  0  0  0
   18.3309   20.6731   21.6178 H   0  0  0  0  0  0  0  0  0  0  0  0
   20.3030   19.9365   21.1864 C   0  0  0  0  0  0  0  0  0  0  0  0
   20.3475   20.2584   20.1373 H   0  0  0  0  0  0  0  0  0  0  0  0
   20.6726   20.7987   21.7519 H   0  0  0  0  0  0  0  0  0  0  0  0
   21.2355   18.7099   21.3737 C   0  0  0  0  0  0  0  0  0  0  0  0
   21.7255   18.4891   20.4157 H   0  0  0  0  0  0  0  0  0  0  0  0
   20.6614   17.8070   21.6110 H   0  0  0  0  0  0  0  0  0  0  0  0
   22.3355   18.9123   22.4431 C   0  0  0  0  0  0  0  0  0  0  0  0
   23.1159   19.5642   22.0275 H   0  0  0  0  0  0  0  0  0  0  0  0
   22.8209   17.9437   22.6247 H   0  0  0  0  0  0  0  0  0  0  0  0
   18.2211   18.9455   20.5059 O   0  0  0  0  0  0  0  0  0  0  0  0
   18.7739   18.1455   20.3954 H   0  0  0  0  0  0  0  0  0  0  0  0
  1  2  1  0  0  0  0
  1  3  1  0  0  0  0
  1  4  1  0  0  0  0
  4  5  1  0  0  0  0
  4  6  1  0  0  0  0
  4  7  1  0  0  0  0
  7  8  1  0  0  0  0
  7  9  1  0  0  0  0
  7 10  1  0  0  0  0
 10 11  1  0  0  0  0
 10 12  1  0  0  0  0
 10 13  1  0  0  0  0
 13 14  1  0  0  0  0
 13 15  1  0  0  0  0
 15 16  1  0  0  0  0
 15 17  1  0  0  0  0
 15 18  1  0  0  0  0
 18 19  1  0  0  0  0
 18 20  1  0  0  0  0
  1 21  1  0  0  0  0
 18 21  1  0  0  0  0
 21 22  1  0  0  0  0
 21 23  1  0  0  0  0
 13 24  1  0  0  0  0
 24 25  1  0  0  0  0
M  END
> <VConfSearch Rank>
55

> <Conf_Id>
164

> <Delta U+W>
0.008

> <U+W>
10.922

> <U>
12.433

> <W>
-1.511

> <W(PB)>
-3.669

> <W(SA)>
2.157

> <Valence>
19.007

> <Coulomb>
-9.373

> <VdW>
2.799

> <VdW6>
-12.597

> <VdW12>
15.396

> <Bond>
0.425

> <Angle>
4.784

> <Pdih>
13.799

> <Idih>
0.000

> <Tether>
0.000

$$$$
VeraChem MOL file


 25 25  0  0  0  0  0  0  0  0999 V2000     
   19.1631   19.7378   23.9449 C   0  0  0  0  0  0  0  0  0  0  0  0
   19.8631   20.5726   23.8265 H   0  0  0  0  0  0  0  0  0  0  0  0
   18.4745   20.0648   24.7358 H   0  0  0  0  0  0  0  0  0  0  0  0
   19.9030   18.4821   24.4698 C   0  0  0  0  0  0  0  0  0  0  0  0
   20.3471   18.7437   25.4400 H   0  0  0  0  0  0  0  0  0  0  0  0
   19.1705   17.6916   24.6822 H   0  0  0  0  0  0  0  0  0  0  0  0
   21.0273   17.8990   23.5761 C   0  0  0  0  0  0  0  0  0  0  0  0
   20.6055   17.2455   22.8041 H   0  0  0  0  0  0  0  0  0  0  0  0
   21.6268   17.2279   24.2064 H   0  0  0  0  0  0  0  0  0  0  0  0
   21.9799   18.9470   22.9413 C   0  0  0  0  0  0  0  0  0  0  0  0
   21.9968   19.8709   23.5321 H   0  0  0  0  0  0  0  0  0  0  0  0
   22.9990   18.5427   23.0057 H   0  0  0  0  0  0  0  0  0  0  0  0
   21.7087   19.2538   21.4471 C   0  0  0  0  0  0  0  0  0  0  0  0
   21.6958   18.3011   20.8987 H   0  0  0  0  0  0  0  0  0  0  0  0
   20.3987   20.0150   21.1230 C   0  0  0  0  0  0  0  0  0  0  0  0
   20.3636   20.9740   21.6539 H   0  0  0  0  0  0  0  0  0  0  0  0
   20.4344   20.2748   20.0565 H   0  0  0  0  0  0  0  0  0  0  0  0
   19.0968   19.2029   21.3561 C   0  0  0  0  0  0  0  0  0  0  0  0
   19.3000   18.1272   21.3028 H   0  0  0  0  0  0  0  0  0  0  0  0
   18.4169   19.3959   20.5151 H   0  0  0  0  0  0  0  0  0  0  0  0
   18.3255   19.5476   22.6558 C   0  0  0  0  0  0  0  0  0  0  0  0
   17.5602   18.7793   22.8304 H   0  0  0  0  0  0  0  0  0  0  0  0
   17.7741   20.4815   22.4811 H   0  0  0  0  0  0  0  0  0  0  0  0
   22.7922   20.0363   20.9645 O   0  0  0  0  0  0  0  0  0  0  0  0
   22.7753   20.8739   21.4713 H   0  0  0  0  0  0  0  0  0  0  0  0
  1  2  1  0  0  0  0
  1  3  1  0  0  0  0
  1  4  1  0  0  0  0
  4  5  1  0  0  0  0
  4  6  1  0  0  0  0
  4  7  1  0  0  0  0
  7  8  1  0  0  0  0
  7  9  1  0  0  0  0
  7 10  1  0  0  0  0
 10 11  1  0  0  0  0
 10 12  1  0  0  0  0
 10 13  1  0  0  0  0
 13 14  1  0  0  0  0
 13 15  1  0  0  0  0
 15 16  1  0  0  0  0
 15 17  1  0  0  0  0
 15 18  1  0  0  0  0
 18 19  1  0  0  0  0
 18 20  1  0  0  0  0
  1 21  1  0  0  0  0
 18 21  1  0  0  0  0
 21 22  1  0  0  0  0
 21 23  1  0  0  0  0
 13 24  1  0  0  0  0
 24 25  1  0  0  0  0
M  END
> <VConfSearch Rank>
56

> <Conf_Id>
15

> <Delta U+W>
-1.271

> <U+W>
9.643

> <U>
11.413

> <W>
-1.770

> <W(PB)>
-3.908

> <W(SA)>
2.138

> <Valence>
17.496

> <Coulomb>
-8.736

> <VdW>
2.653

> <VdW6>
-12.485

> <VdW12>
15.138

> <Bond>
0.414

> <Angle>
5.295

> <Pdih>
11.787

> <Idih>
0.000

> <Tether>
0.000

$$$$
VeraChem MOL file


 25 25  0  0  0  0  0  0  0  0999 V2000     
   21.9066   19.9234   23.4988 C   0  0  0  0  0  0  0  0  0  0  0  0
   22.7532   20.2013   24.1416 H   0  0  0  0  0  0  0  0  0  0  0  0
   21.7208   20.8115   22.8816 H   0  0  0  0  0  0  0  0  0  0  0  0
   22.3765   18.7347   22.6196 C   0  0  0  0  0  0  0  0  0  0  0  0
   23.1562   19.1020   21.9384 H   0  0  0  0  0  0  0  0  0  0  0  0
   22.8673   17.9903   23.2612 H   0  0  0  0  0  0  0  0  0  0  0  0
   21.2889   18.0152   21.7861 C   0  0  0  0  0  0  0  0  0  0  0  0
   20.7213   17.3356   22.4324 H   0  0  0  0  0  0  0  0  0  0  0  0
   21.7921   17.3594   21.0627 H   0  0  0  0  0  0  0  0  0  0  0  0
   20.3429   18.9733   21.0161 C   0  0  0  0  0  0  0  0  0  0  0  0
   20.7062   20.0057   21.0667 H   0  0  0  0  0  0  0  0  0  0  0  0
   20.3788   18.7136   19.9501 H   0  0  0  0  0  0  0  0  0  0  0  0
   18.8639   18.9090   21.4618 C   0  0  0  0  0  0  0  0  0  0  0  0
   18.4411   17.9703   21.0760 H   0  0  0  0  0  0  0  0  0  0  0  0
   18.5985   18.9350   22.9893 C   0  0  0  0  0  0  0  0  0  0  0  0
   17.5151   19.0551   23.1243 H   0  0  0  0  0  0  0  0  0  0  0  0
   18.8211   17.9538   23.4255 H   0  0  0  0  0  0  0  0  0  0  0  0
   19.3095   20.0455   23.8079 C   0  0  0  0  0  0  0  0  0  0  0  0
   18.6512   20.2851   24.6543 H   0  0  0  0  0  0  0  0  0  0  0  0
   19.3872   20.9759   23.2308 H   0  0  0  0  0  0  0  0  0  0  0  0
   20.6852   19.6470   24.4101 C   0  0  0  0  0  0  0  0  0  0  0  0
   20.6818   18.6036   24.7527 H   0  0  0  0  0  0  0  0  0  0  0  0
   20.8219   20.2504   25.3180 H   0  0  0  0  0  0  0  0  0  0  0  0
   18.1735   19.9984   20.8660 O   0  0  0  0  0  0  0  0  0  0  0  0
   18.5136   20.8035   21.3057 H   0  0  0  0  0  0  0  0  0  0  0  0
  1  2  1  0  0  0  0
  1  3  1  0  0  0  0
  1  4  1  0  0  0  0
  4  5  1  0  0  0  0
  4  6  1  0  0  0  0
  4  7  1  0  0  0  0
  7  8  1  0  0  0  0
  7  9  1  0  0  0  0
  7 10  1  0  0  0  0
 10 11  1  0  0  0  0
 10 12  1  0  0  0  0
 10 13  1  0  0  0  0
 13 14  1  0  0  0  0
 13 15  1  0  0  0  0
 15 16  1  0  0  0  0
 15 17  1  0  0  0  0
 15 18  1  0  0  0  0
 18 19  1  0  0  0  0
 18 20  1  0  0  0  0
  1 21  1  0  0  0  0
 18 21  1  0  0  0  0
 21 22  1  0  0  0  0
 21 23  1  0  0  0  0
 13 24  1  0  0  0  0
 24 25  1  0  0  0  0
M  END
> <VConfSearch Rank>
57

> <Conf_Id>
115

> <Delta U+W>
0.038

> <U+W>
10.952

> <U>
12.526

> <W>
-1.575

> <W(PB)>
-3.698

> <W(SA)>
2.123

> <Valence>
19.016

> <Coulomb>
-9.226

> <VdW>
2.737

> <VdW6>
-12.612

> <VdW12>
15.349

> <Bond>
0.421

> <Angle>
4.883

> <Pdih>
13.711

> <Idih>
0.000

> <Tether>
0.000

$$$$
VeraChem MOL file


 25 25  0  0  0  0  0  0  0  0999 V2000     
   19.8889   20.3323   24.4541 C   0  0  0  0  0  0  0  0  0  0  0  0
   19.7650   20.4259   25.5417 H   0  0  0  0  0  0  0  0  0  0  0  0
   19.8981   21.3612   24.0696 H   0  0  0  0  0  0  0  0  0  0  0  0
   18.6540   19.5745   23.9134 C   0  0  0  0  0  0  0  0  0  0  0  0
   18.5772   18.5887   24.3919 H   0  0  0  0  0  0  0  0  0  0  0  0
   17.7617   20.1288   24.2352 H   0  0  0  0  0  0  0  0  0  0  0  0
   18.5942   19.4278   22.3753 C   0  0  0  0  0  0  0  0  0  0  0  0
   18.9027   20.3637   21.8907 H   0  0  0  0  0  0  0  0  0  0  0  0
   17.5397   19.2905   22.0991 H   0  0  0  0  0  0  0  0  0  0  0  0
   19.3838   18.2128   21.8182 C   0  0  0  0  0  0  0  0  0  0  0  0
   19.6625   17.5170   22.6195 H   0  0  0  0  0  0  0  0  0  0  0  0
   18.7016   17.6500   21.1667 H   0  0  0  0  0  0  0  0  0  0  0  0
   20.6313   18.5882   20.9871 C   0  0  0  0  0  0  0  0  0  0  0  0
   20.4175   19.5045   20.4185 H   0  0  0  0  0  0  0  0  0  0  0  0
   21.9176   18.8006   21.8159 C   0  0  0  0  0  0  0  0  0  0  0  0
   22.1808   17.8740   22.3429 H   0  0  0  0  0  0  0  0  0  0  0  0
   22.7385   18.9867   21.1110 H   0  0  0  0  0  0  0  0  0  0  0  0
   21.8788   19.9864   22.8104 C   0  0  0  0  0  0  0  0  0  0  0  0
   21.3915   20.8563   22.3499 H   0  0  0  0  0  0  0  0  0  0  0  0
   22.9175   20.2964   22.9899 H   0  0  0  0  0  0  0  0  0  0  0  0
   21.2511   19.6496   24.1883 C   0  0  0  0  0  0  0  0  0  0  0  0
   21.9485   20.0010   24.9613 H   0  0  0  0  0  0  0  0  0  0  0  0
   21.1723   18.5650   24.3403 H   0  0  0  0  0  0  0  0  0  0  0  0
   20.8838   17.5306   20.0699 O   0  0  0  0  0  0  0  0  0  0  0  0
   21.6432   17.8102   19.5172 H   0  0  0  0  0  0  0  0  0  0  0  0
  1  2  1  0  0  0  0
  1  3  1  0  0  0  0
  1  4  1  0  0  0  0
  4  5  1  0  0  0  0
  4  6  1  0  0  0  0
  4  7  1  0  0  0  0
  7  8  1  0  0  0  0
  7  9  1  0  0  0  0
  7 10  1  0  0  0  0
 10 11  1  0  0  0  0
 10 12  1  0  0  0  0
 10 13  1  0  0  0  0
 13 14  1  0  0  0  0
 13 15  1  0  0  0  0
 15 16  1  0  0  0  0
 15 17  1  0  0  0  0
 15 18  1  0  0  0  0
 18 19  1  0  0  0  0
 18 20  1  0  0  0  0
  1 21  1  0  0  0  0
 18 21  1  0  0  0  0
 21 22  1  0  0  0  0
 21 23  1  0  0  0  0
 13 24  1  0  0  0  0
 24 25  1  0  0  0  0
M  END
> <VConfSearch Rank>
58

> <Conf_Id>
30

> <Delta U+W>
0.000

> <U+W>
10.913

> <U>
13.140

> <W>
-2.227

> <W(PB)>
-4.367

> <W(SA)>
2.140

> <Valence>
19.155

> <Coulomb>
-8.157

> <VdW>
2.142

> <VdW6>
-11.576

> <VdW12>
13.718

> <Bond>
0.294

> <Angle>
3.547

> <Pdih>
15.314

> <Idih>
0.000

> <Tether>
0.000

$$$$
VeraChem MOL file


 25 25  0  0  0  0  0  0  0  0999 V2000     
   20.8621   17.9357   21.0601 C   0  0  0  0  0  0  0  0  0  0  0  0
   20.2899   17.4046   20.2873 H   0  0  0  0  0  0  0  0  0  0  0  0
   21.9052   17.6174   20.9283 H   0  0  0  0  0  0  0  0  0  0  0  0
   20.3791   17.4508   22.4492 C   0  0  0  0  0  0  0  0  0  0  0  0
   20.2773   16.3577   22.4093 H   0  0  0  0  0  0  0  0  0  0  0  0
   21.1630   17.6287   23.1944 H   0  0  0  0  0  0  0  0  0  0  0  0
   19.0277   18.0572   22.9051 C   0  0  0  0  0  0  0  0  0  0  0  0
   18.3330   17.2378   23.1349 H   0  0  0  0  0  0  0  0  0  0  0  0
   18.5484   18.6091   22.0882 H   0  0  0  0  0  0  0  0  0  0  0  0
   19.1320   18.9639   24.1575 C   0  0  0  0  0  0  0  0  0  0  0  0
   18.1761   19.4887   24.2862 H   0  0  0  0  0  0  0  0  0  0  0  0
   19.2453   18.3230   25.0417 H   0  0  0  0  0  0  0  0  0  0  0  0
   20.2839   19.9997   24.1776 C   0  0  0  0  0  0  0  0  0  0  0  0
   21.2396   19.4751   24.3095 H   0  0  0  0  0  0  0  0  0  0  0  0
   20.3821   20.8981   22.9204 C   0  0  0  0  0  0  0  0  0  0  0  0
   19.3853   21.0662   22.4929 H   0  0  0  0  0  0  0  0  0  0  0  0
   20.7332   21.8896   23.2360 H   0  0  0  0  0  0  0  0  0  0  0  0
   21.3745   20.3978   21.8330 C   0  0  0  0  0  0  0  0  0  0  0  0
   22.2661   19.9442   22.2866 H   0  0  0  0  0  0  0  0  0  0  0  0
   21.7390   21.2871   21.3005 H   0  0  0  0  0  0  0  0  0  0  0  0
   20.7608   19.4564   20.7672 C   0  0  0  0  0  0  0  0  0  0  0  0
   21.2850   19.6344   19.8182 H   0  0  0  0  0  0  0  0  0  0  0  0
   19.7202   19.7429   20.5687 H   0  0  0  0  0  0  0  0  0  0  0  0
   20.0783   20.8344   25.3113 O   0  0  0  0  0  0  0  0  0  0  0  0
   20.8513   21.4346   25.3639 H   0  0  0  0  0  0  0  0  0  0  0  0
  1  2  1  0  0  0  0
  1  3  1  0  0  0  0
  1  4  1  0  0  0  0
  4  5  1  0  0  0  0
  4  6  1  0  0  0  0
  4  7  1  0  0  0  0
  7  8  1  0  0  0  0
  7  9  1  0  0  0  0
  7 10  1  0  0  0  0
 10 11  1  0  0  0  0
 10 12  1  0  0  0  0
 10 13  1  0  0  0  0
 13 14  1  0  0  0  0
 13 15  1  0  0  0  0
 15 16  1  0  0  0  0
 15 17  1  0  0  0  0
 15 18  1  0  0  0  0
 18 19  1  0  0  0  0
 18 20  1  0  0  0  0
  1 21  1  0  0  0  0
 18 21  1  0  0  0  0
 21 22  1  0  0  0  0
 21 23  1  0  0  0  0
 13 24  1  0  0  0  0
 24 25  1  0  0  0  0
M  END
> <VConfSearch Rank>
59

> <Conf_Id>
162

> <Delta U+W>
0.219

> <U+W>
11.132

> <U>
13.296

> <W>
-2.164

> <W(PB)>
-4.311

> <W(SA)>
2.148

> <Valence>
18.607

> <Coulomb>
-8.339

> <VdW>
3.028

> <VdW6>
-12.271

> <VdW12>
15.299

> <Bond>
0.423

> <Angle>
4.488

> <Pdih>
13.696

> <Idih>
0.000

> <Tether>
0.000

$$$$
VeraChem MOL file


 25 25  0  0  0  0  0  0  0  0999 V2000     
   22.2628   19.3963   23.2501 C   0  0  0  0  0  0  0  0  0  0  0  0
   21.9267   19.1564   24.2668 H   0  0  0  0  0  0  0  0  0  0  0  0
   23.3544   19.4896   23.3311 H   0  0  0  0  0  0  0  0  0  0  0  0
   21.9534   18.2139   22.2982 C   0  0  0  0  0  0  0  0  0  0  0  0
   21.9447   18.5477   21.2519 H   0  0  0  0  0  0  0  0  0  0  0  0
   22.7980   17.5153   22.3733 H   0  0  0  0  0  0  0  0  0  0  0  0
   20.6701   17.4069   22.6408 C   0  0  0  0  0  0  0  0  0  0  0  0
   20.5355   17.3177   23.7271 H   0  0  0  0  0  0  0  0  0  0  0  0
   20.8357   16.3811   22.2837 H   0  0  0  0  0  0  0  0  0  0  0  0
   19.3699   17.9128   21.9635 C   0  0  0  0  0  0  0  0  0  0  0  0
   19.5987   18.3185   20.9703 H   0  0  0  0  0  0  0  0  0  0  0  0
   18.7304   17.0412   21.7722 H   0  0  0  0  0  0  0  0  0  0  0  0
   18.5153   18.9165   22.7782 C   0  0  0  0  0  0  0  0  0  0  0  0
   18.0605   18.3687   23.6161 H   0  0  0  0  0  0  0  0  0  0  0  0
   19.2674   20.1294   23.3760 C   0  0  0  0  0  0  0  0  0  0  0  0
   18.5279   20.8561   23.7366 H   0  0  0  0  0  0  0  0  0  0  0  0
   19.7974   19.8091   24.2793 H   0  0  0  0  0  0  0  0  0  0  0  0
   20.2314   20.8451   22.3931 C   0  0  0  0  0  0  0  0  0  0  0  0
   19.9397   21.9014   22.3187 H   0  0  0  0  0  0  0  0  0  0  0  0
   20.1167   20.4518   21.3762 H   0  0  0  0  0  0  0  0  0  0  0  0
   21.7213   20.7817   22.8078 C   0  0  0  0  0  0  0  0  0  0  0  0
   21.8888   21.4918   23.6290 H   0  0  0  0  0  0  0  0  0  0  0  0
   22.3273   21.1480   21.9680 H   0  0  0  0  0  0  0  0  0  0  0  0
   17.4822   19.3986   21.9271 O   0  0  0  0  0  0  0  0  0  0  0  0
   16.9544   20.0320   22.4557 H   0  0  0  0  0  0  0  0  0  0  0  0
  1  2  1  0  0  0  0
  1  3  1  0  0  0  0
  1  4  1  0  0  0  0
  4  5  1  0  0  0  0
  4  6  1  0  0  0  0
  4  7  1  0  0  0  0
  7  8  1  0  0  0  0
  7  9  1  0  0  0  0
  7 10  1  0  0  0  0
 10 11  1  0  0  0  0
 10 12  1  0  0  0  0
 10 13  1  0  0  0  0
 13 14  1  0  0  0  0
 13 15  1  0  0  0  0
 15 16  1  0  0  0  0
 15 17  1  0  0  0  0
 15 18  1  0  0  0  0
 18 19  1  0  0  0  0
 18 20  1  0  0  0  0
  1 21  1  0  0  0  0
 18 21  1  0  0  0  0
 21 22  1  0  0  0  0
 21 23  1  0  0  0  0
 13 24  1  0  0  0  0
 24 25  1  0  0  0  0
M  END
> <VConfSearch Rank>
60

> <Conf_Id>
155

> <Delta U+W>
0.339

> <U+W>
11.252

> <U>
13.420

> <W>
-2.167

> <W(PB)>
-4.325

> <W(SA)>
2.157

> <Valence>
18.609

> <Coulomb>
-8.052

> <VdW>
2.863

> <VdW6>
-12.524

> <VdW12>
15.387

> <Bond>
0.430

> <Angle>
4.724

> <Pdih>
13.455

> <Idih>
0.000

> <Tether>
0.000

$$$$
VeraChem MOL file


 25 25  0  0  0  0  0  0  0  0999 V2000     
   20.2930   19.9048   20.7891 C   0  0  0  0  0  0  0  0  0  0  0  0
   20.8704   20.8237   20.6201 H   0  0  0  0  0  0  0  0  0  0  0  0
   19.8653   19.6444   19.8113 H   0  0  0  0  0  0  0  0  0  0  0  0
   21.2615   18.7568   21.1775 C   0  0  0  0  0  0  0  0  0  0  0  0
   20.7042   17.8163   21.2317 H   0  0  0  0  0  0  0  0  0  0  0  0
   21.9468   18.6009   20.3333 H   0  0  0  0  0  0  0  0  0  0  0  0
   22.1391   18.9541   22.4480 C   0  0  0  0  0  0  0  0  0  0  0  0
   23.0455   19.4936   22.1413 H   0  0  0  0  0  0  0  0  0  0  0  0
   22.4859   17.9721   22.7973 H   0  0  0  0  0  0  0  0  0  0  0  0
   21.5304   19.7337   23.6454 C   0  0  0  0  0  0  0  0  0  0  0  0
   22.3341   19.8914   24.3766 H   0  0  0  0  0  0  0  0  0  0  0  0
   21.2840   20.7497   23.3247 H   0  0  0  0  0  0  0  0  0  0  0  0
   20.3235   19.0959   24.3943 C   0  0  0  0  0  0  0  0  0  0  0  0
   19.7725   19.9062   24.8928 H   0  0  0  0  0  0  0  0  0  0  0  0
   19.3097   18.2751   23.5582 C   0  0  0  0  0  0  0  0  0  0  0  0
   19.8269   17.4252   23.1035 H   0  0  0  0  0  0  0  0  0  0  0  0
   18.6074   17.8056   24.2595 H   0  0  0  0  0  0  0  0  0  0  0  0
   18.4543   19.0344   22.4999 C   0  0  0  0  0  0  0  0  0  0  0  0
   17.5683   19.4296   23.0154 H   0  0  0  0  0  0  0  0  0  0  0  0
   18.0689   18.3105   21.7693 H   0  0  0  0  0  0  0  0  0  0  0  0
   19.1063   20.2228   21.7455 C   0  0  0  0  0  0  0  0  0  0  0  0
   19.3827   21.0013   22.4634 H   0  0  0  0  0  0  0  0  0  0  0  0
   18.3238   20.6997   21.1396 H   0  0  0  0  0  0  0  0  0  0  0  0
   20.8416   18.2218   25.3912 O   0  0  0  0  0  0  0  0  0  0  0  0
   21.4429   18.7554   25.9506 H   0  0  0  0  0  0  0  0  0  0  0  0
  1  2  1  0  0  0  0
  1  3  1  0  0  0  0
  1  4  1  0  0  0  0
  4  5  1  0  0  0  0
  4  6  1  0  0  0  0
  4  7  1  0  0  0  0
  7  8  1  0  0  0  0
  7  9  1  0  0  0  0
  7 10  1  0  0  0  0
 10 11  1  0  0  0  0
 10 12  1  0  0  0  0
 10 13  1  0  0  0  0
 13 14  1  0  0  0  0
 13 15  1  0  0  0  0
 15 16  1  0  0  0  0
 15 17  1  0  0  0  0
 15 18  1  0  0  0  0
 18 19  1  0  0  0  0
 18 20  1  0  0  0  0
  1 21  1  0  0  0  0
 18 21  1  0  0  0  0
 21 22  1  0  0  0  0
 21 23  1  0  0  0  0
 13 24  1  0  0  0  0
 24 25  1  0  0  0  0
M  END
> <VConfSearch Rank>
61

> <Conf_Id>
146

> <Delta U+W>
2.553

> <U+W>
13.466

> <U>
15.643

> <W>
-2.176

> <W(PB)>
-4.307

> <W(SA)>
2.131

> <Valence>
18.916

> <Coulomb>
-7.506

> <VdW>
4.232

> <VdW6>
-13.632

> <VdW12>
17.864

> <Bond>
0.735

> <Angle>
9.140

> <Pdih>
9.042

> <Idih>
0.000

> <Tether>
0.000

$$$$
VeraChem MOL file


 25 25  0  0  0  0  0  0  0  0999 V2000     
   21.8681   18.1797   21.8009 C   0  0  0  0  0  0  0  0  0  0  0  0
   22.3684   17.3463   22.3124 H   0  0  0  0  0  0  0  0  0  0  0  0
   22.3661   18.2704   20.8258 H   0  0  0  0  0  0  0  0  0  0  0  0
   22.1349   19.4920   22.5800 C   0  0  0  0  0  0  0  0  0  0  0  0
   23.2218   19.6516   22.5867 H   0  0  0  0  0  0  0  0  0  0  0  0
   21.7338   20.3505   22.0294 H   0  0  0  0  0  0  0  0  0  0  0  0
   21.6573   19.5197   24.0536 C   0  0  0  0  0  0  0  0  0  0  0  0
   22.0179   20.4563   24.5005 H   0  0  0  0  0  0  0  0  0  0  0  0
   22.1530   18.7136   24.6113 H   0  0  0  0  0  0  0  0  0  0  0  0
   20.1281   19.4352   24.2988 C   0  0  0  0  0  0  0  0  0  0  0  0
   19.7929   18.3941   24.2551 H   0  0  0  0  0  0  0  0  0  0  0  0
   19.9512   19.7366   25.3401 H   0  0  0  0  0  0  0  0  0  0  0  0
   19.2616   20.3163   23.3624 C   0  0  0  0  0  0  0  0  0  0  0  0
   19.8819   21.1108   22.9263 H   0  0  0  0  0  0  0  0  0  0  0  0
   18.5582   19.5320   22.2258 C   0  0  0  0  0  0  0  0  0  0  0  0
   17.9651   18.7179   22.6631 H   0  0  0  0  0  0  0  0  0  0  0  0
   17.8329   20.2042   21.7488 H   0  0  0  0  0  0  0  0  0  0  0  0
   19.4650   18.9599   21.1024 C   0  0  0  0  0  0  0  0  0  0  0  0
   20.0412   19.7605   20.6209 H   0  0  0  0  0  0  0  0  0  0  0  0
   18.7990   18.5750   20.3180 H   0  0  0  0  0  0  0  0  0  0  0  0
   20.3887   17.7945   21.5417 C   0  0  0  0  0  0  0  0  0  0  0  0
   20.3875   17.0386   20.7443 H   0  0  0  0  0  0  0  0  0  0  0  0
   19.9669   17.2751   22.4096 H   0  0  0  0  0  0  0  0  0  0  0  0
   18.2439   20.9274   24.1474 O   0  0  0  0  0  0  0  0  0  0  0  0
   17.7456   21.5238   23.5506 H   0  0  0  0  0  0  0  0  0  0  0  0
  1  2  1  0  0  0  0
  1  3  1  0  0  0  0
  1  4  1  0  0  0  0
  4  5  1  0  0  0  0
  4  6  1  0  0  0  0
  4  7  1  0  0  0  0
  7  8  1  0  0  0  0
  7  9  1  0  0  0  0
  7 10  1  0  0  0  0
 10 11  1  0  0  0  0
 10 12  1  0  0  0  0
 10 13  1  0  0  0  0
 13 14  1  0  0  0  0
 13 15  1  0  0  0  0
 15 16  1  0  0  0  0
 15 17  1  0  0  0  0
 15 18  1  0  0  0  0
 18 19  1  0  0  0  0
 18 20  1  0  0  0  0
  1 21  1  0  0  0  0
 18 21  1  0  0  0  0
 21 22  1  0  0  0  0
 21 23  1  0  0  0  0
 13 24  1  0  0  0  0
 24 25  1  0  0  0  0
M  END
> <VConfSearch Rank>
62

> <Conf_Id>
62

> <Delta U+W>
-1.779

> <U+W>
9.134

> <U>
11.364

> <W>
-2.230

> <W(PB)>
-4.359

> <W(SA)>
2.129

> <Valence>
16.582

> <Coulomb>
-8.150

> <VdW>
2.933

> <VdW6>
-12.531

> <VdW12>
15.464

> <Bond>
0.439

> <Angle>
5.099

> <Pdih>
11.044

> <Idih>
0.000

> <Tether>
0.000

$$$$
VeraChem MOL file


 25 25  0  0  0  0  0  0  0  0999 V2000     
   18.9364   20.3925   22.5603 C   0  0  0  0  0  0  0  0  0  0  0  0
   19.2512   20.4451   23.6088 H   0  0  0  0  0  0  0  0  0  0  0  0
   18.0823   21.0798   22.4932 H   0  0  0  0  0  0  0  0  0  0  0  0
   18.4129   18.9738   22.2241 C   0  0  0  0  0  0  0  0  0  0  0  0
   17.5597   18.7727   22.8862 H   0  0  0  0  0  0  0  0  0  0  0  0
   18.0048   18.9700   21.2043 H   0  0  0  0  0  0  0  0  0  0  0  0
   19.4131   17.7986   22.3700 C   0  0  0  0  0  0  0  0  0  0  0  0
   20.0365   17.7104   21.4730 H   0  0  0  0  0  0  0  0  0  0  0  0
   18.8232   16.8719   22.3865 H   0  0  0  0  0  0  0  0  0  0  0  0
   20.2963   17.8341   23.6459 C   0  0  0  0  0  0  0  0  0  0  0  0
   19.8175   18.4186   24.4411 H   0  0  0  0  0  0  0  0  0  0  0  0
   20.3484   16.8079   24.0327 H   0  0  0  0  0  0  0  0  0  0  0  0
   21.7515   18.3160   23.4190 C   0  0  0  0  0  0  0  0  0  0  0  0
   22.1924   17.7129   22.6123 H   0  0  0  0  0  0  0  0  0  0  0  0
   21.9332   19.8111   23.0565 C   0  0  0  0  0  0  0  0  0  0  0  0
   21.5029   20.4510   23.8364 H   0  0  0  0  0  0  0  0  0  0  0  0
   23.0117   20.0165   23.0778 H   0  0  0  0  0  0  0  0  0  0  0  0
   21.4127   20.2134   21.6504 C   0  0  0  0  0  0  0  0  0  0  0  0
   21.3893   19.3424   20.9858 H   0  0  0  0  0  0  0  0  0  0  0  0
   22.1488   20.8884   21.1927 H   0  0  0  0  0  0  0  0  0  0  0  0
   20.0475   20.9474   21.6345 C   0  0  0  0  0  0  0  0  0  0  0  0
   19.6747   20.9847   20.6020 H   0  0  0  0  0  0  0  0  0  0  0  0
   20.2250   21.9922   21.9240 H   0  0  0  0  0  0  0  0  0  0  0  0
   22.4776   18.0754   24.6179 O   0  0  0  0  0  0  0  0  0  0  0  0
   22.4125   17.1149   24.8005 H   0  0  0  0  0  0  0  0  0  0  0  0
  1  2  1  0  0  0  0
  1  3  1  0  0  0  0
  1  4  1  0  0  0  0
  4  5  1  0  0  0  0
  4  6  1  0  0  0  0
  4  7  1  0  0  0  0
  7  8  1  0  0  0  0
  7  9  1  0  0  0  0
  7 10  1  0  0  0  0
 10 11  1  0  0  0  0
 10 12  1  0  0  0  0
 10 13  1  0  0  0  0
 13 14  1  0  0  0  0
 13 15  1  0  0  0  0
 15 16  1  0  0  0  0
 15 17  1  0  0  0  0
 15 18  1  0  0  0  0
 18 19  1  0  0  0  0
 18 20  1  0  0  0  0
  1 21  1  0  0  0  0
 18 21  1  0  0  0  0
 21 22  1  0  0  0  0
 21 23  1  0  0  0  0
 13 24  1  0  0  0  0
 24 25  1  0  0  0  0
M  END
> <VConfSearch Rank>
63

> <Conf_Id>
121

> <Delta U+W>
-1.283

> <U+W>
9.630

> <U>
11.876

> <W>
-2.246

> <W(PB)>
-4.376

> <W(SA)>
2.130

> <Valence>
17.153

> <Coulomb>
-7.966

> <VdW>
2.689

> <VdW6>
-12.458

> <VdW12>
15.147

> <Bond>
0.421

> <Angle>
5.258

> <Pdih>
11.475

> <Idih>
0.000

> <Tether>
0.000

$$$$
VeraChem MOL file


 25 25  0  0  0  0  0  0  0  0999 V2000     
   21.3494   20.0126   21.2899 C   0  0  0  0  0  0  0  0  0  0  0  0
   22.0926   19.5133   21.9219 H   0  0  0  0  0  0  0  0  0  0  0  0
   21.9327   20.4437   20.4649 H   0  0  0  0  0  0  0  0  0  0  0  0
   20.6941   21.1899   22.0544 C   0  0  0  0  0  0  0  0  0  0  0  0
   21.4943   21.8926   22.3241 H   0  0  0  0  0  0  0  0  0  0  0  0
   20.0319   21.7413   21.3733 H   0  0  0  0  0  0  0  0  0  0  0  0
   19.9116   20.8447   23.3472 C   0  0  0  0  0  0  0  0  0  0  0  0
   18.8919   20.5238   23.1060 H   0  0  0  0  0  0  0  0  0  0  0  0
   19.7797   21.7815   23.9058 H   0  0  0  0  0  0  0  0  0  0  0  0
   20.5989   19.8151   24.2837 C   0  0  0  0  0  0  0  0  0  0  0  0
   21.6846   19.8019   24.1292 H   0  0  0  0  0  0  0  0  0  0  0  0
   20.4588   20.1653   25.3149 H   0  0  0  0  0  0  0  0  0  0  0  0
   20.0227   18.3788   24.2130 C   0  0  0  0  0  0  0  0  0  0  0  0
   18.9360   18.4387   24.3693 H   0  0  0  0  0  0  0  0  0  0  0  0
   20.2823   17.5962   22.9009 C   0  0  0  0  0  0  0  0  0  0  0  0
   21.3589   17.5212   22.7048 H   0  0  0  0  0  0  0  0  0  0  0  0
   19.9454   16.5641   23.0638 H   0  0  0  0  0  0  0  0  0  0  0  0
   19.5246   18.1348   21.6578 C   0  0  0  0  0  0  0  0  0  0  0  0
   18.6314   18.6916   21.9632 H   0  0  0  0  0  0  0  0  0  0  0  0
   19.1336   17.2759   21.0954 H   0  0  0  0  0  0  0  0  0  0  0  0
   20.3790   18.9741   20.6738 C   0  0  0  0  0  0  0  0  0  0  0  0
   19.7110   19.4789   19.9629 H   0  0  0  0  0  0  0  0  0  0  0  0
   20.9803   18.2780   20.0733 H   0  0  0  0  0  0  0  0  0  0  0  0
   20.5972   17.6346   25.2800 O   0  0  0  0  0  0  0  0  0  0  0  0
   20.1756   16.7501   25.2675 H   0  0  0  0  0  0  0  0  0  0  0  0
  1  2  1  0  0  0  0
  1  3  1  0  0  0  0
  1  4  1  0  0  0  0
  4  5  1  0  0  0  0
  4  6  1  0  0  0  0
  4  7  1  0  0  0  0
  7  8  1  0  0  0  0
  7  9  1  0  0  0  0
  7 10  1  0  0  0  0
 10 11  1  0  0  0  0
 10 12  1  0  0  0  0
 10 13  1  0  0  0  0
 13 14  1  0  0  0  0
 13 15  1  0  0  0  0
 15 16  1  0  0  0  0
 15 17  1  0  0  0  0
 15 18  1  0  0  0  0
 18 19  1  0  0  0  0
 18 20  1  0  0  0  0
  1 21  1  0  0  0  0
 18 21  1  0  0  0  0
 21 22  1  0  0  0  0
 21 23  1  0  0  0  0
 13 24  1  0  0  0  0
 24 25  1  0  0  0  0
M  END
> <VConfSearch Rank>
64

> <Conf_Id>
24

> <Delta U+W>
-1.236

> <U+W>
9.678

> <U>
11.876

> <W>
-2.199

> <W(PB)>
-4.335

> <W(SA)>
2.137

> <Valence>
17.153

> <Coulomb>
-7.966

> <VdW>
2.689

> <VdW6>
-12.458

> <VdW12>
15.147

> <Bond>
0.421

> <Angle>
5.258

> <Pdih>
11.475

> <Idih>
0.000

> <Tether>
0.000

$$$$
VeraChem MOL file


 25 25  0  0  0  0  0  0  0  0999 V2000     
   20.0048   18.1774   20.7693 C   0  0  0  0  0  0  0  0  0  0  0  0
   19.8694   18.7090   19.8175 H   0  0  0  0  0  0  0  0  0  0  0  0
   19.9108   17.1096   20.5291 H   0  0  0  0  0  0  0  0  0  0  0  0
   21.4482   18.4262   21.2821 C   0  0  0  0  0  0  0  0  0  0  0  0
   21.7276   17.6736   22.0303 H   0  0  0  0  0  0  0  0  0  0  0  0
   22.1241   18.2425   20.4356 H   0  0  0  0  0  0  0  0  0  0  0  0
   21.7412   19.8466   21.8253 C   0  0  0  0  0  0  0  0  0  0  0  0
   21.1744   20.6029   21.2656 H   0  0  0  0  0  0  0  0  0  0  0  0
   22.7980   20.0579   21.6116 H   0  0  0  0  0  0  0  0  0  0  0  0
   21.5477   20.0205   23.3584 C   0  0  0  0  0  0  0  0  0  0  0  0
   21.8570   19.1151   23.8961 H   0  0  0  0  0  0  0  0  0  0  0  0
   22.2482   20.8051   23.6755 H   0  0  0  0  0  0  0  0  0  0  0  0
   20.1259   20.4520   23.7936 C   0  0  0  0  0  0  0  0  0  0  0  0
   19.6725   21.0316   22.9786 H   0  0  0  0  0  0  0  0  0  0  0  0
   19.1735   19.2958   24.1910 C   0  0  0  0  0  0  0  0  0  0  0  0
   19.4866   18.8820   25.1585 H   0  0  0  0  0  0  0  0  0  0  0  0
   18.1774   19.7275   24.3555 H   0  0  0  0  0  0  0  0  0  0  0  0
   19.0374   18.1247   23.1857 C   0  0  0  0  0  0  0  0  0  0  0  0
   18.1726   17.5173   23.4854 H   0  0  0  0  0  0  0  0  0  0  0  0
   19.8979   17.4526   23.2824 H   0  0  0  0  0  0  0  0  0  0  0  0
   18.8442   18.5729   21.7149 C   0  0  0  0  0  0  0  0  0  0  0  0
   18.6689   19.6531   21.6508 H   0  0  0  0  0  0  0  0  0  0  0  0
   17.9220   18.1185   21.3277 H   0  0  0  0  0  0  0  0  0  0  0  0
   20.2444   21.3074   24.9232 O   0  0  0  0  0  0  0  0  0  0  0  0
   20.6685   20.7772   25.6289 H   0  0  0  0  0  0  0  0  0  0  0  0
  1  2  1  0  0  0  0
  1  3  1  0  0  0  0
  1  4  1  0  0  0  0
  4  5  1  0  0  0  0
  4  6  1  0  0  0  0
  4  7  1  0  0  0  0
  7  8  1  0  0  0  0
  7  9  1  0  0  0  0
  7 10  1  0  0  0  0
 10 11  1  0  0  0  0
 10 12  1  0  0  0  0
 10 13  1  0  0  0  0
 13 14  1  0  0  0  0
 13 15  1  0  0  0  0
 15 16  1  0  0  0  0
 15 17  1  0  0  0  0
 15 18  1  0  0  0  0
 18 19  1  0  0  0  0
 18 20  1  0  0  0  0
  1 21  1  0  0  0  0
 18 21  1  0  0  0  0
 21 22  1  0  0  0  0
 21 23  1  0  0  0  0
 13 24  1  0  0  0  0
 24 25  1  0  0  0  0
M  END
> <VConfSearch Rank>
65

> <Conf_Id>
167

> <Delta U+W>
0.388

> <U+W>
11.301

> <U>
13.202

> <W>
-1.901

> <W(PB)>
-4.065

> <W(SA)>
2.163

> <Valence>
18.957

> <Coulomb>
-8.753

> <VdW>
2.998

> <VdW6>
-12.294

> <VdW12>
15.292

> <Bond>
0.419

> <Angle>
4.543

> <Pdih>
13.996

> <Idih>
0.000

> <Tether>
0.000

$$$$
VeraChem MOL file


 25 25  0  0  0  0  0  0  0  0999 V2000     
   21.9985   18.4305   21.7897 C   0  0  0  0  0  0  0  0  0  0  0  0
   22.0325   17.3792   21.4734 H   0  0  0  0  0  0  0  0  0  0  0  0
   22.9741   18.8540   21.5144 H   0  0  0  0  0  0  0  0  0  0  0  0
   21.8792   18.4864   23.3350 C   0  0  0  0  0  0  0  0  0  0  0  0
   21.1856   17.7192   23.6971 H   0  0  0  0  0  0  0  0  0  0  0  0
   22.8540   18.1872   23.7440 H   0  0  0  0  0  0  0  0  0  0  0  0
   21.5141   19.8728   23.9260 C   0  0  0  0  0  0  0  0  0  0  0  0
   21.8220   20.6826   23.2521 H   0  0  0  0  0  0  0  0  0  0  0  0
   22.1147   20.0126   24.8352 H   0  0  0  0  0  0  0  0  0  0  0  0
   20.0252   20.0347   24.3375 C   0  0  0  0  0  0  0  0  0  0  0  0
   19.7527   19.2383   25.0423 H   0  0  0  0  0  0  0  0  0  0  0  0
   19.9389   20.9723   24.9026 H   0  0  0  0  0  0  0  0  0  0  0  0
   18.9837   20.0798   23.1919 C   0  0  0  0  0  0  0  0  0  0  0  0
   19.2761   20.8550   22.4710 H   0  0  0  0  0  0  0  0  0  0  0  0
   18.7899   18.7272   22.4587 C   0  0  0  0  0  0  0  0  0  0  0  0
   19.1147   17.9015   23.0998 H   0  0  0  0  0  0  0  0  0  0  0  0
   17.7182   18.5451   22.3031 H   0  0  0  0  0  0  0  0  0  0  0  0
   19.4760   18.6297   21.0714 C   0  0  0  0  0  0  0  0  0  0  0  0
   18.8582   19.1814   20.3497 H   0  0  0  0  0  0  0  0  0  0  0  0
   19.4597   17.5831   20.7385 H   0  0  0  0  0  0  0  0  0  0  0  0
   20.9212   19.1781   20.9642 C   0  0  0  0  0  0  0  0  0  0  0  0
   20.9445   20.2502   21.1903 H   0  0  0  0  0  0  0  0  0  0  0  0
   21.2167   19.1124   19.9082 H   0  0  0  0  0  0  0  0  0  0  0  0
   17.7381   20.4568   23.7669 O   0  0  0  0  0  0  0  0  0  0  0  0
   17.1035   20.5497   23.0258 H   0  0  0  0  0  0  0  0  0  0  0  0
  1  2  1  0  0  0  0
  1  3  1  0  0  0  0
  1  4  1  0  0  0  0
  4  5  1  0  0  0  0
  4  6  1  0  0  0  0
  4  7  1  0  0  0  0
  7  8  1  0  0  0  0
  7  9  1  0  0  0  0
  7 10  1  0  0  0  0
 10 11  1  0  0  0  0
 10 12  1  0  0  0  0
 10 13  1  0  0  0  0
 13 14  1  0  0  0  0
 13 15  1  0  0  0  0
 15 16  1  0  0  0  0
 15 17  1  0  0  0  0
 15 18  1  0  0  0  0
 18 19  1  0  0  0  0
 18 20  1  0  0  0  0
  1 21  1  0  0  0  0
 18 21  1  0  0  0  0
 21 22  1  0  0  0  0
 21 23  1  0  0  0  0
 13 24  1  0  0  0  0
 24 25  1  0  0  0  0
M  END
> <VConfSearch Rank>
66

> <Conf_Id>
60

> <Delta U+W>
-1.838

> <U+W>
9.075

> <U>
11.150

> <W>
-2.074

> <W(PB)>
-4.196

> <W(SA)>
2.121

> <Valence>
16.582

> <Coulomb>
-8.361

> <VdW>
2.928

> <VdW6>
-12.539

> <VdW12>
15.467

> <Bond>
0.441

> <Angle>
5.093

> <Pdih>
11.049

> <Idih>
0.000

> <Tether>
0.000

$$$$
VeraChem MOL file


 25 25  0  0  0  0  0  0  0  0999 V2000     
   18.8405   18.0542   23.5351 C   0  0  0  0  0  0  0  0  0  0  0  0
   18.5357   18.2212   24.5770 H   0  0  0  0  0  0  0  0  0  0  0  0
   18.2318   17.2112   23.1803 H   0  0  0  0  0  0  0  0  0  0  0  0
   20.3215   17.6001   23.5021 C   0  0  0  0  0  0  0  0  0  0  0  0
   20.3867   16.6609   24.0682 H   0  0  0  0  0  0  0  0  0  0  0  0
   20.6133   17.3272   22.4816 H   0  0  0  0  0  0  0  0  0  0  0  0
   21.3504   18.5806   24.1193 C   0  0  0  0  0  0  0  0  0  0  0  0
   22.3257   18.0749   24.1279 H   0  0  0  0  0  0  0  0  0  0  0  0
   21.0968   18.7560   25.1735 H   0  0  0  0  0  0  0  0  0  0  0  0
   21.5288   19.9482   23.4104 C   0  0  0  0  0  0  0  0  0  0  0  0
   20.7371   20.6391   23.7172 H   0  0  0  0  0  0  0  0  0  0  0  0
   22.4500   20.3986   23.8035 H   0  0  0  0  0  0  0  0  0  0  0  0
   21.6063   19.8790   21.8631 C   0  0  0  0  0  0  0  0  0  0  0  0
   21.8672   18.8594   21.5491 H   0  0  0  0  0  0  0  0  0  0  0  0
   20.3044   20.3128   21.1447 C   0  0  0  0  0  0  0  0  0  0  0  0
   20.0238   21.3192   21.4820 H   0  0  0  0  0  0  0  0  0  0  0  0
   20.5320   20.4120   20.0750 H   0  0  0  0  0  0  0  0  0  0  0  0
   19.0814   19.3645   21.2759 C   0  0  0  0  0  0  0  0  0  0  0  0
   19.3258   18.3605   20.9059 H   0  0  0  0  0  0  0  0  0  0  0  0
   18.3088   19.7419   20.5921 H   0  0  0  0  0  0  0  0  0  0  0  0
   18.4571   19.2995   22.6940 C   0  0  0  0  0  0  0  0  0  0  0  0
   17.3639   19.2904   22.5853 H   0  0  0  0  0  0  0  0  0  0  0  0
   18.6672   20.2206   23.2493 H   0  0  0  0  0  0  0  0  0  0  0  0
   22.6408   20.7544   21.4297 O   0  0  0  0  0  0  0  0  0  0  0  0
   23.4717   20.4294   21.8353 H   0  0  0  0  0  0  0  0  0  0  0  0
  1  2  1  0  0  0  0
  1  3  1  0  0  0  0
  1  4  1  0  0  0  0
  4  5  1  0  0  0  0
  4  6  1  0  0  0  0
  4  7  1  0  0  0  0
  7  8  1  0  0  0  0
  7  9  1  0  0  0  0
  7 10  1  0  0  0  0
 10 11  1  0  0  0  0
 10 12  1  0  0  0  0
 10 13  1  0  0  0  0
 13 14  1  0  0  0  0
 13 15  1  0  0  0  0
 15 16  1  0  0  0  0
 15 17  1  0  0  0  0
 15 18  1  0  0  0  0
 18 19  1  0  0  0  0
 18 20  1  0  0  0  0
  1 21  1  0  0  0  0
 18 21  1  0  0  0  0
 21 22  1  0  0  0  0
 21 23  1  0  0  0  0
 13 24  1  0  0  0  0
 24 25  1  0  0  0  0
M  END
> <VConfSearch Rank>
67

> <Conf_Id>
129

> <Delta U+W>
-1.846

> <U+W>
9.067

> <U>
11.150

> <W>
-2.083

> <W(PB)>
-4.217

> <W(SA)>
2.134

> <Valence>
16.583

> <Coulomb>
-8.361

> <VdW>
2.928

> <VdW6>
-12.539

> <VdW12>
15.467

> <Bond>
0.441

> <Angle>
5.093

> <Pdih>
11.049

> <Idih>
0.000

> <Tether>
0.000

$$$$
VeraChem MOL file


 25 25  0  0  0  0  0  0  0  0999 V2000     
   20.7610   18.2109   20.9165 C   0  0  0  0  0  0  0  0  0  0  0  0
   20.5609   18.6525   19.9309 H   0  0  0  0  0  0  0  0  0  0  0  0
   21.2355   17.2407   20.7154 H   0  0  0  0  0  0  0  0  0  0  0  0
   19.4167   17.9283   21.6328 C   0  0  0  0  0  0  0  0  0  0  0  0
   18.8585   17.2170   21.0089 H   0  0  0  0  0  0  0  0  0  0  0  0
   19.5908   17.3922   22.5728 H   0  0  0  0  0  0  0  0  0  0  0  0
   18.4975   19.1531   21.8676 C   0  0  0  0  0  0  0  0  0  0  0  0
   17.5467   18.7798   22.2722 H   0  0  0  0  0  0  0  0  0  0  0  0
   18.2499   19.6117   20.9007 H   0  0  0  0  0  0  0  0  0  0  0  0
   19.0223   20.2528   22.8271 C   0  0  0  0  0  0  0  0  0  0  0  0
   19.7084   20.9209   22.2965 H   0  0  0  0  0  0  0  0  0  0  0  0
   18.1636   20.8867   23.0866 H   0  0  0  0  0  0  0  0  0  0  0  0
   19.6820   19.7280   24.1286 C   0  0  0  0  0  0  0  0  0  0  0  0
   19.3545   18.6975   24.3200 H   0  0  0  0  0  0  0  0  0  0  0  0
   21.2306   19.7789   24.1227 C   0  0  0  0  0  0  0  0  0  0  0  0
   21.5619   20.8019   23.9015 H   0  0  0  0  0  0  0  0  0  0  0  0
   21.5750   19.5685   25.1442 H   0  0  0  0  0  0  0  0  0  0  0  0
   21.9611   18.7902   23.1740 C   0  0  0  0  0  0  0  0  0  0  0  0
   21.6812   17.7535   23.4014 H   0  0  0  0  0  0  0  0  0  0  0  0
   23.0328   18.8551   23.4068 H   0  0  0  0  0  0  0  0  0  0  0  0
   21.7931   19.0953   21.6630 C   0  0  0  0  0  0  0  0  0  0  0  0
   22.7643   18.9402   21.1733 H   0  0  0  0  0  0  0  0  0  0  0  0
   21.5760   20.1579   21.5065 H   0  0  0  0  0  0  0  0  0  0  0  0
   19.2372   20.5375   25.2098 O   0  0  0  0  0  0  0  0  0  0  0  0
   19.5441   21.4475   25.0185 H   0  0  0  0  0  0  0  0  0  0  0  0
  1  2  1  0  0  0  0
  1  3  1  0  0  0  0
  1  4  1  0  0  0  0
  4  5  1  0  0  0  0
  4  6  1  0  0  0  0
  4  7  1  0  0  0  0
  7  8  1  0  0  0  0
  7  9  1  0  0  0  0
  7 10  1  0  0  0  0
 10 11  1  0  0  0  0
 10 12  1  0  0  0  0
 10 13  1  0  0  0  0
 13 14  1  0  0  0  0
 13 15  1  0  0  0  0
 15 16  1  0  0  0  0
 15 17  1  0  0  0  0
 15 18  1  0  0  0  0
 18 19  1  0  0  0  0
 18 20  1  0  0  0  0
  1 21  1  0  0  0  0
 18 21  1  0  0  0  0
 21 22  1  0  0  0  0
 21 23  1  0  0  0  0
 13 24  1  0  0  0  0
 24 25  1  0  0  0  0
M  END
> <VConfSearch Rank>
68

> <Conf_Id>
140

> <Delta U+W>
-1.702

> <U+W>
9.211

> <U>
11.181

> <W>
-1.969

> <W(PB)>
-4.093

> <W(SA)>
2.124

> <Valence>
16.954

> <Coulomb>
-8.661

> <VdW>
2.887

> <VdW6>
-12.561

> <VdW12>
15.448

> <Bond>
0.433

> <Angle>
5.120

> <Pdih>
11.401

> <Idih>
0.000

> <Tether>
0.000

$$$$
VeraChem MOL file


 25 25  0  0  0  0  0  0  0  0999 V2000     
   19.6800   18.1672   24.3421 C   0  0  0  0  0  0  0  0  0  0  0  0
   18.6151   17.9924   24.5470 H   0  0  0  0  0  0  0  0  0  0  0  0
   20.2214   17.7187   25.1863 H   0  0  0  0  0  0  0  0  0  0  0  0
   19.9519   19.6937   24.3646 C   0  0  0  0  0  0  0  0  0  0  0  0
   19.1407   20.2378   23.8679 H   0  0  0  0  0  0  0  0  0  0  0  0
   19.8943   20.0158   25.4134 H   0  0  0  0  0  0  0  0  0  0  0  0
   21.3280   20.1327   23.8005 C   0  0  0  0  0  0  0  0  0  0  0  0
   22.0637   19.3218   23.8780 H   0  0  0  0  0  0  0  0  0  0  0  0
   21.7119   20.9307   24.4506 H   0  0  0  0  0  0  0  0  0  0  0  0
   21.2875   20.7040   22.3572 C   0  0  0  0  0  0  0  0  0  0  0  0
   20.5764   21.5397   22.3204 H   0  0  0  0  0  0  0  0  0  0  0  0
   22.2731   21.1420   22.1499 H   0  0  0  0  0  0  0  0  0  0  0  0
   20.9679   19.7040   21.2176 C   0  0  0  0  0  0  0  0  0  0  0  0
   21.6616   18.8547   21.2763 H   0  0  0  0  0  0  0  0  0  0  0  0
   19.5064   19.1859   21.2156 C   0  0  0  0  0  0  0  0  0  0  0  0
   18.8550   19.8856   21.7492 H   0  0  0  0  0  0  0  0  0  0  0  0
   19.1248   19.1827   20.1856 H   0  0  0  0  0  0  0  0  0  0  0  0
   19.3181   17.7501   21.7710 C   0  0  0  0  0  0  0  0  0  0  0  0
   19.6346   17.0440   20.9910 H   0  0  0  0  0  0  0  0  0  0  0  0
   18.2463   17.5643   21.9235 H   0  0  0  0  0  0  0  0  0  0  0  0
   20.0895   17.3907   23.0656 C   0  0  0  0  0  0  0  0  0  0  0  0
   21.1706   17.4673   22.9030 H   0  0  0  0  0  0  0  0  0  0  0  0
   19.9150   16.3242   23.2631 H   0  0  0  0  0  0  0  0  0  0  0  0
   21.2022   20.3773   19.9872 O   0  0  0  0  0  0  0  0  0  0  0  0
   20.5767   21.1303   19.9605 H   0  0  0  0  0  0  0  0  0  0  0  0
  1  2  1  0  0  0  0
  1  3  1  0  0  0  0
  1  4  1  0  0  0  0
  4  5  1  0  0  0  0
  4  6  1  0  0  0  0
  4  7  1  0  0  0  0
  7  8  1  0  0  0  0
  7  9  1  0  0  0  0
  7 10  1  0  0  0  0
 10 11  1  0  0  0  0
 10 12  1  0  0  0  0
 10 13  1  0  0  0  0
 13 14  1  0  0  0  0
 13 15  1  0  0  0  0
 15 16  1  0  0  0  0
 15 17  1  0  0  0  0
 15 18  1  0  0  0  0
 18 19  1  0  0  0  0
 18 20  1  0  0  0  0
  1 21  1  0  0  0  0
 18 21  1  0  0  0  0
 21 22  1  0  0  0  0
 21 23  1  0  0  0  0
 13 24  1  0  0  0  0
 24 25  1  0  0  0  0
M  END
> <VConfSearch Rank>
69

> <Conf_Id>
68

> <Delta U+W>
-1.765

> <U+W>
9.148

> <U>
11.181

> <W>
-2.032

> <W(PB)>
-4.147

> <W(SA)>
2.114

> <Valence>
16.955

> <Coulomb>
-8.661

> <VdW>
2.887

> <VdW6>
-12.561

> <VdW12>
15.448

> <Bond>
0.433

> <Angle>
5.121

> <Pdih>
11.402

> <Idih>
0.000

> <Tether>
0.000

$$$$
VeraChem MOL file


 25 25  0  0  0  0  0  0  0  0999 V2000     
   19.3505   18.7218   24.2315 C   0  0  0  0  0  0  0  0  0  0  0  0
   18.7817   18.3523   25.0959 H   0  0  0  0  0  0  0  0  0  0  0  0
   19.6174   19.7497   24.5018 H   0  0  0  0  0  0  0  0  0  0  0  0
   18.4118   18.7087   22.9970 C   0  0  0  0  0  0  0  0  0  0  0  0
   18.5323   17.7840   22.4180 H   0  0  0  0  0  0  0  0  0  0  0  0
   17.3783   18.6803   23.3685 H   0  0  0  0  0  0  0  0  0  0  0  0
   18.5278   19.9528   22.0776 C   0  0  0  0  0  0  0  0  0  0  0  0
   18.3562   20.8615   22.6709 H   0  0  0  0  0  0  0  0  0  0  0  0
   17.7009   19.9123   21.3556 H   0  0  0  0  0  0  0  0  0  0  0  0
   19.8477   20.1059   21.2756 C   0  0  0  0  0  0  0  0  0  0  0  0
   20.0210   19.2196   20.6535 H   0  0  0  0  0  0  0  0  0  0  0  0
   19.6927   20.9302   20.5664 H   0  0  0  0  0  0  0  0  0  0  0  0
   21.0930   20.4268   22.1423 C   0  0  0  0  0  0  0  0  0  0  0  0
   20.7629   20.8274   23.1077 H   0  0  0  0  0  0  0  0  0  0  0  0
   22.0396   19.2261   22.3876 C   0  0  0  0  0  0  0  0  0  0  0  0
   22.6344   19.0601   21.4798 H   0  0  0  0  0  0  0  0  0  0  0  0
   22.7572   19.5050   23.1702 H   0  0  0  0  0  0  0  0  0  0  0  0
   21.3836   17.8727   22.7646 C   0  0  0  0  0  0  0  0  0  0  0  0
   22.1868   17.1257   22.8252 H   0  0  0  0  0  0  0  0  0  0  0  0
   20.7386   17.5196   21.9518 H   0  0  0  0  0  0  0  0  0  0  0  0
   20.6194   17.8383   24.1118 C   0  0  0  0  0  0  0  0  0  0  0  0
   21.3094   18.0931   24.9277 H   0  0  0  0  0  0  0  0  0  0  0  0
   20.3199   16.7968   24.2920 H   0  0  0  0  0  0  0  0  0  0  0  0
   21.8486   21.4407   21.4914 O   0  0  0  0  0  0  0  0  0  0  0  0
   22.1191   21.0718   20.6255 H   0  0  0  0  0  0  0  0  0  0  0  0
  1  2  1  0  0  0  0
  1  3  1  0  0  0  0
  1  4  1  0  0  0  0
  4  5  1  0  0  0  0
  4  6  1  0  0  0  0
  4  7  1  0  0  0  0
  7  8  1  0  0  0  0
  7  9  1  0  0  0  0
  7 10  1  0  0  0  0
 10 11  1  0  0  0  0
 10 12  1  0  0  0  0
 10 13  1  0  0  0  0
 13 14  1  0  0  0  0
 13 15  1  0  0  0  0
 15 16  1  0  0  0  0
 15 17  1  0  0  0  0
 15 18  1  0  0  0  0
 18 19  1  0  0  0  0
 18 20  1  0  0  0  0
  1 21  1  0  0  0  0
 18 21  1  0  0  0  0
 21 22  1  0  0  0  0
 21 23  1  0  0  0  0
 13 24  1  0  0  0  0
 24 25  1  0  0  0  0
M  END
> <VConfSearch Rank>
70

> <Conf_Id>
165

> <Delta U+W>
-1.999

> <U+W>
8.915

> <U>
10.935

> <W>
-2.020

> <W(PB)>
-4.135

> <W(SA)>
2.115

> <Valence>
16.757

> <Coulomb>
-8.731

> <VdW>
2.908

> <VdW6>
-12.597

> <VdW12>
15.506

> <Bond>
0.434

> <Angle>
5.069

> <Pdih>
11.254

> <Idih>
0.000

> <Tether>
0.000

$$$$
VeraChem MOL file


 25 25  0  0  0  0  0  0  0  0999 V2000     
   19.4021   18.8018   24.2094 C   0  0  0  0  0  0  0  0  0  0  0  0
   18.8466   18.6655   25.1475 H   0  0  0  0  0  0  0  0  0  0  0  0
   19.5375   17.7848   23.8244 H   0  0  0  0  0  0  0  0  0  0  0  0
   20.7683   19.4359   24.5792 C   0  0  0  0  0  0  0  0  0  0  0  0
   20.5841   20.2052   25.3415 H   0  0  0  0  0  0  0  0  0  0  0  0
   21.3927   18.6769   25.0698 H   0  0  0  0  0  0  0  0  0  0  0  0
   21.5743   20.1024   23.4362 C   0  0  0  0  0  0  0  0  0  0  0  0
   22.4543   20.5780   23.8903 H   0  0  0  0  0  0  0  0  0  0  0  0
   21.0049   20.9324   23.0025 H   0  0  0  0  0  0  0  0  0  0  0  0
   22.0859   19.1549   22.3206 C   0  0  0  0  0  0  0  0  0  0  0  0
   22.7231   19.7488   21.6516 H   0  0  0  0  0  0  0  0  0  0  0  0
   22.7418   18.3987   22.7710 H   0  0  0  0  0  0  0  0  0  0  0  0
   21.0186   18.4358   21.4596 C   0  0  0  0  0  0  0  0  0  0  0  0
   20.6057   17.5924   22.0253 H   0  0  0  0  0  0  0  0  0  0  0  0
   19.8536   19.3420   20.9846 C   0  0  0  0  0  0  0  0  0  0  0  0
   20.1542   20.3964   20.9846 H   0  0  0  0  0  0  0  0  0  0  0  0
   19.6375   19.1067   19.9336 H   0  0  0  0  0  0  0  0  0  0  0  0
   18.5287   19.1544   21.7709 C   0  0  0  0  0  0  0  0  0  0  0  0
   18.2298   18.0980   21.7314 H   0  0  0  0  0  0  0  0  0  0  0  0
   17.7419   19.7030   21.2354 H   0  0  0  0  0  0  0  0  0  0  0  0
   18.5197   19.6369   23.2454 C   0  0  0  0  0  0  0  0  0  0  0  0
   17.4825   19.5635   23.6000 H   0  0  0  0  0  0  0  0  0  0  0  0
   18.7674   20.7044   23.3071 H   0  0  0  0  0  0  0  0  0  0  0  0
   21.6791   17.9109   20.3133 O   0  0  0  0  0  0  0  0  0  0  0  0
   22.3792   17.3089   20.6419 H   0  0  0  0  0  0  0  0  0  0  0  0
  1  2  1  0  0  0  0
  1  3  1  0  0  0  0
  1  4  1  0  0  0  0
  4  5  1  0  0  0  0
  4  6  1  0  0  0  0
  4  7  1  0  0  0  0
  7  8  1  0  0  0  0
  7  9  1  0  0  0  0
  7 10  1  0  0  0  0
 10 11  1  0  0  0  0
 10 12  1  0  0  0  0
 10 13  1  0  0  0  0
 13 14  1  0  0  0  0
 13 15  1  0  0  0  0
 15 16  1  0  0  0  0
 15 17  1  0  0  0  0
 15 18  1  0  0  0  0
 18 19  1  0  0  0  0
 18 20  1  0  0  0  0
  1 21  1  0  0  0  0
 18 21  1  0  0  0  0
 21 22  1  0  0  0  0
 21 23  1  0  0  0  0
 13 24  1  0  0  0  0
 24 25  1  0  0  0  0
M  END
> <VConfSearch Rank>
71

> <Conf_Id>
133

> <Delta U+W>
-2.139

> <U+W>
8.774

> <U>
10.905

> <W>
-2.131

> <W(PB)>
-4.281

> <W(SA)>
2.150

> <Valence>
16.378

> <Coulomb>
-8.448

> <VdW>
2.976

> <VdW6>
-12.570

> <VdW12>
15.545

> <Bond>
0.439

> <Angle>
5.049

> <Pdih>
10.889

> <Idih>
0.000

> <Tether>
0.000

$$$$
VeraChem MOL file


 25 25  0  0  0  0  0  0  0  0999 V2000     
   19.9694   21.0085   22.3108 C   0  0  0  0  0  0  0  0  0  0  0  0
   19.6901   22.0512   22.1064 H   0  0  0  0  0  0  0  0  0  0  0  0
   21.0540   20.9833   22.1565 H   0  0  0  0  0  0  0  0  0  0  0  0
   19.2500   20.1062   21.2746 C   0  0  0  0  0  0  0  0  0  0  0  0
   18.3063   19.7164   21.6771 H   0  0  0  0  0  0  0  0  0  0  0  0
   18.9580   20.7433   20.4285 H   0  0  0  0  0  0  0  0  0  0  0  0
   20.1181   18.9573   20.6970 C   0  0  0  0  0  0  0  0  0  0  0  0
   21.0325   19.3776   20.2564 H   0  0  0  0  0  0  0  0  0  0  0  0
   19.5660   18.5107   19.8589 H   0  0  0  0  0  0  0  0  0  0  0  0
   20.4991   17.8132   21.6742 C   0  0  0  0  0  0  0  0  0  0  0  0
   19.5983   17.3578   22.1023 H   0  0  0  0  0  0  0  0  0  0  0  0
   20.9617   17.0195   21.0720 H   0  0  0  0  0  0  0  0  0  0  0  0
   21.4939   18.2237   22.7904 C   0  0  0  0  0  0  0  0  0  0  0  0
   22.0105   19.1418   22.4868 H   0  0  0  0  0  0  0  0  0  0  0  0
   20.8502   18.4362   24.1825 C   0  0  0  0  0  0  0  0  0  0  0  0
   20.6498   17.4497   24.6220 H   0  0  0  0  0  0  0  0  0  0  0  0
   21.5859   18.9168   24.8402 H   0  0  0  0  0  0  0  0  0  0  0  0
   19.5281   19.2447   24.2350 C   0  0  0  0  0  0  0  0  0  0  0  0
   19.1787   19.2328   25.2764 H   0  0  0  0  0  0  0  0  0  0  0  0
   18.7409   18.7284   23.6737 H   0  0  0  0  0  0  0  0  0  0  0  0
   19.6188   20.7275   23.7952 C   0  0  0  0  0  0  0  0  0  0  0  0
   20.3379   21.2540   24.4374 H   0  0  0  0  0  0  0  0  0  0  0  0
   18.6440   21.1901   24.0016 H   0  0  0  0  0  0  0  0  0  0  0  0
   22.4707   17.1974   22.9250 O   0  0  0  0  0  0  0  0  0  0  0  0
   23.1095   17.5028   23.6027 H   0  0  0  0  0  0  0  0  0  0  0  0
  1  2  1  0  0  0  0
  1  3  1  0  0  0  0
  1  4  1  0  0  0  0
  4  5  1  0  0  0  0
  4  6  1  0  0  0  0
  4  7  1  0  0  0  0
  7  8  1  0  0  0  0
  7  9  1  0  0  0  0
  7 10  1  0  0  0  0
 10 11  1  0  0  0  0
 10 12  1  0  0  0  0
 10 13  1  0  0  0  0
 13 14  1  0  0  0  0
 13 15  1  0  0  0  0
 15 16  1  0  0  0  0
 15 17  1  0  0  0  0
 15 18  1  0  0  0  0
 18 19  1  0  0  0  0
 18 20  1  0  0  0  0
  1 21  1  0  0  0  0
 18 21  1  0  0  0  0
 21 22  1  0  0  0  0
 21 23  1  0  0  0  0
 13 24  1  0  0  0  0
 24 25  1  0  0  0  0
M  END
> <VConfSearch Rank>
72

> <Conf_Id>
95

> <Delta U+W>
-2.190

> <U+W>
8.723

> <U>
10.905

> <W>
-2.182

> <W(PB)>
-4.296

> <W(SA)>
2.114

> <Valence>
16.377

> <Coulomb>
-8.448

> <VdW>
2.976

> <VdW6>
-12.570

> <VdW12>
15.546

> <Bond>
0.439

> <Angle>
5.049

> <Pdih>
10.889

> <Idih>
0.000

> <Tether>
0.000

$$$$
VeraChem MOL file


 25 25  0  0  0  0  0  0  0  0999 V2000     
   20.5299   17.7139   23.7319 C   0  0  0  0  0  0  0  0  0  0  0  0
   20.5554   16.8461   24.4051 H   0  0  0  0  0  0  0  0  0  0  0  0
   21.5841   17.9935   23.6381 H   0  0  0  0  0  0  0  0  0  0  0  0
   19.7200   18.8286   24.4568 C   0  0  0  0  0  0  0  0  0  0  0  0
   18.9284   18.3343   25.0365 H   0  0  0  0  0  0  0  0  0  0  0  0
   20.3671   19.3130   25.2005 H   0  0  0  0  0  0  0  0  0  0  0  0
   19.0319   19.9162   23.5905 C   0  0  0  0  0  0  0  0  0  0  0  0
   18.4186   20.5351   24.2595 H   0  0  0  0  0  0  0  0  0  0  0  0
   18.2956   19.4426   22.9336 H   0  0  0  0  0  0  0  0  0  0  0  0
   19.9524   20.8822   22.7869 C   0  0  0  0  0  0  0  0  0  0  0  0
   19.3706   21.3292   21.9701 H   0  0  0  0  0  0  0  0  0  0  0  0
   20.2095   21.7127   23.4573 H   0  0  0  0  0  0  0  0  0  0  0  0
   21.2810   20.3246   22.2162 C   0  0  0  0  0  0  0  0  0  0  0  0
   21.8672   19.9249   23.0501 H   0  0  0  0  0  0  0  0  0  0  0  0
   21.1711   19.2508   21.0957 C   0  0  0  0  0  0  0  0  0  0  0  0
   21.0771   19.7738   20.1345 H   0  0  0  0  0  0  0  0  0  0  0  0
   22.1235   18.7080   21.0442 H   0  0  0  0  0  0  0  0  0  0  0  0
   20.0088   18.2236   21.1654 C   0  0  0  0  0  0  0  0  0  0  0  0
   20.0373   17.6274   20.2432 H   0  0  0  0  0  0  0  0  0  0  0  0
   19.0534   18.7534   21.0978 H   0  0  0  0  0  0  0  0  0  0  0  0
   20.0038   17.2224   22.3575 C   0  0  0  0  0  0  0  0  0  0  0  0
   20.6225   16.3624   22.0669 H   0  0  0  0  0  0  0  0  0  0  0  0
   18.9881   16.8230   22.4815 H   0  0  0  0  0  0  0  0  0  0  0  0
   22.0071   21.4238   21.6784 O   0  0  0  0  0  0  0  0  0  0  0  0
   22.1286   22.0667   22.4078 H   0  0  0  0  0  0  0  0  0  0  0  0
  1  2  1  0  0  0  0
  1  3  1  0  0  0  0
  1  4  1  0  0  0  0
  4  5  1  0  0  0  0
  4  6  1  0  0  0  0
  4  7  1  0  0  0  0
  7  8  1  0  0  0  0
  7  9  1  0  0  0  0
  7 10  1  0  0  0  0
 10 11  1  0  0  0  0
 10 12  1  0  0  0  0
 10 13  1  0  0  0  0
 13 14  1  0  0  0  0
 13 15  1  0  0  0  0
 15 16  1  0  0  0  0
 15 17  1  0  0  0  0
 15 18  1  0  0  0  0
 18 19  1  0  0  0  0
 18 20  1  0  0  0  0
  1 21  1  0  0  0  0
 18 21  1  0  0  0  0
 21 22  1  0  0  0  0
 21 23  1  0  0  0  0
 13 24  1  0  0  0  0
 24 25  1  0  0  0  0
M  END
> <VConfSearch Rank>
73

> <Conf_Id>
161

> <Delta U+W>
2.120

> <U+W>
13.033

> <U>
15.076

> <W>
-2.043

> <W(PB)>
-4.186

> <W(SA)>
2.143

> <Valence>
18.884

> <Coulomb>
-8.074

> <VdW>
4.266

> <VdW6>
-13.486

> <VdW12>
17.752

> <Bond>
0.713

> <Angle>
8.955

> <Pdih>
9.215

> <Idih>
0.000

> <Tether>
0.000

$$$$
VeraChem MOL file


 25 25  0  0  0  0  0  0  0  0999 V2000     
   18.5463   19.9632   23.0930 C   0  0  0  0  0  0  0  0  0  0  0  0
   17.5967   20.5151   23.1163 H   0  0  0  0  0  0  0  0  0  0  0  0
   18.6525   19.5472   24.1029 H   0  0  0  0  0  0  0  0  0  0  0  0
   19.6832   20.9786   22.8174 C   0  0  0  0  0  0  0  0  0  0  0  0
   19.8161   21.1324   21.7381 H   0  0  0  0  0  0  0  0  0  0  0  0
   19.3459   21.9480   23.2093 H   0  0  0  0  0  0  0  0  0  0  0  0
   21.0371   20.6599   23.5109 C   0  0  0  0  0  0  0  0  0  0  0  0
   20.8797   20.2367   24.5121 H   0  0  0  0  0  0  0  0  0  0  0  0
   21.5416   21.6215   23.6784 H   0  0  0  0  0  0  0  0  0  0  0  0
   22.0121   19.7793   22.6874 C   0  0  0  0  0  0  0  0  0  0  0  0
   21.9062   20.0053   21.6194 H   0  0  0  0  0  0  0  0  0  0  0  0
   23.0350   20.0871   22.9415 H   0  0  0  0  0  0  0  0  0  0  0  0
   21.9364   18.2522   22.9409 C   0  0  0  0  0  0  0  0  0  0  0  0
   22.3375   18.0567   23.9457 H   0  0  0  0  0  0  0  0  0  0  0  0
   20.5308   17.6118   22.8706 C   0  0  0  0  0  0  0  0  0  0  0  0
   20.6511   16.5207   22.8380 H   0  0  0  0  0  0  0  0  0  0  0  0
   20.0064   17.8002   23.8137 H   0  0  0  0  0  0  0  0  0  0  0  0
   19.6691   18.0569   21.6588 C   0  0  0  0  0  0  0  0  0  0  0  0
   19.3742   17.1655   21.0885 H   0  0  0  0  0  0  0  0  0  0  0  0
   20.2543   18.6603   20.9554 H   0  0  0  0  0  0  0  0  0  0  0  0
   18.3849   18.8274   22.0482 C   0  0  0  0  0  0  0  0  0  0  0  0
   17.6467   18.1109   22.4334 H   0  0  0  0  0  0  0  0  0  0  0  0
   17.9446   19.2468   21.1332 H   0  0  0  0  0  0  0  0  0  0  0  0
   22.7654   17.6075   21.9841 O   0  0  0  0  0  0  0  0  0  0  0  0
   22.2992   17.6889   21.1275 H   0  0  0  0  0  0  0  0  0  0  0  0
  1  2  1  0  0  0  0
  1  3  1  0  0  0  0
  1  4  1  0  0  0  0
  4  5  1  0  0  0  0
  4  6  1  0  0  0  0
  4  7  1  0  0  0  0
  7  8  1  0  0  0  0
  7  9  1  0  0  0  0
  7 10  1  0  0  0  0
 10 11  1  0  0  0  0
 10 12  1  0  0  0  0
 10 13  1  0  0  0  0
 13 14  1  0  0  0  0
 13 15  1  0  0  0  0
 15 16  1  0  0  0  0
 15 17  1  0  0  0  0
 15 18  1  0  0  0  0
 18 19  1  0  0  0  0
 18 20  1  0  0  0  0
  1 21  1  0  0  0  0
 18 21  1  0  0  0  0
 21 22  1  0  0  0  0
 21 23  1  0  0  0  0
 13 24  1  0  0  0  0
 24 25  1  0  0  0  0
M  END
> <VConfSearch Rank>
74

> <Conf_Id>
164

> <Delta U+W>
0.008

> <U+W>
10.922

> <U>
12.433

> <W>
-1.511

> <W(PB)>
-3.669

> <W(SA)>
2.157

> <Valence>
19.007

> <Coulomb>
-9.373

> <VdW>
2.799

> <VdW6>
-12.597

> <VdW12>
15.396

> <Bond>
0.425

> <Angle>
4.784

> <Pdih>
13.799

> <Idih>
0.000

> <Tether>
0.000

$$$$
VeraChem MOL file


 25 25  0  0  0  0  0  0  0  0999 V2000     
   21.6370   20.4316   22.8892 C   0  0  0  0  0  0  0  0  0  0  0  0
   20.9547   20.8957   22.1681 H   0  0  0  0  0  0  0  0  0  0  0  0
   22.4325   21.1750   23.0348 H   0  0  0  0  0  0  0  0  0  0  0  0
   22.2938   19.1693   22.2768 C   0  0  0  0  0  0  0  0  0  0  0  0
   22.8476   19.4876   21.3830 H   0  0  0  0  0  0  0  0  0  0  0  0
   23.0503   18.7805   22.9718 H   0  0  0  0  0  0  0  0  0  0  0  0
   21.3498   18.0119   21.8619 C   0  0  0  0  0  0  0  0  0  0  0  0
   21.1071   17.3842   22.7269 H   0  0  0  0  0  0  0  0  0  0  0  0
   21.9208   17.3515   21.1950 H   0  0  0  0  0  0  0  0  0  0  0  0
   20.0554   18.4450   21.1232 C   0  0  0  0  0  0  0  0  0  0  0  0
   20.1898   19.4165   20.6324 H   0  0  0  0  0  0  0  0  0  0  0  0
   19.8901   17.7282   20.3076 H   0  0  0  0  0  0  0  0  0  0  0  0
   18.7748   18.4411   21.9952 C   0  0  0  0  0  0  0  0  0  0  0  0
   18.6859   17.4529   22.4687 H   0  0  0  0  0  0  0  0  0  0  0  0
   18.6899   19.5179   23.1059 C   0  0  0  0  0  0  0  0  0  0  0  0
   18.7794   20.5247   22.6803 H   0  0  0  0  0  0  0  0  0  0  0  0
   17.6753   19.4684   23.5235 H   0  0  0  0  0  0  0  0  0  0  0  0
   19.6827   19.3219   24.2827 C   0  0  0  0  0  0  0  0  0  0  0  0
   19.9797   18.2701   24.3639 H   0  0  0  0  0  0  0  0  0  0  0  0
   19.1488   19.5296   25.2201 H   0  0  0  0  0  0  0  0  0  0  0  0
   20.9315   20.2397   24.2549 C   0  0  0  0  0  0  0  0  0  0  0  0
   21.6596   19.8732   24.9912 H   0  0  0  0  0  0  0  0  0  0  0  0
   20.6256   21.2335   24.6095 H   0  0  0  0  0  0  0  0  0  0  0  0
   17.6635   18.6269   21.1293 O   0  0  0  0  0  0  0  0  0  0  0  0
   17.7730   19.5122   20.7255 H   0  0  0  0  0  0  0  0  0  0  0  0
  1  2  1  0  0  0  0
  1  3  1  0  0  0  0
  1  4  1  0  0  0  0
  4  5  1  0  0  0  0
  4  6  1  0  0  0  0
  4  7  1  0  0  0  0
  7  8  1  0  0  0  0
  7  9  1  0  0  0  0
  7 10  1  0  0  0  0
 10 11  1  0  0  0  0
 10 12  1  0  0  0  0
 10 13  1  0  0  0  0
 13 14  1  0  0  0  0
 13 15  1  0  0  0  0
 15 16  1  0  0  0  0
 15 17  1  0  0  0  0
 15 18  1  0  0  0  0
 18 19  1  0  0  0  0
 18 20  1  0  0  0  0
  1 21  1  0  0  0  0
 18 21  1  0  0  0  0
 21 22  1  0  0  0  0
 21 23  1  0  0  0  0
 13 24  1  0  0  0  0
 24 25  1  0  0  0  0
M  END
> <VConfSearch Rank>
75

> <Conf_Id>
15

> <Delta U+W>
-1.271

> <U+W>
9.643

> <U>
11.413

> <W>
-1.770

> <W(PB)>
-3.908

> <W(SA)>
2.138

> <Valence>
17.496

> <Coulomb>
-8.736

> <VdW>
2.653

> <VdW6>
-12.485

> <VdW12>
15.138

> <Bond>
0.414

> <Angle>
5.295

> <Pdih>
11.787

> <Idih>
0.000

> <Tether>
0.000

$$$$
VeraChem MOL file


 25 25  0  0  0  0  0  0  0  0999 V2000     
   20.0032   21.0743   22.2658 C   0  0  0  0  0  0  0  0  0  0  0  0
   19.6374   22.0670   21.9696 H   0  0  0  0  0  0  0  0  0  0  0  0
   21.0968   21.1611   22.2433 H   0  0  0  0  0  0  0  0  0  0  0  0
   19.5042   20.8209   23.7128 C   0  0  0  0  0  0  0  0  0  0  0  0
   20.0117   21.5330   24.3779 H   0  0  0  0  0  0  0  0  0  0  0  0
   18.4357   21.0696   23.7689 H   0  0  0  0  0  0  0  0  0  0  0  0
   19.7001   19.3921   24.2744 C   0  0  0  0  0  0  0  0  0  0  0  0
   18.9241   18.7304   23.8723 H   0  0  0  0  0  0  0  0  0  0  0  0
   19.5102   19.4221   25.3560 H   0  0  0  0  0  0  0  0  0  0  0  0
   21.1149   18.8043   24.0330 C   0  0  0  0  0  0  0  0  0  0  0  0
   21.7942   19.5689   23.6402 H   0  0  0  0  0  0  0  0  0  0  0  0
   21.5422   18.5189   25.0031 H   0  0  0  0  0  0  0  0  0  0  0  0
   21.1430   17.5531   23.1253 C   0  0  0  0  0  0  0  0  0  0  0  0
   20.7492   16.7095   23.7101 H   0  0  0  0  0  0  0  0  0  0  0  0
   20.3143   17.6273   21.8168 C   0  0  0  0  0  0  0  0  0  0  0  0
   20.5774   16.7435   21.2203 H   0  0  0  0  0  0  0  0  0  0  0  0
   19.2484   17.4988   22.0401 H   0  0  0  0  0  0  0  0  0  0  0  0
   20.5153   18.8832   20.9272 C   0  0  0  0  0  0  0  0  0  0  0  0
   20.3478   18.5653   19.8889 H   0  0  0  0  0  0  0  0  0  0  0  0
   21.5565   19.2291   20.9584 H   0  0  0  0  0  0  0  0  0  0  0  0
   19.5310   20.0536   21.2010 C   0  0  0  0  0  0  0  0  0  0  0  0
   18.5254   19.6804   21.4367 H   0  0  0  0  0  0  0  0  0  0  0  0
   19.4222   20.6052   20.2570 H   0  0  0  0  0  0  0  0  0  0  0  0
   22.4957   17.2810   22.7869 O   0  0  0  0  0  0  0  0  0  0  0  0
   22.7738   18.0059   22.1917 H   0  0  0  0  0  0  0  0  0  0  0  0
  1  2  1  0  0  0  0
  1  3  1  0  0  0  0
  1  4  1  0  0  0  0
  4  5  1  0  0  0  0
  4  6  1  0  0  0  0
  4  7  1  0  0  0  0
  7  8  1  0  0  0  0
  7  9  1  0  0  0  0
  7 10  1  0  0  0  0
 10 11  1  0  0  0  0
 10 12  1  0  0  0  0
 10 13  1  0  0  0  0
 13 14  1  0  0  0  0
 13 15  1  0  0  0  0
 15 16  1  0  0  0  0
 15 17  1  0  0  0  0
 15 18  1  0  0  0  0
 18 19  1  0  0  0  0
 18 20  1  0  0  0  0
  1 21  1  0  0  0  0
 18 21  1  0  0  0  0
 21 22  1  0  0  0  0
 21 23  1  0  0  0  0
 13 24  1  0  0  0  0
 24 25  1  0  0  0  0
M  END
> <VConfSearch Rank>
76

> <Conf_Id>
115

> <Delta U+W>
0.038

> <U+W>
10.952

> <U>
12.526

> <W>
-1.575

> <W(PB)>
-3.698

> <W(SA)>
2.123

> <Valence>
19.016

> <Coulomb>
-9.226

> <VdW>
2.737

> <VdW6>
-12.612

> <VdW12>
15.349

> <Bond>
0.421

> <Angle>
4.883

> <Pdih>
13.711

> <Idih>
0.000

> <Tether>
0.000

$$$$
VeraChem MOL file


 25 25  0  0  0  0  0  0  0  0999 V2000     
   21.0095   21.2496   23.0305 C   0  0  0  0  0  0  0  0  0  0  0  0
   21.2468   22.2802   22.7330 H   0  0  0  0  0  0  0  0  0  0  0  0
   21.0157   21.2517   24.1289 H   0  0  0  0  0  0  0  0  0  0  0  0
   22.1422   20.3433   22.4948 C   0  0  0  0  0  0  0  0  0  0  0  0
   22.2148   20.4360   21.4027 H   0  0  0  0  0  0  0  0  0  0  0  0
   23.0902   20.7355   22.8878 H   0  0  0  0  0  0  0  0  0  0  0  0
   22.0394   18.8542   22.8987 C   0  0  0  0  0  0  0  0  0  0  0  0
   21.7333   18.7645   23.9496 H   0  0  0  0  0  0  0  0  0  0  0  0
   23.0521   18.4307   22.8531 H   0  0  0  0  0  0  0  0  0  0  0  0
   21.1351   18.0010   21.9691 C   0  0  0  0  0  0  0  0  0  0  0  0
   20.9022   18.5353   21.0395 H   0  0  0  0  0  0  0  0  0  0  0  0
   21.7179   17.1218   21.6626 H   0  0  0  0  0  0  0  0  0  0  0  0
   19.8318   17.4991   22.6305 C   0  0  0  0  0  0  0  0  0  0  0  0
   20.0353   17.2655   23.6854 H   0  0  0  0  0  0  0  0  0  0  0  0
   18.6483   18.4890   22.5550 C   0  0  0  0  0  0  0  0  0  0  0  0
   18.3911   18.6859   21.5058 H   0  0  0  0  0  0  0  0  0  0  0  0
   17.7716   17.9905   22.9889 H   0  0  0  0  0  0  0  0  0  0  0  0
   18.8491   19.8235   23.3136 C   0  0  0  0  0  0  0  0  0  0  0  0
   19.3326   19.6436   24.2831 H   0  0  0  0  0  0  0  0  0  0  0  0
   17.8514   20.2156   23.5548 H   0  0  0  0  0  0  0  0  0  0  0  0
   19.5934   20.9175   22.5042 C   0  0  0  0  0  0  0  0  0  0  0  0
   18.9967   21.8377   22.5702 H   0  0  0  0  0  0  0  0  0  0  0  0
   19.6300   20.6718   21.4346 H   0  0  0  0  0  0  0  0  0  0  0  0
   19.4332   16.3053   21.9675 O   0  0  0  0  0  0  0  0  0  0  0  0
   18.6379   15.9740   22.4345 H   0  0  0  0  0  0  0  0  0  0  0  0
  1  2  1  0  0  0  0
  1  3  1  0  0  0  0
  1  4  1  0  0  0  0
  4  5  1  0  0  0  0
  4  6  1  0  0  0  0
  4  7  1  0  0  0  0
  7  8  1  0  0  0  0
  7  9  1  0  0  0  0
  7 10  1  0  0  0  0
 10 11  1  0  0  0  0
 10 12  1  0  0  0  0
 10 13  1  0  0  0  0
 13 14  1  0  0  0  0
 13 15  1  0  0  0  0
 15 16  1  0  0  0  0
 15 17  1  0  0  0  0
 15 18  1  0  0  0  0
 18 19  1  0  0  0  0
 18 20  1  0  0  0  0
  1 21  1  0  0  0  0
 18 21  1  0  0  0  0
 21 22  1  0  0  0  0
 21 23  1  0  0  0  0
 13 24  1  0  0  0  0
 24 25  1  0  0  0  0
M  END
> <VConfSearch Rank>
77

> <Conf_Id>
30

> <Delta U+W>
0.000

> <U+W>
10.913

> <U>
13.140

> <W>
-2.227

> <W(PB)>
-4.367

> <W(SA)>
2.140

> <Valence>
19.155

> <Coulomb>
-8.157

> <VdW>
2.142

> <VdW6>
-11.576

> <VdW12>
13.718

> <Bond>
0.294

> <Angle>
3.547

> <Pdih>
15.314

> <Idih>
0.000

> <Tether>
0.000

$$$$
VeraChem MOL file


 25 25  0  0  0  0  0  0  0  0999 V2000     
   19.1462   18.2183   24.1333 C   0  0  0  0  0  0  0  0  0  0  0  0
   18.0659   18.1061   24.2986 H   0  0  0  0  0  0  0  0  0  0  0  0
   19.6300   17.7116   24.9795 H   0  0  0  0  0  0  0  0  0  0  0  0
   19.4999   19.7243   24.2034 C   0  0  0  0  0  0  0  0  0  0  0  0
   18.9661   20.1577   25.0601 H   0  0  0  0  0  0  0  0  0  0  0  0
   20.5614   19.8421   24.4504 H   0  0  0  0  0  0  0  0  0  0  0  0
   19.1301   20.5290   22.9316 C   0  0  0  0  0  0  0  0  0  0  0  0
   18.4809   21.3667   23.2205 H   0  0  0  0  0  0  0  0  0  0  0  0
   18.5212   19.9263   22.2477 H   0  0  0  0  0  0  0  0  0  0  0  0
   20.3510   21.1074   22.1722 C   0  0  0  0  0  0  0  0  0  0  0  0
   20.0066   21.4896   21.2022 H   0  0  0  0  0  0  0  0  0  0  0  0
   20.7224   21.9799   22.7253 H   0  0  0  0  0  0  0  0  0  0  0  0
   21.5489   20.1522   21.9424 C   0  0  0  0  0  0  0  0  0  0  0  0
   22.0567   19.9725   22.8994 H   0  0  0  0  0  0  0  0  0  0  0  0
   21.1883   18.7859   21.3094 C   0  0  0  0  0  0  0  0  0  0  0  0
   20.3239   18.8913   20.6414 H   0  0  0  0  0  0  0  0  0  0  0  0
   22.0202   18.4800   20.6611 H   0  0  0  0  0  0  0  0  0  0  0  0
   20.9656   17.6307   22.3261 C   0  0  0  0  0  0  0  0  0  0  0  0
   21.6611   17.7064   23.1729 H   0  0  0  0  0  0  0  0  0  0  0  0
   21.2334   16.6974   21.8119 H   0  0  0  0  0  0  0  0  0  0  0  0
   19.5085   17.4667   22.8248 C   0  0  0  0  0  0  0  0  0  0  0  0
   19.3344   16.3981   23.0116 H   0  0  0  0  0  0  0  0  0  0  0  0
   18.8063   17.7273   22.0227 H   0  0  0  0  0  0  0  0  0  0  0  0
   22.4597   20.8213   21.0782 O   0  0  0  0  0  0  0  0  0  0  0  0
   23.2498   20.2466   21.0012 H   0  0  0  0  0  0  0  0  0  0  0  0
  1  2  1  0  0  0  0
  1  3  1  0  0  0  0
  1  4  1  0  0  0  0
  4  5  1  0  0  0  0
  4  6  1  0  0  0  0
  4  7  1  0  0  0  0
  7  8  1  0  0  0  0
  7  9  1  0  0  0  0
  7 10  1  0  0  0  0
 10 11  1  0  0  0  0
 10 12  1  0  0  0  0
 10 13  1  0  0  0  0
 13 14  1  0  0  0  0
 13 15  1  0  0  0  0
 15 16  1  0  0  0  0
 15 17  1  0  0  0  0
 15 18  1  0  0  0  0
 18 19  1  0  0  0  0
 18 20  1  0  0  0  0
  1 21  1  0  0  0  0
 18 21  1  0  0  0  0
 21 22  1  0  0  0  0
 21 23  1  0  0  0  0
 13 24  1  0  0  0  0
 24 25  1  0  0  0  0
M  END
> <VConfSearch Rank>
78

> <Conf_Id>
162

> <Delta U+W>
0.219

> <U+W>
11.132

> <U>
13.296

> <W>
-2.164

> <W(PB)>
-4.311

> <W(SA)>
2.148

> <Valence>
18.607

> <Coulomb>
-8.339

> <VdW>
3.028

> <VdW6>
-12.271

> <VdW12>
15.299

> <Bond>
0.423

> <Angle>
4.488

> <Pdih>
13.696

> <Idih>
0.000

> <Tether>
0.000

$$$$
VeraChem MOL file


 25 25  0  0  0  0  0  0  0  0999 V2000     
   20.3395   19.0250   24.6634 C   0  0  0  0  0  0  0  0  0  0  0  0
   21.1908   19.7167   24.6945 H   0  0  0  0  0  0  0  0  0  0  0  0
   20.1218   18.8020   25.7169 H   0  0  0  0  0  0  0  0  0  0  0  0
   19.1026   19.7357   24.0596 C   0  0  0  0  0  0  0  0  0  0  0  0
   18.3717   19.0023   23.6935 H   0  0  0  0  0  0  0  0  0  0  0  0
   18.6009   20.2583   24.8857 H   0  0  0  0  0  0  0  0  0  0  0  0
   19.4169   20.8045   22.9759 C   0  0  0  0  0  0  0  0  0  0  0  0
   20.3336   21.3583   23.2188 H   0  0  0  0  0  0  0  0  0  0  0  0
   18.6087   21.5475   23.0194 H   0  0  0  0  0  0  0  0  0  0  0  0
   19.4616   20.2756   21.5186 C   0  0  0  0  0  0  0  0  0  0  0  0
   18.7362   19.4623   21.3932 H   0  0  0  0  0  0  0  0  0  0  0  0
   19.1036   21.0775   20.8598 H   0  0  0  0  0  0  0  0  0  0  0  0
   20.8526   19.8524   20.9826 C   0  0  0  0  0  0  0  0  0  0  0  0
   21.4515   20.7641   20.8440 H   0  0  0  0  0  0  0  0  0  0  0  0
   21.6717   18.8965   21.8823 C   0  0  0  0  0  0  0  0  0  0  0  0
   22.5217   18.5137   21.3028 H   0  0  0  0  0  0  0  0  0  0  0  0
   22.1316   19.4756   22.6903 H   0  0  0  0  0  0  0  0  0  0  0  0
   20.8726   17.6934   22.4492 C   0  0  0  0  0  0  0  0  0  0  0  0
   21.3683   16.7632   22.1404 H   0  0  0  0  0  0  0  0  0  0  0  0
   19.8741   17.6398   21.9996 H   0  0  0  0  0  0  0  0  0  0  0  0
   20.7468   17.6865   23.9919 C   0  0  0  0  0  0  0  0  0  0  0  0
   21.7056   17.3666   24.4220 H   0  0  0  0  0  0  0  0  0  0  0  0
   20.0200   16.9125   24.2737 H   0  0  0  0  0  0  0  0  0  0  0  0
   20.6599   19.2301   19.7177 O   0  0  0  0  0  0  0  0  0  0  0  0
   21.5465   18.9672   19.3952 H   0  0  0  0  0  0  0  0  0  0  0  0
  1  2  1  0  0  0  0
  1  3  1  0  0  0  0
  1  4  1  0  0  0  0
  4  5  1  0  0  0  0
  4  6  1  0  0  0  0
  4  7  1  0  0  0  0
  7  8  1  0  0  0  0
  7  9  1  0  0  0  0
  7 10  1  0  0  0  0
 10 11  1  0  0  0  0
 10 12  1  0  0  0  0
 10 13  1  0  0  0  0
 13 14  1  0  0  0  0
 13 15  1  0  0  0  0
 15 16  1  0  0  0  0
 15 17  1  0  0  0  0
 15 18  1  0  0  0  0
 18 19  1  0  0  0  0
 18 20  1  0  0  0  0
  1 21  1  0  0  0  0
 18 21  1  0  0  0  0
 21 22  1  0  0  0  0
 21 23  1  0  0  0  0
 13 24  1  0  0  0  0
 24 25  1  0  0  0  0
M  END
> <VConfSearch Rank>
79

> <Conf_Id>
155

> <Delta U+W>
0.339

> <U+W>
11.252

> <U>
13.420

> <W>
-2.167

> <W(PB)>
-4.325

> <W(SA)>
2.157

> <Valence>
18.609

> <Coulomb>
-8.052

> <VdW>
2.863

> <VdW6>
-12.524

> <VdW12>
15.387

> <Bond>
0.430

> <Angle>
4.724

> <Pdih>
13.455

> <Idih>
0.000

> <Tether>
0.000

$$$$
VeraChem MOL file


 25 25  0  0  0  0  0  0  0  0999 V2000     
   19.1883   19.8237   24.1957 C   0  0  0  0  0  0  0  0  0  0  0  0
   18.7469   20.8207   24.0634 H   0  0  0  0  0  0  0  0  0  0  0  0
   18.8120   19.4634   25.1629 H   0  0  0  0  0  0  0  0  0  0  0  0
   18.6272   18.8683   23.1097 C   0  0  0  0  0  0  0  0  0  0  0  0
   18.9741   17.8497   23.3101 H   0  0  0  0  0  0  0  0  0  0  0  0
   17.5403   18.8027   23.2549 H   0  0  0  0  0  0  0  0  0  0  0  0
   18.8670   19.2516   21.6201 C   0  0  0  0  0  0  0  0  0  0  0  0
   18.0536   19.9257   21.3189 H   0  0  0  0  0  0  0  0  0  0  0  0
   18.7498   18.3538   20.9981 H   0  0  0  0  0  0  0  0  0  0  0  0
   20.2007   19.9560   21.2501 C   0  0  0  0  0  0  0  0  0  0  0  0
   20.1254   20.2703   20.2008 H   0  0  0  0  0  0  0  0  0  0  0  0
   20.2674   20.9051   21.7892 H   0  0  0  0  0  0  0  0  0  0  0  0
   21.5222   19.1487   21.4118 C   0  0  0  0  0  0  0  0  0  0  0  0
   22.3442   19.8705   21.5219 H   0  0  0  0  0  0  0  0  0  0  0  0
   21.6119   18.1424   22.5864 C   0  0  0  0  0  0  0  0  0  0  0  0
   20.8401   17.3774   22.4611 H   0  0  0  0  0  0  0  0  0  0  0  0
   22.5505   17.5843   22.4716 H   0  0  0  0  0  0  0  0  0  0  0  0
   21.5975   18.7121   24.0367 C   0  0  0  0  0  0  0  0  0  0  0  0
   22.6328   18.9690   24.2993 H   0  0  0  0  0  0  0  0  0  0  0  0
   21.3102   17.9103   24.7303 H   0  0  0  0  0  0  0  0  0  0  0  0
   20.7332   19.9682   24.3228 C   0  0  0  0  0  0  0  0  0  0  0  0
   21.0971   20.8050   23.7183 H   0  0  0  0  0  0  0  0  0  0  0  0
   20.9429   20.2867   25.3530 H   0  0  0  0  0  0  0  0  0  0  0  0
   21.7294   18.4071   20.2146 O   0  0  0  0  0  0  0  0  0  0  0  0
   21.7239   19.0521   19.4776 H   0  0  0  0  0  0  0  0  0  0  0  0
  1  2  1  0  0  0  0
  1  3  1  0  0  0  0
  1  4  1  0  0  0  0
  4  5  1  0  0  0  0
  4  6  1  0  0  0  0
  4  7  1  0  0  0  0
  7  8  1  0  0  0  0
  7  9  1  0  0  0  0
  7 10  1  0  0  0  0
 10 11  1  0  0  0  0
 10 12  1  0  0  0  0
 10 13  1  0  0  0  0
 13 14  1  0  0  0  0
 13 15  1  0  0  0  0
 15 16  1  0  0  0  0
 15 17  1  0  0  0  0
 15 18  1  0  0  0  0
 18 19  1  0  0  0  0
 18 20  1  0  0  0  0
  1 21  1  0  0  0  0
 18 21  1  0  0  0  0
 21 22  1  0  0  0  0
 21 23  1  0  0  0  0
 13 24  1  0  0  0  0
 24 25  1  0  0  0  0
M  END
> <VConfSearch Rank>
80

> <Conf_Id>
146

> <Delta U+W>
2.553

> <U+W>
13.466

> <U>
15.643

> <W>
-2.176

> <W(PB)>
-4.307

> <W(SA)>
2.131

> <Valence>
18.916

> <Coulomb>
-7.506

> <VdW>
4.232

> <VdW6>
-13.632

> <VdW12>
17.864

> <Bond>
0.735

> <Angle>
9.140

> <Pdih>
9.042

> <Idih>
0.000

> <Tether>
0.000

$$$$
VeraChem MOL file


 25 25  0  0  0  0  0  0  0  0999 V2000     
   20.9071   17.4274   23.4503 C   0  0  0  0  0  0  0  0  0  0  0  0
   20.5165   17.0381   24.4002 H   0  0  0  0  0  0  0  0  0  0  0  0
   21.6124   16.6677   23.0866 H   0  0  0  0  0  0  0  0  0  0  0  0
   21.7182   18.7191   23.7219 C   0  0  0  0  0  0  0  0  0  0  0  0
   22.5485   18.4483   24.3882 H   0  0  0  0  0  0  0  0  0  0  0  0
   22.2042   19.0644   22.8023 H   0  0  0  0  0  0  0  0  0  0  0  0
   20.9464   19.8799   24.3980 C   0  0  0  0  0  0  0  0  0  0  0  0
   21.6738   20.6700   24.6296 H   0  0  0  0  0  0  0  0  0  0  0  0
   20.5563   19.5409   25.3672 H   0  0  0  0  0  0  0  0  0  0  0  0
   19.7908   20.5223   23.5870 C   0  0  0  0  0  0  0  0  0  0  0  0
   18.8809   19.9210   23.6798 H   0  0  0  0  0  0  0  0  0  0  0  0
   19.5420   21.4732   24.0775 H   0  0  0  0  0  0  0  0  0  0  0  0
   20.1051   20.7906   22.0926 C   0  0  0  0  0  0  0  0  0  0  0  0
   21.1929   20.8110   21.9430 H   0  0  0  0  0  0  0  0  0  0  0  0
   19.4722   19.7653   21.1178 C   0  0  0  0  0  0  0  0  0  0  0  0
   18.3890   19.7230   21.2925 H   0  0  0  0  0  0  0  0  0  0  0  0
   19.5931   20.1495   20.0965 H   0  0  0  0  0  0  0  0  0  0  0  0
   20.0521   18.3249   21.1404 C   0  0  0  0  0  0  0  0  0  0  0  0
   21.1291   18.3349   20.9292 H   0  0  0  0  0  0  0  0  0  0  0  0
   19.6000   17.7843   20.2976 H   0  0  0  0  0  0  0  0  0  0  0  0
   19.7439   17.5192   22.4290 C   0  0  0  0  0  0  0  0  0  0  0  0
   19.4900   16.4911   22.1365 H   0  0  0  0  0  0  0  0  0  0  0  0
   18.8353   17.8972   22.9112 H   0  0  0  0  0  0  0  0  0  0  0  0
   19.5858   22.0718   21.7548 O   0  0  0  0  0  0  0  0  0  0  0  0
   19.8455   22.2469   20.8263 H   0  0  0  0  0  0  0  0  0  0  0  0
  1  2  1  0  0  0  0
  1  3  1  0  0  0  0
  1  4  1  0  0  0  0
  4  5  1  0  0  0  0
  4  6  1  0  0  0  0
  4  7  1  0  0  0  0
  7  8  1  0  0  0  0
  7  9  1  0  0  0  0
  7 10  1  0  0  0  0
 10 11  1  0  0  0  0
 10 12  1  0  0  0  0
 10 13  1  0  0  0  0
 13 14  1  0  0  0  0
 13 15  1  0  0  0  0
 15 16  1  0  0  0  0
 15 17  1  0  0  0  0
 15 18  1  0  0  0  0
 18 19  1  0  0  0  0
 18 20  1  0  0  0  0
  1 21  1  0  0  0  0
 18 21  1  0  0  0  0
 21 22  1  0  0  0  0
 21 23  1  0  0  0  0
 13 24  1  0  0  0  0
 24 25  1  0  0  0  0
M  END
> <VConfSearch Rank>
81

> <Conf_Id>
62

> <Delta U+W>
-1.779

> <U+W>
9.134

> <U>
11.364

> <W>
-2.230

> <W(PB)>
-4.359

> <W(SA)>
2.129

> <Valence>
16.582

> <Coulomb>
-8.150

> <VdW>
2.933

> <VdW6>
-12.531

> <VdW12>
15.464

> <Bond>
0.439

> <Angle>
5.099

> <Pdih>
11.044

> <Idih>
0.000

> <Tether>
0.000

$$$$
VeraChem MOL file


 25 25  0  0  0  0  0  0  0  0999 V2000     
   18.5520   18.8519   22.4000 C   0  0  0  0  0  0  0  0  0  0  0  0
   18.8709   18.0778   23.1071 H   0  0  0  0  0  0  0  0  0  0  0  0
   17.4884   18.6428   22.2222 H   0  0  0  0  0  0  0  0  0  0  0  0
   19.2865   18.6829   21.0466 C   0  0  0  0  0  0  0  0  0  0  0  0
   19.0338   17.6871   20.6574 H   0  0  0  0  0  0  0  0  0  0  0  0
   18.8777   19.3981   20.3201 H   0  0  0  0  0  0  0  0  0  0  0  0
   20.8315   18.8080   21.0608 C   0  0  0  0  0  0  0  0  0  0  0  0
   21.1326   19.8608   21.0185 H   0  0  0  0  0  0  0  0  0  0  0  0
   21.1994   18.3793   20.1185 H   0  0  0  0  0  0  0  0  0  0  0  0
   21.5446   18.0840   22.2340 C   0  0  0  0  0  0  0  0  0  0  0  0
   20.9277   17.2663   22.6264 H   0  0  0  0  0  0  0  0  0  0  0  0
   22.4385   17.5991   21.8203 H   0  0  0  0  0  0  0  0  0  0  0  0
   22.0132   19.0107   23.3843 C   0  0  0  0  0  0  0  0  0  0  0  0
   22.6197   19.8187   22.9506 H   0  0  0  0  0  0  0  0  0  0  0  0
   20.8992   19.6551   24.2467 C   0  0  0  0  0  0  0  0  0  0  0  0
   20.2661   18.8815   24.6977 H   0  0  0  0  0  0  0  0  0  0  0  0
   21.3954   20.1503   25.0919 H   0  0  0  0  0  0  0  0  0  0  0  0
   20.0434   20.7267   23.5194 C   0  0  0  0  0  0  0  0  0  0  0  0
   20.6007   21.1590   22.6806 H   0  0  0  0  0  0  0  0  0  0  0  0
   19.8889   21.5678   24.2090 H   0  0  0  0  0  0  0  0  0  0  0  0
   18.6423   20.2525   23.0556 C   0  0  0  0  0  0  0  0  0  0  0  0
   18.2208   21.0015   22.3716 H   0  0  0  0  0  0  0  0  0  0  0  0
   17.9822   20.2475   23.9337 H   0  0  0  0  0  0  0  0  0  0  0  0
   22.8339   18.2394   24.2526 O   0  0  0  0  0  0  0  0  0  0  0  0
   23.5726   17.8928   23.7102 H   0  0  0  0  0  0  0  0  0  0  0  0
  1  2  1  0  0  0  0
  1  3  1  0  0  0  0
  1  4  1  0  0  0  0
  4  5  1  0  0  0  0
  4  6  1  0  0  0  0
  4  7  1  0  0  0  0
  7  8  1  0  0  0  0
  7  9  1  0  0  0  0
  7 10  1  0  0  0  0
 10 11  1  0  0  0  0
 10 12  1  0  0  0  0
 10 13  1  0  0  0  0
 13 14  1  0  0  0  0
 13 15  1  0  0  0  0
 15 16  1  0  0  0  0
 15 17  1  0  0  0  0
 15 18  1  0  0  0  0
 18 19  1  0  0  0  0
 18 20  1  0  0  0  0
  1 21  1  0  0  0  0
 18 21  1  0  0  0  0
 21 22  1  0  0  0  0
 21 23  1  0  0  0  0
 13 24  1  0  0  0  0
 24 25  1  0  0  0  0
M  END
> <VConfSearch Rank>
82

> <Conf_Id>
121

> <Delta U+W>
-1.283

> <U+W>
9.630

> <U>
11.876

> <W>
-2.246

> <W(PB)>
-4.376

> <W(SA)>
2.130

> <Valence>
17.153

> <Coulomb>
-7.966

> <VdW>
2.689

> <VdW6>
-12.458

> <VdW12>
15.147

> <Bond>
0.421

> <Angle>
5.258

> <Pdih>
11.475

> <Idih>
0.000

> <Tether>
0.000

$$$$
VeraChem MOL file


 25 25  0  0  0  0  0  0  0  0999 V2000     
   19.6325   17.5320   22.6548 C   0  0  0  0  0  0  0  0  0  0  0  0
   20.5790   17.4371   22.1105 H   0  0  0  0  0  0  0  0  0  0  0  0
   19.2170   16.5152   22.6661 H   0  0  0  0  0  0  0  0  0  0  0  0
   18.6428   18.4248   21.8654 C   0  0  0  0  0  0  0  0  0  0  0  0
   18.4726   17.9453   20.8917 H   0  0  0  0  0  0  0  0  0  0  0  0
   17.6682   18.4222   22.3719 H   0  0  0  0  0  0  0  0  0  0  0  0
   19.0695   19.8917   21.6026 C   0  0  0  0  0  0  0  0  0  0  0  0
   18.8386   20.5210   22.4696 H   0  0  0  0  0  0  0  0  0  0  0  0
   18.4235   20.2785   20.8027 H   0  0  0  0  0  0  0  0  0  0  0  0
   20.5471   20.0849   21.1679 C   0  0  0  0  0  0  0  0  0  0  0  0
   20.9470   19.1738   20.7067 H   0  0  0  0  0  0  0  0  0  0  0  0
   20.5581   20.8402   20.3709 H   0  0  0  0  0  0  0  0  0  0  0  0
   21.4967   20.5914   22.2822 C   0  0  0  0  0  0  0  0  0  0  0  0
   21.0578   21.5005   22.7179 H   0  0  0  0  0  0  0  0  0  0  0  0
   21.7996   19.5987   23.4330 C   0  0  0  0  0  0  0  0  0  0  0  0
   22.2332   18.6721   23.0370 H   0  0  0  0  0  0  0  0  0  0  0  0
   22.5887   20.0461   24.0514 H   0  0  0  0  0  0  0  0  0  0  0  0
   20.5988   19.2976   24.3694 C   0  0  0  0  0  0  0  0  0  0  0  0
   19.8730   20.1181   24.3400 H   0  0  0  0  0  0  0  0  0  0  0  0
   20.9646   19.2918   25.4054 H   0  0  0  0  0  0  0  0  0  0  0  0
   19.8941   17.9386   24.1265 C   0  0  0  0  0  0  0  0  0  0  0  0
   18.9459   17.9247   24.6808 H   0  0  0  0  0  0  0  0  0  0  0  0
   20.5143   17.1530   24.5794 H   0  0  0  0  0  0  0  0  0  0  0  0
   22.7338   20.9306   21.6683 O   0  0  0  0  0  0  0  0  0  0  0  0
   23.3022   21.3128   22.3690 H   0  0  0  0  0  0  0  0  0  0  0  0
  1  2  1  0  0  0  0
  1  3  1  0  0  0  0
  1  4  1  0  0  0  0
  4  5  1  0  0  0  0
  4  6  1  0  0  0  0
  4  7  1  0  0  0  0
  7  8  1  0  0  0  0
  7  9  1  0  0  0  0
  7 10  1  0  0  0  0
 10 11  1  0  0  0  0
 10 12  1  0  0  0  0
 10 13  1  0  0  0  0
 13 14  1  0  0  0  0
 13 15  1  0  0  0  0
 15 16  1  0  0  0  0
 15 17  1  0  0  0  0
 15 18  1  0  0  0  0
 18 19  1  0  0  0  0
 18 20  1  0  0  0  0
  1 21  1  0  0  0  0
 18 21  1  0  0  0  0
 21 22  1  0  0  0  0
 21 23  1  0  0  0  0
 13 24  1  0  0  0  0
 24 25  1  0  0  0  0
M  END
> <VConfSearch Rank>
83

> <Conf_Id>
24

> <Delta U+W>
-1.236

> <U+W>
9.678

> <U>
11.876

> <W>
-2.199

> <W(PB)>
-4.335

> <W(SA)>
2.137

> <Valence>
17.153

> <Coulomb>
-7.966

> <VdW>
2.689

> <VdW6>
-12.458

> <VdW12>
15.147

> <Bond>
0.421

> <Angle>
5.258

> <Pdih>
11.475

> <Idih>
0.000

> <Tether>
0.000

$$$$
VeraChem MOL file


 25 25  0  0  0  0  0  0  0  0999 V2000     
   19.1534   17.4280   23.1823 C   0  0  0  0  0  0  0  0  0  0  0  0
   19.4967   16.7132   23.9426 H   0  0  0  0  0  0  0  0  0  0  0  0
   18.2284   17.0020   22.7703 H   0  0  0  0  0  0  0  0  0  0  0  0
   18.7935   18.7671   23.8789 C   0  0  0  0  0  0  0  0  0  0  0  0
   18.1536   19.3799   23.2313 H   0  0  0  0  0  0  0  0  0  0  0  0
   18.1605   18.5185   24.7418 H   0  0  0  0  0  0  0  0  0  0  0  0
   19.9879   19.6090   24.3920 C   0  0  0  0  0  0  0  0  0  0  0  0
   20.8002   18.9591   24.7448 H   0  0  0  0  0  0  0  0  0  0  0  0
   19.6385   20.1478   25.2835 H   0  0  0  0  0  0  0  0  0  0  0  0
   20.5173   20.6798   23.3965 C   0  0  0  0  0  0  0  0  0  0  0  0
   19.6918   21.1253   22.8269 H   0  0  0  0  0  0  0  0  0  0  0  0
   20.9296   21.4964   24.0050 H   0  0  0  0  0  0  0  0  0  0  0  0
   21.6342   20.1907   22.4425 C   0  0  0  0  0  0  0  0  0  0  0  0
   22.1928   19.3881   22.9419 H   0  0  0  0  0  0  0  0  0  0  0  0
   21.1526   19.6933   21.0559 C   0  0  0  0  0  0  0  0  0  0  0  0
   20.8314   20.5522   20.4522 H   0  0  0  0  0  0  0  0  0  0  0  0
   22.0205   19.2666   20.5361 H   0  0  0  0  0  0  0  0  0  0  0  0
   20.0136   18.6429   21.0466 C   0  0  0  0  0  0  0  0  0  0  0  0
   19.9473   18.2215   20.0342 H   0  0  0  0  0  0  0  0  0  0  0  0
   19.0501   19.1409   21.2055 H   0  0  0  0  0  0  0  0  0  0  0  0
   20.2138   17.4838   22.0554 C   0  0  0  0  0  0  0  0  0  0  0  0
   21.2175   17.5119   22.4954 H   0  0  0  0  0  0  0  0  0  0  0  0
   20.1770   16.5319   21.5082 H   0  0  0  0  0  0  0  0  0  0  0  0
   22.5318   21.2697   22.2145 O   0  0  0  0  0  0  0  0  0  0  0  0
   22.0089   21.9796   21.7884 H   0  0  0  0  0  0  0  0  0  0  0  0
  1  2  1  0  0  0  0
  1  3  1  0  0  0  0
  1  4  1  0  0  0  0
  4  5  1  0  0  0  0
  4  6  1  0  0  0  0
  4  7  1  0  0  0  0
  7  8  1  0  0  0  0
  7  9  1  0  0  0  0
  7 10  1  0  0  0  0
 10 11  1  0  0  0  0
 10 12  1  0  0  0  0
 10 13  1  0  0  0  0
 13 14  1  0  0  0  0
 13 15  1  0  0  0  0
 15 16  1  0  0  0  0
 15 17  1  0  0  0  0
 15 18  1  0  0  0  0
 18 19  1  0  0  0  0
 18 20  1  0  0  0  0
  1 21  1  0  0  0  0
 18 21  1  0  0  0  0
 21 22  1  0  0  0  0
 21 23  1  0  0  0  0
 13 24  1  0  0  0  0
 24 25  1  0  0  0  0
M  END
> <VConfSearch Rank>
84

> <Conf_Id>
167

> <Delta U+W>
0.388

> <U+W>
11.301

> <U>
13.202

> <W>
-1.901

> <W(PB)>
-4.065

> <W(SA)>
2.163

> <Valence>
18.957

> <Coulomb>
-8.753

> <VdW>
2.998

> <VdW6>
-12.294

> <VdW12>
15.292

> <Bond>
0.419

> <Angle>
4.543

> <Pdih>
13.996

> <Idih>
0.000

> <Tether>
0.000

$$$$
VeraChem MOL file


 25 25  0  0  0  0  0  0  0  0999 V2000     
   18.3738   18.6563   23.0816 C   0  0  0  0  0  0  0  0  0  0  0  0
   17.5116   19.2383   22.7288 H   0  0  0  0  0  0  0  0  0  0  0  0
   17.9504   17.7941   23.6148 H   0  0  0  0  0  0  0  0  0  0  0  0
   19.1652   19.5049   24.1106 C   0  0  0  0  0  0  0  0  0  0  0  0
   19.2285   20.5488   23.7836 H   0  0  0  0  0  0  0  0  0  0  0  0
   18.5621   19.5429   25.0282 H   0  0  0  0  0  0  0  0  0  0  0  0
   20.5708   18.9642   24.4805 C   0  0  0  0  0  0  0  0  0  0  0  0
   20.6293   17.8790   24.3266 H   0  0  0  0  0  0  0  0  0  0  0  0
   20.7060   19.1082   25.5612 H   0  0  0  0  0  0  0  0  0  0  0  0
   21.7527   19.6850   23.7764 C   0  0  0  0  0  0  0  0  0  0  0  0
   21.6956   20.7625   23.9785 H   0  0  0  0  0  0  0  0  0  0  0  0
   22.6801   19.3429   24.2547 H   0  0  0  0  0  0  0  0  0  0  0  0
   21.9008   19.4597   22.2511 C   0  0  0  0  0  0  0  0  0  0  0  0
   21.9248   18.3806   22.0480 H   0  0  0  0  0  0  0  0  0  0  0  0
   20.7898   20.1293   21.4014 C   0  0  0  0  0  0  0  0  0  0  0  0
   20.3272   20.9468   21.9635 H   0  0  0  0  0  0  0  0  0  0  0  0
   21.2416   20.6207   20.5294 H   0  0  0  0  0  0  0  0  0  0  0  0
   19.7008   19.1628   20.8678 C   0  0  0  0  0  0  0  0  0  0  0  0
   20.1205   18.6228   20.0080 H   0  0  0  0  0  0  0  0  0  0  0  0
   18.8646   19.7532   20.4693 H   0  0  0  0  0  0  0  0  0  0  0  0
   19.1536   18.1067   21.8608 C   0  0  0  0  0  0  0  0  0  0  0  0
   19.9555   17.4367   22.1916 H   0  0  0  0  0  0  0  0  0  0  0  0
   18.4662   17.4584   21.3004 H   0  0  0  0  0  0  0  0  0  0  0  0
   23.1528   20.0117   21.8613 O   0  0  0  0  0  0  0  0  0  0  0  0
   23.2677   19.8032   20.9106 H   0  0  0  0  0  0  0  0  0  0  0  0
  1  2  1  0  0  0  0
  1  3  1  0  0  0  0
  1  4  1  0  0  0  0
  4  5  1  0  0  0  0
  4  6  1  0  0  0  0
  4  7  1  0  0  0  0
  7  8  1  0  0  0  0
  7  9  1  0  0  0  0
  7 10  1  0  0  0  0
 10 11  1  0  0  0  0
 10 12  1  0  0  0  0
 10 13  1  0  0  0  0
 13 14  1  0  0  0  0
 13 15  1  0  0  0  0
 15 16  1  0  0  0  0
 15 17  1  0  0  0  0
 15 18  1  0  0  0  0
 18 19  1  0  0  0  0
 18 20  1  0  0  0  0
  1 21  1  0  0  0  0
 18 21  1  0  0  0  0
 21 22  1  0  0  0  0
 21 23  1  0  0  0  0
 13 24  1  0  0  0  0
 24 25  1  0  0  0  0
M  END
> <VConfSearch Rank>
85

> <Conf_Id>
60

> <Delta U+W>
-1.838

> <U+W>
9.075

> <U>
11.150

> <W>
-2.074

> <W(PB)>
-4.196

> <W(SA)>
2.121

> <Valence>
16.582

> <Coulomb>
-8.361

> <VdW>
2.928

> <VdW6>
-12.539

> <VdW12>
15.467

> <Bond>
0.441

> <Angle>
5.093

> <Pdih>
11.049

> <Idih>
0.000

> <Tether>
0.000

$$$$
VeraChem MOL file


 25 25  0  0  0  0  0  0  0  0999 V2000     
   19.3723   20.2299   24.1620 C   0  0  0  0  0  0  0  0  0  0  0  0
   18.9640   21.2354   23.9922 H   0  0  0  0  0  0  0  0  0  0  0  0
   19.1768   20.0060   25.2197 H   0  0  0  0  0  0  0  0  0  0  0  0
   20.9099   20.2640   23.9740 C   0  0  0  0  0  0  0  0  0  0  0  0
   21.3134   20.9643   24.7180 H   0  0  0  0  0  0  0  0  0  0  0  0
   21.3477   19.2956   24.2418 H   0  0  0  0  0  0  0  0  0  0  0  0
   21.4181   20.7265   22.5852 C   0  0  0  0  0  0  0  0  0  0  0  0
   22.5120   20.8098   22.6439 H   0  0  0  0  0  0  0  0  0  0  0  0
   21.0525   21.7427   22.3853 H   0  0  0  0  0  0  0  0  0  0  0  0
   21.0734   19.8205   21.3748 C   0  0  0  0  0  0  0  0  0  0  0  0
   20.0537   20.0210   21.0309 H   0  0  0  0  0  0  0  0  0  0  0  0
   21.7100   20.1409   20.5393 H   0  0  0  0  0  0  0  0  0  0  0  0
   21.2651   18.3010   21.6180 C   0  0  0  0  0  0  0  0  0  0  0  0
   21.9326   18.1431   22.4757 H   0  0  0  0  0  0  0  0  0  0  0  0
   19.9444   17.5269   21.8545 C   0  0  0  0  0  0  0  0  0  0  0  0
   19.2629   17.7099   21.0135 H   0  0  0  0  0  0  0  0  0  0  0  0
   20.1768   16.4542   21.8191 H   0  0  0  0  0  0  0  0  0  0  0  0
   19.2009   17.7998   23.1906 C   0  0  0  0  0  0  0  0  0  0  0  0
   19.8505   17.5842   24.0487 H   0  0  0  0  0  0  0  0  0  0  0  0
   18.3845   17.0679   23.2580 H   0  0  0  0  0  0  0  0  0  0  0  0
   18.5715   19.2122   23.3087 C   0  0  0  0  0  0  0  0  0  0  0  0
   17.5831   19.1070   23.7767 H   0  0  0  0  0  0  0  0  0  0  0  0
   18.3595   19.6230   22.3152 H   0  0  0  0  0  0  0  0  0  0  0  0
   21.8839   17.7404   20.4661 O   0  0  0  0  0  0  0  0  0  0  0  0
   22.7493   18.1893   20.3658 H   0  0  0  0  0  0  0  0  0  0  0  0
  1  2  1  0  0  0  0
  1  3  1  0  0  0  0
  1  4  1  0  0  0  0
  4  5  1  0  0  0  0
  4  6  1  0  0  0  0
  4  7  1  0  0  0  0
  7  8  1  0  0  0  0
  7  9  1  0  0  0  0
  7 10  1  0  0  0  0
 10 11  1  0  0  0  0
 10 12  1  0  0  0  0
 10 13  1  0  0  0  0
 13 14  1  0  0  0  0
 13 15  1  0  0  0  0
 15 16  1  0  0  0  0
 15 17  1  0  0  0  0
 15 18  1  0  0  0  0
 18 19  1  0  0  0  0
 18 20  1  0  0  0  0
  1 21  1  0  0  0  0
 18 21  1  0  0  0  0
 21 22  1  0  0  0  0
 21 23  1  0  0  0  0
 13 24  1  0  0  0  0
 24 25  1  0  0  0  0
M  END
> <VConfSearch Rank>
86

> <Conf_Id>
129

> <Delta U+W>
-1.846

> <U+W>
9.067

> <U>
11.150

> <W>
-2.083

> <W(PB)>
-4.217

> <W(SA)>
2.134

> <Valence>
16.583

> <Coulomb>
-8.361

> <VdW>
2.928

> <VdW6>
-12.539

> <VdW12>
15.467

> <Bond>
0.441

> <Angle>
5.093

> <Pdih>
11.049

> <Idih>
0.000

> <Tether>
0.000

$$$$
VeraChem MOL file


 25 25  0  0  0  0  0  0  0  0999 V2000     
   21.9338   18.7637   23.7717 C   0  0  0  0  0  0  0  0  0  0  0  0
   22.7182   18.1043   23.3761 H   0  0  0  0  0  0  0  0  0  0  0  0
   22.2725   19.0583   24.7744 H   0  0  0  0  0  0  0  0  0  0  0  0
   20.6246   17.9538   23.9456 C   0  0  0  0  0  0  0  0  0  0  0  0
   20.8334   17.1470   24.6614 H   0  0  0  0  0  0  0  0  0  0  0  0
   19.8596   18.5662   24.4366 H   0  0  0  0  0  0  0  0  0  0  0  0
   20.0540   17.2951   22.6647 C   0  0  0  0  0  0  0  0  0  0  0  0
   19.2034   16.6685   22.9663 H   0  0  0  0  0  0  0  0  0  0  0  0
   20.7998   16.6043   22.2487 H   0  0  0  0  0  0  0  0  0  0  0  0
   19.5671   18.2470   21.5413 C   0  0  0  0  0  0  0  0  0  0  0  0
   20.4164   18.5861   20.9393 H   0  0  0  0  0  0  0  0  0  0  0  0
   18.9618   17.6436   20.8512 H   0  0  0  0  0  0  0  0  0  0  0  0
   18.7326   19.4609   22.0254 C   0  0  0  0  0  0  0  0  0  0  0  0
   18.3283   19.2567   23.0258 H   0  0  0  0  0  0  0  0  0  0  0  0
   19.5126   20.7994   22.0533 C   0  0  0  0  0  0  0  0  0  0  0  0
   19.9440   20.9919   21.0623 H   0  0  0  0  0  0  0  0  0  0  0  0
   18.7861   21.6053   22.2236 H   0  0  0  0  0  0  0  0  0  0  0  0
   20.6234   20.9413   23.1290 C   0  0  0  0  0  0  0  0  0  0  0  0
   20.2114   20.7963   24.1359 H   0  0  0  0  0  0  0  0  0  0  0  0
   20.9608   21.9866   23.1055 H   0  0  0  0  0  0  0  0  0  0  0  0
   21.8678   20.0447   22.9004 C   0  0  0  0  0  0  0  0  0  0  0  0
   22.7632   20.6380   23.1315 H   0  0  0  0  0  0  0  0  0  0  0  0
   21.9730   19.7955   21.8386 H   0  0  0  0  0  0  0  0  0  0  0  0
   17.6364   19.6297   21.1355 O   0  0  0  0  0  0  0  0  0  0  0  0
   18.0214   19.8142   20.2542 H   0  0  0  0  0  0  0  0  0  0  0  0
  1  2  1  0  0  0  0
  1  3  1  0  0  0  0
  1  4  1  0  0  0  0
  4  5  1  0  0  0  0
  4  6  1  0  0  0  0
  4  7  1  0  0  0  0
  7  8  1  0  0  0  0
  7  9  1  0  0  0  0
  7 10  1  0  0  0  0
 10 11  1  0  0  0  0
 10 12  1  0  0  0  0
 10 13  1  0  0  0  0
 13 14  1  0  0  0  0
 13 15  1  0  0  0  0
 15 16  1  0  0  0  0
 15 17  1  0  0  0  0
 15 18  1  0  0  0  0
 18 19  1  0  0  0  0
 18 20  1  0  0  0  0
  1 21  1  0  0  0  0
 18 21  1  0  0  0  0
 21 22  1  0  0  0  0
 21 23  1  0  0  0  0
 13 24  1  0  0  0  0
 24 25  1  0  0  0  0
M  END
> <VConfSearch Rank>
87

> <Conf_Id>
140

> <Delta U+W>
-1.702

> <U+W>
9.211

> <U>
11.181

> <W>
-1.969

> <W(PB)>
-4.093

> <W(SA)>
2.124

> <Valence>
16.954

> <Coulomb>
-8.661

> <VdW>
2.887

> <VdW6>
-12.561

> <VdW12>
15.448

> <Bond>
0.433

> <Angle>
5.120

> <Pdih>
11.401

> <Idih>
0.000

> <Tether>
0.000

$$$$
VeraChem MOL file


 25 25  0  0  0  0  0  0  0  0999 V2000     
   19.7704   19.9130   24.5062 C   0  0  0  0  0  0  0  0  0  0  0  0
   18.7217   19.9460   24.8313 H   0  0  0  0  0  0  0  0  0  0  0  0
   20.3517   20.3326   25.3386 H   0  0  0  0  0  0  0  0  0  0  0  0
   19.9478   20.8528   23.2856 C   0  0  0  0  0  0  0  0  0  0  0  0
   19.0968   20.7619   22.6012 H   0  0  0  0  0  0  0  0  0  0  0  0
   19.8870   21.8836   23.6611 H   0  0  0  0  0  0  0  0  0  0  0  0
   21.2850   20.6985   22.5159 C   0  0  0  0  0  0  0  0  0  0  0  0
   22.0706   20.2923   23.1660 H   0  0  0  0  0  0  0  0  0  0  0  0
   21.6291   21.7065   22.2464 H   0  0  0  0  0  0  0  0  0  0  0  0
   21.1865   19.8856   21.1966 C   0  0  0  0  0  0  0  0  0  0  0  0
   20.4247   20.3397   20.5496 H   0  0  0  0  0  0  0  0  0  0  0  0
   22.1398   20.0064   20.6647 H   0  0  0  0  0  0  0  0  0  0  0  0
   20.9115   18.3665   21.3298 C   0  0  0  0  0  0  0  0  0  0  0  0
   21.6571   17.9212   22.0018 H   0  0  0  0  0  0  0  0  0  0  0  0
   19.4849   18.0185   21.8281 C   0  0  0  0  0  0  0  0  0  0  0  0
   18.8000   18.8488   21.6282 H   0  0  0  0  0  0  0  0  0  0  0  0
   19.0881   17.1832   21.2353 H   0  0  0  0  0  0  0  0  0  0  0  0
   19.3945   17.5973   23.3180 C   0  0  0  0  0  0  0  0  0  0  0  0
   19.7418   16.5578   23.3949 H   0  0  0  0  0  0  0  0  0  0  0  0
   18.3388   17.5817   23.6209 H   0  0  0  0  0  0  0  0  0  0  0  0
   20.2070   18.4363   24.3359 C   0  0  0  0  0  0  0  0  0  0  0  0
   21.2786   18.3786   24.1136 H   0  0  0  0  0  0  0  0  0  0  0  0
   20.1019   17.9506   25.3157 H   0  0  0  0  0  0  0  0  0  0  0  0
   21.0843   17.7917   20.0407 O   0  0  0  0  0  0  0  0  0  0  0  0
   20.4131   18.2065   19.4606 H   0  0  0  0  0  0  0  0  0  0  0  0
  1  2  1  0  0  0  0
  1  3  1  0  0  0  0
  1  4  1  0  0  0  0
  4  5  1  0  0  0  0
  4  6  1  0  0  0  0
  4  7  1  0  0  0  0
  7  8  1  0  0  0  0
  7  9  1  0  0  0  0
  7 10  1  0  0  0  0
 10 11  1  0  0  0  0
 10 12  1  0  0  0  0
 10 13  1  0  0  0  0
 13 14  1  0  0  0  0
 13 15  1  0  0  0  0
 15 16  1  0  0  0  0
 15 17  1  0  0  0  0
 15 18  1  0  0  0  0
 18 19  1  0  0  0  0
 18 20  1  0  0  0  0
  1 21  1  0  0  0  0
 18 21  1  0  0  0  0
 21 22  1  0  0  0  0
 21 23  1  0  0  0  0
 13 24  1  0  0  0  0
 24 25  1  0  0  0  0
M  END
> <VConfSearch Rank>
88

> <Conf_Id>
68

> <Delta U+W>
-1.765

> <U+W>
9.148

> <U>
11.181

> <W>
-2.032

> <W(PB)>
-4.147

> <W(SA)>
2.114

> <Valence>
16.955

> <Coulomb>
-8.661

> <VdW>
2.887

> <VdW6>
-12.561

> <VdW12>
15.448

> <Bond>
0.433

> <Angle>
5.121

> <Pdih>
11.402

> <Idih>
0.000

> <Tether>
0.000

$$$$
VeraChem MOL file


 25 25  0  0  0  0  0  0  0  0999 V2000     
   19.2462   18.0591   23.7609 C   0  0  0  0  0  0  0  0  0  0  0  0
   18.5845   17.3811   24.3173 H   0  0  0  0  0  0  0  0  0  0  0  0
   19.8770   18.5158   24.5319 H   0  0  0  0  0  0  0  0  0  0  0  0
   18.3648   19.1325   23.0708 C   0  0  0  0  0  0  0  0  0  0  0  0
   18.1309   18.8476   22.0370 H   0  0  0  0  0  0  0  0  0  0  0  0
   17.3962   19.1471   23.5891 H   0  0  0  0  0  0  0  0  0  0  0  0
   18.9308   20.5757   23.1295 C   0  0  0  0  0  0  0  0  0  0  0  0
   19.1114   20.8539   24.1769 H   0  0  0  0  0  0  0  0  0  0  0  0
   18.1451   21.2568   22.7754 H   0  0  0  0  0  0  0  0  0  0  0  0
   20.2098   20.8568   22.2966 C   0  0  0  0  0  0  0  0  0  0  0  0
   20.0391   20.6129   21.2411 H   0  0  0  0  0  0  0  0  0  0  0  0
   20.3692   21.9434   22.3192 H   0  0  0  0  0  0  0  0  0  0  0  0
   21.4888   20.1583   22.8269 C   0  0  0  0  0  0  0  0  0  0  0  0
   21.3350   19.8798   23.8758 H   0  0  0  0  0  0  0  0  0  0  0  0
   21.9227   18.9053   22.0271 C   0  0  0  0  0  0  0  0  0  0  0  0
   22.4096   19.2351   21.0999 H   0  0  0  0  0  0  0  0  0  0  0  0
   22.6958   18.3784   22.6014 H   0  0  0  0  0  0  0  0  0  0  0  0
   20.8125   17.8971   21.6333 C   0  0  0  0  0  0  0  0  0  0  0  0
   21.2811   17.1205   21.0134 H   0  0  0  0  0  0  0  0  0  0  0  0
   20.0792   18.3731   20.9723 H   0  0  0  0  0  0  0  0  0  0  0  0
   20.0958   17.1813   22.8055 C   0  0  0  0  0  0  0  0  0  0  0  0
   20.8344   16.6230   23.3965 H   0  0  0  0  0  0  0  0  0  0  0  0
   19.4316   16.4228   22.3690 H   0  0  0  0  0  0  0  0  0  0  0  0
   22.5643   21.0878   22.7816 O   0  0  0  0  0  0  0  0  0  0  0  0
   22.6749   21.3380   21.8414 H   0  0  0  0  0  0  0  0  0  0  0  0
  1  2  1  0  0  0  0
  1  3  1  0  0  0  0
  1  4  1  0  0  0  0
  4  5  1  0  0  0  0
  4  6  1  0  0  0  0
  4  7  1  0  0  0  0
  7  8  1  0  0  0  0
  7  9  1  0  0  0  0
  7 10  1  0  0  0  0
 10 11  1  0  0  0  0
 10 12  1  0  0  0  0
 10 13  1  0  0  0  0
 13 14  1  0  0  0  0
 13 15  1  0  0  0  0
 15 16  1  0  0  0  0
 15 17  1  0  0  0  0
 15 18  1  0  0  0  0
 18 19  1  0  0  0  0
 18 20  1  0  0  0  0
  1 21  1  0  0  0  0
 18 21  1  0  0  0  0
 21 22  1  0  0  0  0
 21 23  1  0  0  0  0
 13 24  1  0  0  0  0
 24 25  1  0  0  0  0
M  END
> <VConfSearch Rank>
89

> <Conf_Id>
165

> <Delta U+W>
-1.999

> <U+W>
8.915

> <U>
10.935

> <W>
-2.020

> <W(PB)>
-4.135

> <W(SA)>
2.115

> <Valence>
16.757

> <Coulomb>
-8.731

> <VdW>
2.908

> <VdW6>
-12.597

> <VdW12>
15.506

> <Bond>
0.434

> <Angle>
5.069

> <Pdih>
11.254

> <Idih>
0.000

> <Tether>
0.000

$$$$
VeraChem MOL file


 25 25  0  0  0  0  0  0  0  0999 V2000     
   18.5685   18.5983   22.7156 C   0  0  0  0  0  0  0  0  0  0  0  0
   17.5185   18.2949   22.8279 H   0  0  0  0  0  0  0  0  0  0  0  0
   18.8365   18.2770   21.7028 H   0  0  0  0  0  0  0  0  0  0  0  0
   19.3838   17.8123   23.7753 C   0  0  0  0  0  0  0  0  0  0  0  0
   18.8052   17.8122   24.7092 H   0  0  0  0  0  0  0  0  0  0  0  0
   19.4483   16.7600   23.4672 H   0  0  0  0  0  0  0  0  0  0  0  0
   20.8025   18.3363   24.1116 C   0  0  0  0  0  0  0  0  0  0  0  0
   21.1888   17.7267   24.9397 H   0  0  0  0  0  0  0  0  0  0  0  0
   20.7466   19.3522   24.5192 H   0  0  0  0  0  0  0  0  0  0  0  0
   21.8434   18.2692   22.9644 C   0  0  0  0  0  0  0  0  0  0  0  0
   22.8138   18.5683   23.3832 H   0  0  0  0  0  0  0  0  0  0  0  0
   21.9584   17.2237   22.6508 H   0  0  0  0  0  0  0  0  0  0  0  0
   21.5702   19.1356   21.7105 C   0  0  0  0  0  0  0  0  0  0  0  0
   20.8123   18.6441   21.0893 H   0  0  0  0  0  0  0  0  0  0  0  0
   21.1096   20.5847   22.0140 C   0  0  0  0  0  0  0  0  0  0  0  0
   21.4242   20.8920   23.0184 H   0  0  0  0  0  0  0  0  0  0  0  0
   21.6337   21.2657   21.3298 H   0  0  0  0  0  0  0  0  0  0  0  0
   19.5896   20.8322   21.8210 C   0  0  0  0  0  0  0  0  0  0  0  0
   19.3026   20.5475   20.7994 H   0  0  0  0  0  0  0  0  0  0  0  0
   19.4169   21.9153   21.8841 H   0  0  0  0  0  0  0  0  0  0  0  0
   18.6377   20.1432   22.8339 C   0  0  0  0  0  0  0  0  0  0  0  0
   17.6291   20.5344   22.6425 H   0  0  0  0  0  0  0  0  0  0  0  0
   18.8731   20.4511   23.8607 H   0  0  0  0  0  0  0  0  0  0  0  0
   22.7787   19.1932   20.9610 O   0  0  0  0  0  0  0  0  0  0  0  0
   23.0215   18.2685   20.7455 H   0  0  0  0  0  0  0  0  0  0  0  0
  1  2  1  0  0  0  0
  1  3  1  0  0  0  0
  1  4  1  0  0  0  0
  4  5  1  0  0  0  0
  4  6  1  0  0  0  0
  4  7  1  0  0  0  0
  7  8  1  0  0  0  0
  7  9  1  0  0  0  0
  7 10  1  0  0  0  0
 10 11  1  0  0  0  0
 10 12  1  0  0  0  0
 10 13  1  0  0  0  0
 13 14  1  0  0  0  0
 13 15  1  0  0  0  0
 15 16  1  0  0  0  0
 15 17  1  0  0  0  0
 15 18  1  0  0  0  0
 18 19  1  0  0  0  0
 18 20  1  0  0  0  0
  1 21  1  0  0  0  0
 18 21  1  0  0  0  0
 21 22  1  0  0  0  0
 21 23  1  0  0  0  0
 13 24  1  0  0  0  0
 24 25  1  0  0  0  0
M  END
> <VConfSearch Rank>
90

> <Conf_Id>
133

> <Delta U+W>
-2.139

> <U+W>
8.774

> <U>
10.905

> <W>
-2.131

> <W(PB)>
-4.281

> <W(SA)>
2.150

> <Valence>
16.378

> <Coulomb>
-8.448

> <VdW>
2.976

> <VdW6>
-12.570

> <VdW12>
15.545

> <Bond>
0.439

> <Angle>
5.049

> <Pdih>
10.889

> <Idih>
0.000

> <Tether>
0.000

$$$$
VeraChem MOL file


 25 25  0  0  0  0  0  0  0  0999 V2000     
   21.6021   18.7793   21.4619 C   0  0  0  0  0  0  0  0  0  0  0  0
   22.3895   18.5923   20.7189 H   0  0  0  0  0  0  0  0  0  0  0  0
   21.3221   17.7811   21.8170 H   0  0  0  0  0  0  0  0  0  0  0  0
   20.4086   19.4552   20.7379 C   0  0  0  0  0  0  0  0  0  0  0  0
   20.4622   20.5482   20.8226 H   0  0  0  0  0  0  0  0  0  0  0  0
   20.5129   19.2466   19.6642 H   0  0  0  0  0  0  0  0  0  0  0  0
   19.0097   18.9382   21.1652 C   0  0  0  0  0  0  0  0  0  0  0  0
   18.9650   17.8495   21.0244 H   0  0  0  0  0  0  0  0  0  0  0  0
   18.2718   19.3558   20.4667 H   0  0  0  0  0  0  0  0  0  0  0  0
   18.5475   19.2882   22.6049 C   0  0  0  0  0  0  0  0  0  0  0  0
   18.5545   20.3739   22.7572 H   0  0  0  0  0  0  0  0  0  0  0  0
   17.4915   18.9958   22.6814 H   0  0  0  0  0  0  0  0  0  0  0  0
   19.3375   18.5681   23.7282 C   0  0  0  0  0  0  0  0  0  0  0  0
   19.8401   17.6911   23.3038 H   0  0  0  0  0  0  0  0  0  0  0  0
   20.3804   19.4536   24.4533 C   0  0  0  0  0  0  0  0  0  0  0  0
   19.8454   20.1125   25.1506 H   0  0  0  0  0  0  0  0  0  0  0  0
   21.0174   18.8099   25.0734 H   0  0  0  0  0  0  0  0  0  0  0  0
   21.2847   20.3503   23.5689 C   0  0  0  0  0  0  0  0  0  0  0  0
   21.9035   20.9572   24.2438 H   0  0  0  0  0  0  0  0  0  0  0  0
   20.6797   21.0798   23.0183 H   0  0  0  0  0  0  0  0  0  0  0  0
   22.2440   19.6090   22.6043 C   0  0  0  0  0  0  0  0  0  0  0  0
   22.9128   18.9591   23.1848 H   0  0  0  0  0  0  0  0  0  0  0  0
   22.8936   20.3656   22.1433 H   0  0  0  0  0  0  0  0  0  0  0  0
   18.4129   18.1096   24.7082 O   0  0  0  0  0  0  0  0  0  0  0  0
   18.9329   17.6212   25.3802 H   0  0  0  0  0  0  0  0  0  0  0  0
  1  2  1  0  0  0  0
  1  3  1  0  0  0  0
  1  4  1  0  0  0  0
  4  5  1  0  0  0  0
  4  6  1  0  0  0  0
  4  7  1  0  0  0  0
  7  8  1  0  0  0  0
  7  9  1  0  0  0  0
  7 10  1  0  0  0  0
 10 11  1  0  0  0  0
 10 12  1  0  0  0  0
 10 13  1  0  0  0  0
 13 14  1  0  0  0  0
 13 15  1  0  0  0  0
 15 16  1  0  0  0  0
 15 17  1  0  0  0  0
 15 18  1  0  0  0  0
 18 19  1  0  0  0  0
 18 20  1  0  0  0  0
  1 21  1  0  0  0  0
 18 21  1  0  0  0  0
 21 22  1  0  0  0  0
 21 23  1  0  0  0  0
 13 24  1  0  0  0  0
 24 25  1  0  0  0  0
M  END
> <VConfSearch Rank>
91

> <Conf_Id>
95

> <Delta U+W>
-2.190

> <U+W>
8.723

> <U>
10.905

> <W>
-2.182

> <W(PB)>
-4.296

> <W(SA)>
2.114

> <Valence>
16.377

> <Coulomb>
-8.448

> <VdW>
2.976

> <VdW6>
-12.570

> <VdW12>
15.546

> <Bond>
0.439

> <Angle>
5.049

> <Pdih>
10.889

> <Idih>
0.000

> <Tether>
0.000

$$$$
VeraChem MOL file


 25 25  0  0  0  0  0  0  0  0999 V2000     
   21.3017   19.6831   21.2258 C   0  0  0  0  0  0  0  0  0  0  0  0
   21.8682   19.8903   20.3076 H   0  0  0  0  0  0  0  0  0  0  0  0
   21.8044   20.2985   21.9786 H   0  0  0  0  0  0  0  0  0  0  0  0
   21.4774   18.1677   21.5369 C   0  0  0  0  0  0  0  0  0  0  0  0
   21.5224   17.6387   20.5751 H   0  0  0  0  0  0  0  0  0  0  0  0
   22.4599   18.0110   22.0023 H   0  0  0  0  0  0  0  0  0  0  0  0
   20.3889   17.4629   22.3884 C   0  0  0  0  0  0  0  0  0  0  0  0
   20.6196   16.3889   22.4000 H   0  0  0  0  0  0  0  0  0  0  0  0
   19.4302   17.5129   21.8626 H   0  0  0  0  0  0  0  0  0  0  0  0
   20.2330   17.9149   23.8709 C   0  0  0  0  0  0  0  0  0  0  0  0
   19.2364   17.6236   24.2277 H   0  0  0  0  0  0  0  0  0  0  0  0
   20.9446   17.3248   24.4631 H   0  0  0  0  0  0  0  0  0  0  0  0
   20.4771   19.4067   24.2127 C   0  0  0  0  0  0  0  0  0  0  0  0
   21.4911   19.6667   23.8915 H   0  0  0  0  0  0  0  0  0  0  0  0
   19.4670   20.4374   23.6315 C   0  0  0  0  0  0  0  0  0  0  0  0
   18.6178   20.5061   24.3247 H   0  0  0  0  0  0  0  0  0  0  0  0
   19.9394   21.4278   23.6448 H   0  0  0  0  0  0  0  0  0  0  0  0
   18.8758   20.1799   22.2190 C   0  0  0  0  0  0  0  0  0  0  0  0
   18.1129   20.9483   22.0336 H   0  0  0  0  0  0  0  0  0  0  0  0
   18.3020   19.2479   22.2315 H   0  0  0  0  0  0  0  0  0  0  0  0
   19.8579   20.2095   21.0115 C   0  0  0  0  0  0  0  0  0  0  0  0
   19.9437   21.2543   20.6832 H   0  0  0  0  0  0  0  0  0  0  0  0
   19.4001   19.6749   20.1682 H   0  0  0  0  0  0  0  0  0  0  0  0
   20.4386   19.5299   25.6297 O   0  0  0  0  0  0  0  0  0  0  0  0
   21.1230   18.9253   25.9850 H   0  0  0  0  0  0  0  0  0  0  0  0
  1  2  1  0  0  0  0
  1  3  1  0  0  0  0
  1  4  1  0  0  0  0
  4  5  1  0  0  0  0
  4  6  1  0  0  0  0
  4  7  1  0  0  0  0
  7  8  1  0  0  0  0
  7  9  1  0  0  0  0
  7 10  1  0  0  0  0
 10 11  1  0  0  0  0
 10 12  1  0  0  0  0
 10 13  1  0  0  0  0
 13 14  1  0  0  0  0
 13 15  1  0  0  0  0
 15 16  1  0  0  0  0
 15 17  1  0  0  0  0
 15 18  1  0  0  0  0
 18 19  1  0  0  0  0
 18 20  1  0  0  0  0
  1 21  1  0  0  0  0
 18 21  1  0  0  0  0
 21 22  1  0  0  0  0
 21 23  1  0  0  0  0
 13 24  1  0  0  0  0
 24 25  1  0  0  0  0
M  END
> <VConfSearch Rank>
92

> <Conf_Id>
161

> <Delta U+W>
2.120

> <U+W>
13.033

> <U>
15.076

> <W>
-2.043

> <W(PB)>
-4.186

> <W(SA)>
2.143

> <Valence>
18.884

> <Coulomb>
-8.074

> <VdW>
4.266

> <VdW6>
-13.486

> <VdW12>
17.752

> <Bond>
0.713

> <Angle>
8.955

> <Pdih>
9.215

> <Idih>
0.000

> <Tether>
0.000

$$$$
VeraChem MOL file


 25 25  0  0  0  0  0  0  0  0999 V2000     
   20.8715   21.0408   23.1096 C   0  0  0  0  0  0  0  0  0  0  0  0
   21.2064   22.0871   23.1087 H   0  0  0  0  0  0  0  0  0  0  0  0
   20.9392   20.7267   24.1589 H   0  0  0  0  0  0  0  0  0  0  0  0
   21.8630   20.2203   22.2474 C   0  0  0  0  0  0  0  0  0  0  0  0
   21.5746   20.2482   21.1880 H   0  0  0  0  0  0  0  0  0  0  0  0
   22.8315   20.7367   22.2981 H   0  0  0  0  0  0  0  0  0  0  0  0
   22.1056   18.7618   22.7259 C   0  0  0  0  0  0  0  0  0  0  0  0
   22.1168   18.7010   23.8225 H   0  0  0  0  0  0  0  0  0  0  0  0
   23.1220   18.4892   22.4098 H   0  0  0  0  0  0  0  0  0  0  0  0
   21.1490   17.6995   22.1249 C   0  0  0  0  0  0  0  0  0  0  0  0
   20.8878   17.9738   21.0956 H   0  0  0  0  0  0  0  0  0  0  0  0
   21.7096   16.7598   22.0335 H   0  0  0  0  0  0  0  0  0  0  0  0
   19.8788   17.3756   22.9517 C   0  0  0  0  0  0  0  0  0  0  0  0
   20.1931   16.8311   23.8536 H   0  0  0  0  0  0  0  0  0  0  0  0
   19.0307   18.5838   23.4120 C   0  0  0  0  0  0  0  0  0  0  0  0
   18.0649   18.2078   23.7752 H   0  0  0  0  0  0  0  0  0  0  0  0
   19.4987   19.0311   24.2956 H   0  0  0  0  0  0  0  0  0  0  0  0
   18.7719   19.6554   22.3195 C   0  0  0  0  0  0  0  0  0  0  0  0
   17.6875   19.7871   22.2035 H   0  0  0  0  0  0  0  0  0  0  0  0
   19.1207   19.3145   21.3380 H   0  0  0  0  0  0  0  0  0  0  0  0
   19.3952   21.0370   22.6320 C   0  0  0  0  0  0  0  0  0  0  0  0
   18.7861   21.5331   23.4000 H   0  0  0  0  0  0  0  0  0  0  0  0
   19.3111   21.6634   21.7335 H   0  0  0  0  0  0  0  0  0  0  0  0
   19.0516   16.5259   22.1693 O   0  0  0  0  0  0  0  0  0  0  0  0
   18.6857   17.0894   21.4577 H   0  0  0  0  0  0  0  0  0  0  0  0
  1  2  1  0  0  0  0
  1  3  1  0  0  0  0
  1  4  1  0  0  0  0
  4  5  1  0  0  0  0
  4  6  1  0  0  0  0
  4  7  1  0  0  0  0
  7  8  1  0  0  0  0
  7  9  1  0  0  0  0
  7 10  1  0  0  0  0
 10 11  1  0  0  0  0
 10 12  1  0  0  0  0
 10 13  1  0  0  0  0
 13 14  1  0  0  0  0
 13 15  1  0  0  0  0
 15 16  1  0  0  0  0
 15 17  1  0  0  0  0
 15 18  1  0  0  0  0
 18 19  1  0  0  0  0
 18 20  1  0  0  0  0
  1 21  1  0  0  0  0
 18 21  1  0  0  0  0
 21 22  1  0  0  0  0
 21 23  1  0  0  0  0
 13 24  1  0  0  0  0
 24 25  1  0  0  0  0
M  END
> <VConfSearch Rank>
93

> <Conf_Id>
164

> <Delta U+W>
0.008

> <U+W>
10.922

> <U>
12.433

> <W>
-1.511

> <W(PB)>
-3.669

> <W(SA)>
2.157

> <Valence>
19.007

> <Coulomb>
-9.373

> <VdW>
2.799

> <VdW6>
-12.597

> <VdW12>
15.396

> <Bond>
0.425

> <Angle>
4.784

> <Pdih>
13.799

> <Idih>
0.000

> <Tether>
0.000

$$$$
VeraChem MOL file


 25 25  0  0  0  0  0  0  0  0999 V2000     
   18.6226   18.6975   22.2014 C   0  0  0  0  0  0  0  0  0  0  0  0
   18.6071   19.7926   22.1626 H   0  0  0  0  0  0  0  0  0  0  0  0
   17.5995   18.3972   21.9374 H   0  0  0  0  0  0  0  0  0  0  0  0
   18.8853   18.2115   23.6487 C   0  0  0  0  0  0  0  0  0  0  0  0
   18.0738   18.6008   24.2786 H   0  0  0  0  0  0  0  0  0  0  0  0
   18.7919   17.1178   23.6868 H   0  0  0  0  0  0  0  0  0  0  0  0
   20.2300   18.6245   24.2998 C   0  0  0  0  0  0  0  0  0  0  0  0
   21.0308   17.9408   23.9961 H   0  0  0  0  0  0  0  0  0  0  0  0
   20.1283   18.4649   25.3820 H   0  0  0  0  0  0  0  0  0  0  0  0
   20.6548   20.0987   24.0652 C   0  0  0  0  0  0  0  0  0  0  0  0
   19.7826   20.7302   23.8569 H   0  0  0  0  0  0  0  0  0  0  0  0
   21.0656   20.4744   25.0120 H   0  0  0  0  0  0  0  0  0  0  0  0
   21.7491   20.2981   22.9867 C   0  0  0  0  0  0  0  0  0  0  0  0
   22.5971   19.6436   23.2342 H   0  0  0  0  0  0  0  0  0  0  0  0
   21.3353   20.0181   21.5201 C   0  0  0  0  0  0  0  0  0  0  0  0
   20.4856   20.6469   21.2281 H   0  0  0  0  0  0  0  0  0  0  0  0
   22.1694   20.3435   20.8840 H   0  0  0  0  0  0  0  0  0  0  0  0
   21.0608   18.5260   21.1925 C   0  0  0  0  0  0  0  0  0  0  0  0
   21.5927   17.8741   21.8949 H   0  0  0  0  0  0  0  0  0  0  0  0
   21.5098   18.3012   20.2154 H   0  0  0  0  0  0  0  0  0  0  0  0
   19.5642   18.1311   21.1096 C   0  0  0  0  0  0  0  0  0  0  0  0
   19.4850   17.0356   21.0947 H   0  0  0  0  0  0  0  0  0  0  0  0
   19.1812   18.4695   20.1371 H   0  0  0  0  0  0  0  0  0  0  0  0
   22.1860   21.6482   23.0607 O   0  0  0  0  0  0  0  0  0  0  0  0
   21.4104   22.2021   22.8359 H   0  0  0  0  0  0  0  0  0  0  0  0
  1  2  1  0  0  0  0
  1  3  1  0  0  0  0
  1  4  1  0  0  0  0
  4  5  1  0  0  0  0
  4  6  1  0  0  0  0
  4  7  1  0  0  0  0
  7  8  1  0  0  0  0
  7  9  1  0  0  0  0
  7 10  1  0  0  0  0
 10 11  1  0  0  0  0
 10 12  1  0  0  0  0
 10 13  1  0  0  0  0
 13 14  1  0  0  0  0
 13 15  1  0  0  0  0
 15 16  1  0  0  0  0
 15 17  1  0  0  0  0
 15 18  1  0  0  0  0
 18 19  1  0  0  0  0
 18 20  1  0  0  0  0
  1 21  1  0  0  0  0
 18 21  1  0  0  0  0
 21 22  1  0  0  0  0
 21 23  1  0  0  0  0
 13 24  1  0  0  0  0
 24 25  1  0  0  0  0
M  END
> <VConfSearch Rank>
94

> <Conf_Id>
15

> <Delta U+W>
-1.271

> <U+W>
9.643

> <U>
11.413

> <W>
-1.770

> <W(PB)>
-3.908

> <W(SA)>
2.138

> <Valence>
17.496

> <Coulomb>
-8.736

> <VdW>
2.653

> <VdW6>
-12.485

> <VdW12>
15.138

> <Bond>
0.414

> <Angle>
5.295

> <Pdih>
11.787

> <Idih>
0.000

> <Tether>
0.000

$$$$
VeraChem MOL file


 25 25  0  0  0  0  0  0  0  0999 V2000     
   19.9086   18.2147   24.2164 C   0  0  0  0  0  0  0  0  0  0  0  0
   19.8418   17.5485   25.0874 H   0  0  0  0  0  0  0  0  0  0  0  0
   18.8672   18.3902   23.9181 H   0  0  0  0  0  0  0  0  0  0  0  0
   20.5675   19.5322   24.7032 C   0  0  0  0  0  0  0  0  0  0  0  0
   19.8734   20.0238   25.3984 H   0  0  0  0  0  0  0  0  0  0  0  0
   21.4590   19.2857   25.2961 H   0  0  0  0  0  0  0  0  0  0  0  0
   20.9774   20.5485   23.6104 C   0  0  0  0  0  0  0  0  0  0  0  0
   21.9179   20.2290   23.1465 H   0  0  0  0  0  0  0  0  0  0  0  0
   21.2171   21.5007   24.1031 H   0  0  0  0  0  0  0  0  0  0  0  0
   19.8849   20.8029   22.5393 C   0  0  0  0  0  0  0  0  0  0  0  0
   18.9376   20.3343   22.8280 H   0  0  0  0  0  0  0  0  0  0  0  0
   19.6703   21.8791   22.5114 H   0  0  0  0  0  0  0  0  0  0  0  0
   20.2768   20.3687   21.1081 C   0  0  0  0  0  0  0  0  0  0  0  0
   21.0055   21.0987   20.7273 H   0  0  0  0  0  0  0  0  0  0  0  0
   20.9183   18.9647   20.9609 C   0  0  0  0  0  0  0  0  0  0  0  0
   20.9744   18.7492   19.8854 H   0  0  0  0  0  0  0  0  0  0  0  0
   21.9644   18.9939   21.2887 H   0  0  0  0  0  0  0  0  0  0  0  0
   20.1867   17.7815   21.6492 C   0  0  0  0  0  0  0  0  0  0  0  0
   20.3898   16.8882   21.0427 H   0  0  0  0  0  0  0  0  0  0  0  0
   19.0976   17.9132   21.6128 H   0  0  0  0  0  0  0  0  0  0  0  0
   20.6609   17.4591   23.0932 C   0  0  0  0  0  0  0  0  0  0  0  0
   21.7466   17.5904   23.1936 H   0  0  0  0  0  0  0  0  0  0  0  0
   20.4818   16.3872   23.2549 H   0  0  0  0  0  0  0  0  0  0  0  0
   19.1131   20.4198   20.2949 O   0  0  0  0  0  0  0  0  0  0  0  0
   18.5359   19.6944   20.6076 H   0  0  0  0  0  0  0  0  0  0  0  0
  1  2  1  0  0  0  0
  1  3  1  0  0  0  0
  1  4  1  0  0  0  0
  4  5  1  0  0  0  0
  4  6  1  0  0  0  0
  4  7  1  0  0  0  0
  7  8  1  0  0  0  0
  7  9  1  0  0  0  0
  7 10  1  0  0  0  0
 10 11  1  0  0  0  0
 10 12  1  0  0  0  0
 10 13  1  0  0  0  0
 13 14  1  0  0  0  0
 13 15  1  0  0  0  0
 15 16  1  0  0  0  0
 15 17  1  0  0  0  0
 15 18  1  0  0  0  0
 18 19  1  0  0  0  0
 18 20  1  0  0  0  0
  1 21  1  0  0  0  0
 18 21  1  0  0  0  0
 21 22  1  0  0  0  0
 21 23  1  0  0  0  0
 13 24  1  0  0  0  0
 24 25  1  0  0  0  0
M  END
> <VConfSearch Rank>
95

> <Conf_Id>
115

> <Delta U+W>
0.038

> <U+W>
10.952

> <U>
12.526

> <W>
-1.575

> <W(PB)>
-3.698

> <W(SA)>
2.123

> <Valence>
19.016

> <Coulomb>
-9.226

> <VdW>
2.737

> <VdW6>
-12.612

> <VdW12>
15.349

> <Bond>
0.421

> <Angle>
4.883

> <Pdih>
13.711

> <Idih>
0.000

> <Tether>
0.000

$$$$
VeraChem MOL file


 25 25  0  0  0  0  0  0  0  0999 V2000     
   18.8767   18.1623   23.7887 C   0  0  0  0  0  0  0  0  0  0  0  0
   17.8987   17.6827   23.9318 H   0  0  0  0  0  0  0  0  0  0  0  0
   19.4988   17.8170   24.6255 H   0  0  0  0  0  0  0  0  0  0  0  0
   18.6587   19.6903   23.8842 C   0  0  0  0  0  0  0  0  0  0  0  0
   17.9392   20.0171   23.1212 H   0  0  0  0  0  0  0  0  0  0  0  0
   18.1766   19.8935   24.8503 H   0  0  0  0  0  0  0  0  0  0  0  0
   19.9454   20.5442   23.8056 C   0  0  0  0  0  0  0  0  0  0  0  0
   20.7477   20.0798   24.3943 H   0  0  0  0  0  0  0  0  0  0  0  0
   19.7356   21.5012   24.3029 H   0  0  0  0  0  0  0  0  0  0  0  0
   20.4133   20.8629   22.3601 C   0  0  0  0  0  0  0  0  0  0  0  0
   19.6295   20.6332   21.6275 H   0  0  0  0  0  0  0  0  0  0  0  0
   20.5632   21.9492   22.2967 H   0  0  0  0  0  0  0  0  0  0  0  0
   21.7361   20.1770   21.9509 C   0  0  0  0  0  0  0  0  0  0  0  0
   22.4014   20.1368   22.8252 H   0  0  0  0  0  0  0  0  0  0  0  0
   21.5725   18.7513   21.3788 C   0  0  0  0  0  0  0  0  0  0  0  0
   20.9603   18.7813   20.4678 H   0  0  0  0  0  0  0  0  0  0  0  0
   22.5651   18.4065   21.0604 H   0  0  0  0  0  0  0  0  0  0  0  0
   21.0080   17.7005   22.3655 C   0  0  0  0  0  0  0  0  0  0  0  0
   21.4581   17.8278   23.3591 H   0  0  0  0  0  0  0  0  0  0  0  0
   21.3436   16.7133   22.0189 H   0  0  0  0  0  0  0  0  0  0  0  0
   19.4594   17.6611   22.4464 C   0  0  0  0  0  0  0  0  0  0  0  0
   19.1511   16.6132   22.3278 H   0  0  0  0  0  0  0  0  0  0  0  0
   18.9989   18.1959   21.6052 H   0  0  0  0  0  0  0  0  0  0  0  0
   22.3519   20.9727   20.9453 O   0  0  0  0  0  0  0  0  0  0  0  0
   23.2122   20.5516   20.7381 H   0  0  0  0  0  0  0  0  0  0  0  0
  1  2  1  0  0  0  0
  1  3  1  0  0  0  0
  1  4  1  0  0  0  0
  4  5  1  0  0  0  0
  4  6  1  0  0  0  0
  4  7  1  0  0  0  0
  7  8  1  0  0  0  0
  7  9  1  0  0  0  0
  7 10  1  0  0  0  0
 10 11  1  0  0  0  0
 10 12  1  0  0  0  0
 10 13  1  0  0  0  0
 13 14  1  0  0  0  0
 13 15  1  0  0  0  0
 15 16  1  0  0  0  0
 15 17  1  0  0  0  0
 15 18  1  0  0  0  0
 18 19  1  0  0  0  0
 18 20  1  0  0  0  0
  1 21  1  0  0  0  0
 18 21  1  0  0  0  0
 21 22  1  0  0  0  0
 21 23  1  0  0  0  0
 13 24  1  0  0  0  0
 24 25  1  0  0  0  0
M  END
> <VConfSearch Rank>
96

> <Conf_Id>
30

> <Delta U+W>
0.000

> <U+W>
10.913

> <U>
13.140

> <W>
-2.227

> <W(PB)>
-4.367

> <W(SA)>
2.140

> <Valence>
19.155

> <Coulomb>
-8.157

> <VdW>
2.142

> <VdW6>
-11.576

> <VdW12>
13.718

> <Bond>
0.294

> <Angle>
3.547

> <Pdih>
15.314

> <Idih>
0.000

> <Tether>
0.000

$$$$
VeraChem MOL file


 25 25  0  0  0  0  0  0  0  0999 V2000     
   19.3084   21.0592   22.1021 C   0  0  0  0  0  0  0  0  0  0  0  0
   19.6580   21.9955   21.6462 H   0  0  0  0  0  0  0  0  0  0  0  0
   18.2442   21.2168   22.3247 H   0  0  0  0  0  0  0  0  0  0  0  0
   20.0587   20.8549   23.4413 C   0  0  0  0  0  0  0  0  0  0  0  0
   20.0794   21.8188   23.9679 H   0  0  0  0  0  0  0  0  0  0  0  0
   19.4746   20.1957   24.0938 H   0  0  0  0  0  0  0  0  0  0  0  0
   21.5136   20.3431   23.2889 C   0  0  0  0  0  0  0  0  0  0  0  0
   22.1887   21.0409   23.8028 H   0  0  0  0  0  0  0  0  0  0  0  0
   21.8316   20.3677   22.2401 H   0  0  0  0  0  0  0  0  0  0  0  0
   21.7503   18.9276   23.8736 C   0  0  0  0  0  0  0  0  0  0  0  0
   22.7420   18.5816   23.5533 H   0  0  0  0  0  0  0  0  0  0  0  0
   21.7977   19.0072   24.9675 H   0  0  0  0  0  0  0  0  0  0  0  0
   20.7003   17.8426   23.5266 C   0  0  0  0  0  0  0  0  0  0  0  0
   19.7672   18.0574   24.0642 H   0  0  0  0  0  0  0  0  0  0  0  0
   20.3801   17.6959   22.0188 C   0  0  0  0  0  0  0  0  0  0  0  0
   21.2643   17.9388   21.4157 H   0  0  0  0  0  0  0  0  0  0  0  0
   20.1723   16.6369   21.8155 H   0  0  0  0  0  0  0  0  0  0  0  0
   19.1395   18.4965   21.5313 C   0  0  0  0  0  0  0  0  0  0  0  0
   18.3453   18.5005   22.2900 H   0  0  0  0  0  0  0  0  0  0  0  0
   18.7221   17.9479   20.6757 H   0  0  0  0  0  0  0  0  0  0  0  0
   19.4377   19.9348   21.0402 C   0  0  0  0  0  0  0  0  0  0  0  0
   18.7266   20.1710   20.2368 H   0  0  0  0  0  0  0  0  0  0  0  0
   20.4234   19.9697   20.5590 H   0  0  0  0  0  0  0  0  0  0  0  0
   21.2073   16.6007   24.0010 O   0  0  0  0  0  0  0  0  0  0  0  0
   20.5054   15.9334   23.8509 H   0  0  0  0  0  0  0  0  0  0  0  0
  1  2  1  0  0  0  0
  1  3  1  0  0  0  0
  1  4  1  0  0  0  0
  4  5  1  0  0  0  0
  4  6  1  0  0  0  0
  4  7  1  0  0  0  0
  7  8  1  0  0  0  0
  7  9  1  0  0  0  0
  7 10  1  0  0  0  0
 10 11  1  0  0  0  0
 10 12  1  0  0  0  0
 10 13  1  0  0  0  0
 13 14  1  0  0  0  0
 13 15  1  0  0  0  0
 15 16  1  0  0  0  0
 15 17  1  0  0  0  0
 15 18  1  0  0  0  0
 18 19  1  0  0  0  0
 18 20  1  0  0  0  0
  1 21  1  0  0  0  0
 18 21  1  0  0  0  0
 21 22  1  0  0  0  0
 21 23  1  0  0  0  0
 13 24  1  0  0  0  0
 24 25  1  0  0  0  0
M  END
> <VConfSearch Rank>
97

> <Conf_Id>
162

> <Delta U+W>
0.219

> <U+W>
11.132

> <U>
13.296

> <W>
-2.164

> <W(PB)>
-4.311

> <W(SA)>
2.148

> <Valence>
18.607

> <Coulomb>
-8.339

> <VdW>
3.028

> <VdW6>
-12.271

> <VdW12>
15.299

> <Bond>
0.423

> <Angle>
4.488

> <Pdih>
13.696

> <Idih>
0.000

> <Tether>
0.000

$$$$
VeraChem MOL file


 25 25  0  0  0  0  0  0  0  0999 V2000     
   20.4571   17.6756   21.4171 C   0  0  0  0  0  0  0  0  0  0  0  0
   19.3634   17.7227   21.3416 H   0  0  0  0  0  0  0  0  0  0  0  0
   20.7502   16.8681   20.7322 H   0  0  0  0  0  0  0  0  0  0  0  0
   21.0802   18.9945   20.8955 C   0  0  0  0  0  0  0  0  0  0  0  0
   22.1024   19.1202   21.2769 H   0  0  0  0  0  0  0  0  0  0  0  0
   21.1872   18.8876   19.8073 H   0  0  0  0  0  0  0  0  0  0  0  0
   20.2284   20.2712   21.1406 C   0  0  0  0  0  0  0  0  0  0  0  0
   19.1564   20.0607   21.0282 H   0  0  0  0  0  0  0  0  0  0  0  0
   20.4723   20.9750   20.3330 H   0  0  0  0  0  0  0  0  0  0  0  0
   20.5090   21.0072   22.4766 C   0  0  0  0  0  0  0  0  0  0  0  0
   21.5690   20.9106   22.7417 H   0  0  0  0  0  0  0  0  0  0  0  0
   20.3571   22.0810   22.3062 H   0  0  0  0  0  0  0  0  0  0  0  0
   19.6097   20.6197   23.6777 C   0  0  0  0  0  0  0  0  0  0  0  0
   18.6012   21.0125   23.4834 H   0  0  0  0  0  0  0  0  0  0  0  0
   19.4661   19.1063   23.9659 C   0  0  0  0  0  0  0  0  0  0  0  0
   18.9900   18.9810   24.9470 H   0  0  0  0  0  0  0  0  0  0  0  0
   18.7493   18.6761   23.2584 H   0  0  0  0  0  0  0  0  0  0  0  0
   20.7996   18.3132   23.9540 C   0  0  0  0  0  0  0  0  0  0  0  0
   20.9224   17.8142   24.9247 H   0  0  0  0  0  0  0  0  0  0  0  0
   21.6578   18.9913   23.8785 H   0  0  0  0  0  0  0  0  0  0  0  0
   20.8886   17.2397   22.8425 C   0  0  0  0  0  0  0  0  0  0  0  0
   20.2751   16.3770   23.1361 H   0  0  0  0  0  0  0  0  0  0  0  0
   21.9227   16.8710   22.8032 H   0  0  0  0  0  0  0  0  0  0  0  0
   20.1363   21.2539   24.8372 O   0  0  0  0  0  0  0  0  0  0  0  0
   19.5591   20.9970   25.5855 H   0  0  0  0  0  0  0  0  0  0  0  0
  1  2  1  0  0  0  0
  1  3  1  0  0  0  0
  1  4  1  0  0  0  0
  4  5  1  0  0  0  0
  4  6  1  0  0  0  0
  4  7  1  0  0  0  0
  7  8  1  0  0  0  0
  7  9  1  0  0  0  0
  7 10  1  0  0  0  0
 10 11  1  0  0  0  0
 10 12  1  0  0  0  0
 10 13  1  0  0  0  0
 13 14  1  0  0  0  0
 13 15  1  0  0  0  0
 15 16  1  0  0  0  0
 15 17  1  0  0  0  0
 15 18  1  0  0  0  0
 18 19  1  0  0  0  0
 18 20  1  0  0  0  0
  1 21  1  0  0  0  0
 18 21  1  0  0  0  0
 21 22  1  0  0  0  0
 21 23  1  0  0  0  0
 13 24  1  0  0  0  0
 24 25  1  0  0  0  0
M  END
> <VConfSearch Rank>
98

> <Conf_Id>
155

> <Delta U+W>
0.339

> <U+W>
11.252

> <U>
13.420

> <W>
-2.167

> <W(PB)>
-4.325

> <W(SA)>
2.157

> <Valence>
18.609

> <Coulomb>
-8.052

> <VdW>
2.863

> <VdW6>
-12.524

> <VdW12>
15.387

> <Bond>
0.430

> <Angle>
4.724

> <Pdih>
13.455

> <Idih>
0.000

> <Tether>
0.000

$$$$
VeraChem MOL file


 25 25  0  0  0  0  0  0  0  0999 V2000     
   21.7535   20.3013   23.6217 C   0  0  0  0  0  0  0  0  0  0  0  0
   21.5618   21.3826   23.6363 H   0  0  0  0  0  0  0  0  0  0  0  0
   22.6929   20.1635   24.1742 H   0  0  0  0  0  0  0  0  0  0  0  0
   20.6453   19.5749   24.4287 C   0  0  0  0  0  0  0  0  0  0  0  0
   20.8974   18.5131   24.5142 H   0  0  0  0  0  0  0  0  0  0  0  0
   20.6989   19.9357   25.4649 H   0  0  0  0  0  0  0  0  0  0  0  0
   19.1734   19.7580   23.9565 C   0  0  0  0  0  0  0  0  0  0  0  0
   18.7889   20.6738   24.4256 H   0  0  0  0  0  0  0  0  0  0  0  0
   18.5640   18.9405   24.3652 H   0  0  0  0  0  0  0  0  0  0  0  0
   18.9026   19.8810   22.4322 C   0  0  0  0  0  0  0  0  0  0  0  0
   17.8440   20.1438   22.3073 H   0  0  0  0  0  0  0  0  0  0  0  0
   19.4240   20.7605   22.0444 H   0  0  0  0  0  0  0  0  0  0  0  0
   19.1945   18.6413   21.5364 C   0  0  0  0  0  0  0  0  0  0  0  0
   19.3580   19.0007   20.5103 H   0  0  0  0  0  0  0  0  0  0  0  0
   20.3947   17.7408   21.9222 C   0  0  0  0  0  0  0  0  0  0  0  0
   20.2213   17.3216   22.9176 H   0  0  0  0  0  0  0  0  0  0  0  0
   20.3729   16.8622   21.2640 H   0  0  0  0  0  0  0  0  0  0  0  0
   21.8254   18.3496   21.8186 C   0  0  0  0  0  0  0  0  0  0  0  0
   22.1694   18.2068   20.7851 H   0  0  0  0  0  0  0  0  0  0  0  0
   22.5097   17.7558   22.4394 H   0  0  0  0  0  0  0  0  0  0  0  0
   22.0085   19.8535   22.1526 C   0  0  0  0  0  0  0  0  0  0  0  0
   21.4186   20.4553   21.4541 H   0  0  0  0  0  0  0  0  0  0  0  0
   23.0455   20.1227   21.9096 H   0  0  0  0  0  0  0  0  0  0  0  0
   18.0362   17.8139   21.5462 O   0  0  0  0  0  0  0  0  0  0  0  0
   17.2872   18.3721   21.2521 H   0  0  0  0  0  0  0  0  0  0  0  0
  1  2  1  0  0  0  0
  1  3  1  0  0  0  0
  1  4  1  0  0  0  0
  4  5  1  0  0  0  0
  4  6  1  0  0  0  0
  4  7  1  0  0  0  0
  7  8  1  0  0  0  0
  7  9  1  0  0  0  0
  7 10  1  0  0  0  0
 10 11  1  0  0  0  0
 10 12  1  0  0  0  0
 10 13  1  0  0  0  0
 13 14  1  0  0  0  0
 13 15  1  0  0  0  0
 15 16  1  0  0  0  0
 15 17  1  0  0  0  0
 15 18  1  0  0  0  0
 18 19  1  0  0  0  0
 18 20  1  0  0  0  0
  1 21  1  0  0  0  0
 18 21  1  0  0  0  0
 21 22  1  0  0  0  0
 21 23  1  0  0  0  0
 13 24  1  0  0  0  0
 24 25  1  0  0  0  0
M  END
> <VConfSearch Rank>
99

> <Conf_Id>
146

> <Delta U+W>
2.553

> <U+W>
13.466

> <U>
15.643

> <W>
-2.176

> <W(PB)>
-4.307

> <W(SA)>
2.131

> <Valence>
18.916

> <Coulomb>
-7.506

> <VdW>
4.232

> <VdW6>
-13.632

> <VdW12>
17.864

> <Bond>
0.735

> <Angle>
9.140

> <Pdih>
9.042

> <Idih>
0.000

> <Tether>
0.000

$$$$
VeraChem MOL file


 25 25  0  0  0  0  0  0  0  0999 V2000     
   19.3470   17.4510   22.9983 C   0  0  0  0  0  0  0  0  0  0  0  0
   19.2933   16.9829   23.9906 H   0  0  0  0  0  0  0  0  0  0  0  0
   18.8080   16.7736   22.3218 H   0  0  0  0  0  0  0  0  0  0  0  0
   20.8237   17.4920   22.5316 C   0  0  0  0  0  0  0  0  0  0  0  0
   21.1774   16.4533   22.4780 H   0  0  0  0  0  0  0  0  0  0  0  0
   20.8875   17.8582   21.5006 H   0  0  0  0  0  0  0  0  0  0  0  0
   21.8069   18.2657   23.4454 C   0  0  0  0  0  0  0  0  0  0  0  0
   22.8198   18.1068   23.0507 H   0  0  0  0  0  0  0  0  0  0  0  0
   21.8034   17.8145   24.4469 H   0  0  0  0  0  0  0  0  0  0  0  0
   21.5853   19.7948   23.5812 C   0  0  0  0  0  0  0  0  0  0  0  0
   20.8042   20.0018   24.3195 H   0  0  0  0  0  0  0  0  0  0  0  0
   22.4988   20.2151   24.0234 H   0  0  0  0  0  0  0  0  0  0  0  0
   21.2778   20.5358   22.2544 C   0  0  0  0  0  0  0  0  0  0  0  0
   21.6143   19.9257   21.4053 H   0  0  0  0  0  0  0  0  0  0  0  0
   19.7837   20.9007   22.0638 C   0  0  0  0  0  0  0  0  0  0  0  0
   19.4414   21.4825   22.9300 H   0  0  0  0  0  0  0  0  0  0  0  0
   19.7074   21.5778   21.2030 H   0  0  0  0  0  0  0  0  0  0  0  0
   18.8002   19.7251   21.8145 C   0  0  0  0  0  0  0  0  0  0  0  0
   19.0978   19.1491   20.9288 H   0  0  0  0  0  0  0  0  0  0  0  0
   17.8295   20.1690   21.5546 H   0  0  0  0  0  0  0  0  0  0  0  0
   18.5747   18.7951   23.0347 C   0  0  0  0  0  0  0  0  0  0  0  0
   17.5048   18.5508   23.0847 H   0  0  0  0  0  0  0  0  0  0  0  0
   18.7755   19.3309   23.9693 H   0  0  0  0  0  0  0  0  0  0  0  0
   22.0150   21.7531   22.2469 O   0  0  0  0  0  0  0  0  0  0  0  0
   21.8537   22.1766   21.3780 H   0  0  0  0  0  0  0  0  0  0  0  0
  1  2  1  0  0  0  0
  1  3  1  0  0  0  0
  1  4  1  0  0  0  0
  4  5  1  0  0  0  0
  4  6  1  0  0  0  0
  4  7  1  0  0  0  0
  7  8  1  0  0  0  0
  7  9  1  0  0  0  0
  7 10  1  0  0  0  0
 10 11  1  0  0  0  0
 10 12  1  0  0  0  0
 10 13  1  0  0  0  0
 13 14  1  0  0  0  0
 13 15  1  0  0  0  0
 15 16  1  0  0  0  0
 15 17  1  0  0  0  0
 15 18  1  0  0  0  0
 18 19  1  0  0  0  0
 18 20  1  0  0  0  0
  1 21  1  0  0  0  0
 18 21  1  0  0  0  0
 21 22  1  0  0  0  0
 21 23  1  0  0  0  0
 13 24  1  0  0  0  0
 24 25  1  0  0  0  0
M  END
> <VConfSearch Rank>
100

> <Conf_Id>
62

> <Delta U+W>
-1.779

> <U+W>
9.134

> <U>
11.364

> <W>
-2.230

> <W(PB)>
-4.359

> <W(SA)>
2.129

> <Valence>
16.582

> <Coulomb>
-8.150

> <VdW>
2.933

> <VdW6>
-12.531

> <VdW12>
15.464

> <Bond>
0.439

> <Angle>
5.099

> <Pdih>
11.044

> <Idih>
0.000

> <Tether>
0.000

$$$$
VeraChem MOL file


 25 25  0  0  0  0  0  0  0  0999 V2000     
   20.0379   20.0258   24.3098 C   0  0  0  0  0  0  0  0  0  0  0  0
   19.1832   20.3141   23.6873 H   0  0  0  0  0  0  0  0  0  0  0  0
   19.8604   20.5256   25.2717 H   0  0  0  0  0  0  0  0  0  0  0  0
   21.3509   20.6046   23.7260 C   0  0  0  0  0  0  0  0  0  0  0  0
   21.2482   21.6982   23.7066 H   0  0  0  0  0  0  0  0  0  0  0  0
   22.1784   20.3963   24.4177 H   0  0  0  0  0  0  0  0  0  0  0  0
   21.7561   20.1415   22.3033 C   0  0  0  0  0  0  0  0  0  0  0  0
   22.2762   19.1779   22.3459 H   0  0  0  0  0  0  0  0  0  0  0  0
   22.5146   20.8469   21.9372 H   0  0  0  0  0  0  0  0  0  0  0  0
   20.6006   20.0916   21.2680 C   0  0  0  0  0  0  0  0  0  0  0  0
   19.7853   20.7676   21.5537 H   0  0  0  0  0  0  0  0  0  0  0  0
   20.9928   20.4940   20.3249 H   0  0  0  0  0  0  0  0  0  0  0  0
   20.0511   18.6733   20.9715 C   0  0  0  0  0  0  0  0  0  0  0  0
   20.8969   18.0264   20.6975 H   0  0  0  0  0  0  0  0  0  0  0  0
   19.2695   17.9840   22.1177 C   0  0  0  0  0  0  0  0  0  0  0  0
   18.4155   18.5995   22.4252 H   0  0  0  0  0  0  0  0  0  0  0  0
   18.8296   17.0689   21.6995 H   0  0  0  0  0  0  0  0  0  0  0  0
   20.1300   17.5673   23.3407 C   0  0  0  0  0  0  0  0  0  0  0  0
   21.1776   17.4365   23.0467 H   0  0  0  0  0  0  0  0  0  0  0  0
   19.8079   16.5671   23.6615 H   0  0  0  0  0  0  0  0  0  0  0  0
   20.0228   18.4996   24.5745 C   0  0  0  0  0  0  0  0  0  0  0  0
   20.8226   18.2461   25.2834 H   0  0  0  0  0  0  0  0  0  0  0  0
   19.0823   18.2650   25.0915 H   0  0  0  0  0  0  0  0  0  0  0  0
   19.1740   18.7749   19.8566 O   0  0  0  0  0  0  0  0  0  0  0  0
   19.6976   19.1489   19.1176 H   0  0  0  0  0  0  0  0  0  0  0  0
  1  2  1  0  0  0  0
  1  3  1  0  0  0  0
  1  4  1  0  0  0  0
  4  5  1  0  0  0  0
  4  6  1  0  0  0  0
  4  7  1  0  0  0  0
  7  8  1  0  0  0  0
  7  9  1  0  0  0  0
  7 10  1  0  0  0  0
 10 11  1  0  0  0  0
 10 12  1  0  0  0  0
 10 13  1  0  0  0  0
 13 14  1  0  0  0  0
 13 15  1  0  0  0  0
 15 16  1  0  0  0  0
 15 17  1  0  0  0  0
 15 18  1  0  0  0  0
 18 19  1  0  0  0  0
 18 20  1  0  0  0  0
  1 21  1  0  0  0  0
 18 21  1  0  0  0  0
 21 22  1  0  0  0  0
 21 23  1  0  0  0  0
 13 24  1  0  0  0  0
 24 25  1  0  0  0  0
M  END
> <VConfSearch Rank>
101

> <Conf_Id>
121

> <Delta U+W>
-1.283

> <U+W>
9.630

> <U>
11.876

> <W>
-2.246

> <W(PB)>
-4.376

> <W(SA)>
2.130

> <Valence>
17.153

> <Coulomb>
-7.966

> <VdW>
2.689

> <VdW6>
-12.458

> <VdW12>
15.147

> <Bond>
0.421

> <Angle>
5.258

> <Pdih>
11.475

> <Idih>
0.000

> <Tether>
0.000

$$$$
VeraChem MOL file


 25 25  0  0  0  0  0  0  0  0999 V2000     
   21.9080   20.1553   22.1873 C   0  0  0  0  0  0  0  0  0  0  0  0
   21.5734   20.6680   23.0963 H   0  0  0  0  0  0  0  0  0  0  0  0
   22.8391   20.6669   21.9082 H   0  0  0  0  0  0  0  0  0  0  0  0
   20.8960   20.3812   21.0364 C   0  0  0  0  0  0  0  0  0  0  0  0
   20.8358   21.4638   20.8595 H   0  0  0  0  0  0  0  0  0  0  0  0
   21.2984   19.9509   20.1094 H   0  0  0  0  0  0  0  0  0  0  0  0
   19.4535   19.8556   21.2504 C   0  0  0  0  0  0  0  0  0  0  0  0
   19.3915   18.7897   21.0036 H   0  0  0  0  0  0  0  0  0  0  0  0
   18.8153   20.3478   20.5038 H   0  0  0  0  0  0  0  0  0  0  0  0
   18.8511   20.1248   22.6555 C   0  0  0  0  0  0  0  0  0  0  0  0
   19.3328   20.9854   23.1350 H   0  0  0  0  0  0  0  0  0  0  0  0
   17.8043   20.4237   22.5115 H   0  0  0  0  0  0  0  0  0  0  0  0
   18.8444   18.9046   23.6099 C   0  0  0  0  0  0  0  0  0  0  0  0
   18.3571   18.0671   23.0901 H   0  0  0  0  0  0  0  0  0  0  0  0
   20.2255   18.4218   24.1205 C   0  0  0  0  0  0  0  0  0  0  0  0
   20.7485   19.2340   24.6401 H   0  0  0  0  0  0  0  0  0  0  0  0
   20.0417   17.6585   24.8880 H   0  0  0  0  0  0  0  0  0  0  0  0
   21.1326   17.7754   23.0394 C   0  0  0  0  0  0  0  0  0  0  0  0
   20.5276   17.3841   22.2136 H   0  0  0  0  0  0  0  0  0  0  0  0
   21.6077   16.8866   23.4767 H   0  0  0  0  0  0  0  0  0  0  0  0
   22.2686   18.6816   22.4999 C   0  0  0  0  0  0  0  0  0  0  0  0
   22.7009   18.2159   21.6040 H   0  0  0  0  0  0  0  0  0  0  0  0
   23.0737   18.6915   23.2473 H   0  0  0  0  0  0  0  0  0  0  0  0
   18.0627   19.2541   24.7454 O   0  0  0  0  0  0  0  0  0  0  0  0
   18.0086   18.4543   25.3089 H   0  0  0  0  0  0  0  0  0  0  0  0
  1  2  1  0  0  0  0
  1  3  1  0  0  0  0
  1  4  1  0  0  0  0
  4  5  1  0  0  0  0
  4  6  1  0  0  0  0
  4  7  1  0  0  0  0
  7  8  1  0  0  0  0
  7  9  1  0  0  0  0
  7 10  1  0  0  0  0
 10 11  1  0  0  0  0
 10 12  1  0  0  0  0
 10 13  1  0  0  0  0
 13 14  1  0  0  0  0
 13 15  1  0  0  0  0
 15 16  1  0  0  0  0
 15 17  1  0  0  0  0
 15 18  1  0  0  0  0
 18 19  1  0  0  0  0
 18 20  1  0  0  0  0
  1 21  1  0  0  0  0
 18 21  1  0  0  0  0
 21 22  1  0  0  0  0
 21 23  1  0  0  0  0
 13 24  1  0  0  0  0
 24 25  1  0  0  0  0
M  END
> <VConfSearch Rank>
102

> <Conf_Id>
24

> <Delta U+W>
-1.236

> <U+W>
9.678

> <U>
11.876

> <W>
-2.199

> <W(PB)>
-4.335

> <W(SA)>
2.137

> <Valence>
17.153

> <Coulomb>
-7.966

> <VdW>
2.689

> <VdW6>
-12.458

> <VdW12>
15.147

> <Bond>
0.421

> <Angle>
5.258

> <Pdih>
11.475

> <Idih>
0.000

> <Tether>
0.000

$$$$
VeraChem MOL file


 25 25  0  0  0  0  0  0  0  0999 V2000     
   22.1408   18.7872   23.6064 C   0  0  0  0  0  0  0  0  0  0  0  0
   23.0888   19.2322   23.2747 H   0  0  0  0  0  0  0  0  0  0  0  0
   22.4040   18.1039   24.4255 H   0  0  0  0  0  0  0  0  0  0  0  0
   21.2381   19.9065   24.1900 C   0  0  0  0  0  0  0  0  0  0  0  0
   20.4458   19.4769   24.8160 H   0  0  0  0  0  0  0  0  0  0  0  0
   21.8590   20.4877   24.8855 H   0  0  0  0  0  0  0  0  0  0  0  0
   20.6259   20.8906   23.1627 C   0  0  0  0  0  0  0  0  0  0  0  0
   21.3191   21.0652   22.3287 H   0  0  0  0  0  0  0  0  0  0  0  0
   20.5297   21.8609   23.6690 H   0  0  0  0  0  0  0  0  0  0  0  0
   19.2098   20.5094   22.6457 C   0  0  0  0  0  0  0  0  0  0  0  0
   18.6116   20.0542   23.4453 H   0  0  0  0  0  0  0  0  0  0  0  0
   18.7024   21.4520   22.3987 H   0  0  0  0  0  0  0  0  0  0  0  0
   19.1934   19.6179   21.3800 C   0  0  0  0  0  0  0  0  0  0  0  0
   20.1002   19.8244   20.7962 H   0  0  0  0  0  0  0  0  0  0  0  0
   19.0893   18.0941   21.6424 C   0  0  0  0  0  0  0  0  0  0  0  0
   18.0751   17.8520   21.9862 H   0  0  0  0  0  0  0  0  0  0  0  0
   19.2117   17.5818   20.6789 H   0  0  0  0  0  0  0  0  0  0  0  0
   20.0987   17.4870   22.6490 C   0  0  0  0  0  0  0  0  0  0  0  0
   20.0601   16.3934   22.5525 H   0  0  0  0  0  0  0  0  0  0  0  0
   19.7656   17.6889   23.6738 H   0  0  0  0  0  0  0  0  0  0  0  0
   21.5612   17.9535   22.4374 C   0  0  0  0  0  0  0  0  0  0  0  0
   21.6661   18.5116   21.4998 H   0  0  0  0  0  0  0  0  0  0  0  0
   22.1968   17.0672   22.3057 H   0  0  0  0  0  0  0  0  0  0  0  0
   18.0717   19.9866   20.5879 O   0  0  0  0  0  0  0  0  0  0  0  0
   17.2777   19.8137   21.1344 H   0  0  0  0  0  0  0  0  0  0  0  0
  1  2  1  0  0  0  0
  1  3  1  0  0  0  0
  1  4  1  0  0  0  0
  4  5  1  0  0  0  0
  4  6  1  0  0  0  0
  4  7  1  0  0  0  0
  7  8  1  0  0  0  0
  7  9  1  0  0  0  0
  7 10  1  0  0  0  0
 10 11  1  0  0  0  0
 10 12  1  0  0  0  0
 10 13  1  0  0  0  0
 13 14  1  0  0  0  0
 13 15  1  0  0  0  0
 15 16  1  0  0  0  0
 15 17  1  0  0  0  0
 15 18  1  0  0  0  0
 18 19  1  0  0  0  0
 18 20  1  0  0  0  0
  1 21  1  0  0  0  0
 18 21  1  0  0  0  0
 21 22  1  0  0  0  0
 21 23  1  0  0  0  0
 13 24  1  0  0  0  0
 24 25  1  0  0  0  0
M  END
> <VConfSearch Rank>
103

> <Conf_Id>
167

> <Delta U+W>
0.388

> <U+W>
11.301

> <U>
13.202

> <W>
-1.901

> <W(PB)>
-4.065

> <W(SA)>
2.163

> <Valence>
18.957

> <Coulomb>
-8.753

> <VdW>
2.998

> <VdW6>
-12.294

> <VdW12>
15.292

> <Bond>
0.419

> <Angle>
4.543

> <Pdih>
13.996

> <Idih>
0.000

> <Tether>
0.000

$$$$
VeraChem MOL file


 25 25  0  0  0  0  0  0  0  0999 V2000     
   18.5089   20.1131   23.1605 C   0  0  0  0  0  0  0  0  0  0  0  0
   18.3150   20.4733   24.1799 H   0  0  0  0  0  0  0  0  0  0  0  0
   17.6061   20.3568   22.5840 H   0  0  0  0  0  0  0  0  0  0  0  0
   18.6461   18.5686   23.1914 C   0  0  0  0  0  0  0  0  0  0  0  0
   19.2192   18.2489   24.0690 H   0  0  0  0  0  0  0  0  0  0  0  0
   17.6404   18.1594   23.3590 H   0  0  0  0  0  0  0  0  0  0  0  0
   19.2195   17.9241   21.9027 C   0  0  0  0  0  0  0  0  0  0  0  0
   19.0320   18.5587   21.0270 H   0  0  0  0  0  0  0  0  0  0  0  0
   18.6532   17.0017   21.7148 H   0  0  0  0  0  0  0  0  0  0  0  0
   20.7187   17.5264   21.9839 C   0  0  0  0  0  0  0  0  0  0  0  0
   20.8735   16.8599   22.8425 H   0  0  0  0  0  0  0  0  0  0  0  0
   20.9488   16.9232   21.0957 H   0  0  0  0  0  0  0  0  0  0  0  0
   21.7471   18.6832   22.0448 C   0  0  0  0  0  0  0  0  0  0  0  0
   21.5693   19.3664   21.2035 H   0  0  0  0  0  0  0  0  0  0  0  0
   21.7302   19.4758   23.3775 C   0  0  0  0  0  0  0  0  0  0  0  0
   21.2896   18.8660   24.1727 H   0  0  0  0  0  0  0  0  0  0  0  0
   22.7613   19.6536   23.7110 H   0  0  0  0  0  0  0  0  0  0  0  0
   21.0275   20.8565   23.3098 C   0  0  0  0  0  0  0  0  0  0  0  0
   21.7161   21.5625   22.8256 H   0  0  0  0  0  0  0  0  0  0  0  0
   20.8840   21.2338   24.3314 H   0  0  0  0  0  0  0  0  0  0  0  0
   19.6803   20.9206   22.5470 C   0  0  0  0  0  0  0  0  0  0  0  0
   19.8200   20.6488   21.4946 H   0  0  0  0  0  0  0  0  0  0  0  0
   19.3708   21.9744   22.5210 H   0  0  0  0  0  0  0  0  0  0  0  0
   23.0392   18.1096   21.8844 O   0  0  0  0  0  0  0  0  0  0  0  0
   23.6753   18.8546   21.8550 H   0  0  0  0  0  0  0  0  0  0  0  0
  1  2  1  0  0  0  0
  1  3  1  0  0  0  0
  1  4  1  0  0  0  0
  4  5  1  0  0  0  0
  4  6  1  0  0  0  0
  4  7  1  0  0  0  0
  7  8  1  0  0  0  0
  7  9  1  0  0  0  0
  7 10  1  0  0  0  0
 10 11  1  0  0  0  0
 10 12  1  0  0  0  0
 10 13  1  0  0  0  0
 13 14  1  0  0  0  0
 13 15  1  0  0  0  0
 15 16  1  0  0  0  0
 15 17  1  0  0  0  0
 15 18  1  0  0  0  0
 18 19  1  0  0  0  0
 18 20  1  0  0  0  0
  1 21  1  0  0  0  0
 18 21  1  0  0  0  0
 21 22  1  0  0  0  0
 21 23  1  0  0  0  0
 13 24  1  0  0  0  0
 24 25  1  0  0  0  0
M  END
> <VConfSearch Rank>
104

> <Conf_Id>
60

> <Delta U+W>
-1.838

> <U+W>
9.075

> <U>
11.150

> <W>
-2.074

> <W(PB)>
-4.196

> <W(SA)>
2.121

> <Valence>
16.582

> <Coulomb>
-8.361

> <VdW>
2.928

> <VdW6>
-12.539

> <VdW12>
15.467

> <Bond>
0.441

> <Angle>
5.093

> <Pdih>
11.049

> <Idih>
0.000

> <Tether>
0.000

$$$$
VeraChem MOL file


 25 25  0  0  0  0  0  0  0  0999 V2000     
   20.1964   21.0387   23.5605 C   0  0  0  0  0  0  0  0  0  0  0  0
   19.2731   21.3716   24.0538 H   0  0  0  0  0  0  0  0  0  0  0  0
   20.9015   21.8757   23.6566 H   0  0  0  0  0  0  0  0  0  0  0  0
   19.9238   20.8360   22.0488 C   0  0  0  0  0  0  0  0  0  0  0  0
   19.6089   21.8066   21.6418 H   0  0  0  0  0  0  0  0  0  0  0  0
   20.8566   20.6060   21.5213 H   0  0  0  0  0  0  0  0  0  0  0  0
   18.8241   19.8070   21.6849 C   0  0  0  0  0  0  0  0  0  0  0  0
   18.6668   19.8604   20.5989 H   0  0  0  0  0  0  0  0  0  0  0  0
   17.8731   20.1168   22.1390 H   0  0  0  0  0  0  0  0  0  0  0  0
   19.0991   18.3262   22.0544 C   0  0  0  0  0  0  0  0  0  0  0  0
   18.8670   18.1505   23.1096 H   0  0  0  0  0  0  0  0  0  0  0  0
   18.3668   17.7155   21.5097 H   0  0  0  0  0  0  0  0  0  0  0  0
   20.5312   17.8258   21.7328 C   0  0  0  0  0  0  0  0  0  0  0  0
   20.9985   18.4875   20.9912 H   0  0  0  0  0  0  0  0  0  0  0  0
   21.4565   17.7187   22.9705 C   0  0  0  0  0  0  0  0  0  0  0  0
   20.9762   17.0840   23.7266 H   0  0  0  0  0  0  0  0  0  0  0  0
   22.3621   17.1791   22.6630 H   0  0  0  0  0  0  0  0  0  0  0  0
   21.9076   19.0522   23.6266 C   0  0  0  0  0  0  0  0  0  0  0  0
   22.4277   19.6879   22.8985 H   0  0  0  0  0  0  0  0  0  0  0  0
   22.6665   18.7982   24.3791 H   0  0  0  0  0  0  0  0  0  0  0  0
   20.7809   19.8369   24.3475 C   0  0  0  0  0  0  0  0  0  0  0  0
   21.1896   20.2352   25.2863 H   0  0  0  0  0  0  0  0  0  0  0  0
   19.9819   19.1577   24.6655 H   0  0  0  0  0  0  0  0  0  0  0  0
   20.4312   16.5250   21.1652 O   0  0  0  0  0  0  0  0  0  0  0  0
   19.9016   16.6163   20.3457 H   0  0  0  0  0  0  0  0  0  0  0  0
  1  2  1  0  0  0  0
  1  3  1  0  0  0  0
  1  4  1  0  0  0  0
  4  5  1  0  0  0  0
  4  6  1  0  0  0  0
  4  7  1  0  0  0  0
  7  8  1  0  0  0  0
  7  9  1  0  0  0  0
  7 10  1  0  0  0  0
 10 11  1  0  0  0  0
 10 12  1  0  0  0  0
 10 13  1  0  0  0  0
 13 14  1  0  0  0  0
 13 15  1  0  0  0  0
 15 16  1  0  0  0  0
 15 17  1  0  0  0  0
 15 18  1  0  0  0  0
 18 19  1  0  0  0  0
 18 20  1  0  0  0  0
  1 21  1  0  0  0  0
 18 21  1  0  0  0  0
 21 22  1  0  0  0  0
 21 23  1  0  0  0  0
 13 24  1  0  0  0  0
 24 25  1  0  0  0  0
M  END
> <VConfSearch Rank>
105

> <Conf_Id>
129

> <Delta U+W>
-1.846

> <U+W>
9.067

> <U>
11.150

> <W>
-2.083

> <W(PB)>
-4.217

> <W(SA)>
2.134

> <Valence>
16.583

> <Coulomb>
-8.361

> <VdW>
2.928

> <VdW6>
-12.539

> <VdW12>
15.467

> <Bond>
0.441

> <Angle>
5.093

> <Pdih>
11.049

> <Idih>
0.000

> <Tether>
0.000

$$$$
VeraChem MOL file


 25 25  0  0  0  0  0  0  0  0999 V2000     
   21.7929   18.6111   21.4021 C   0  0  0  0  0  0  0  0  0  0  0  0
   22.6217   19.2887   21.1563 H   0  0  0  0  0  0  0  0  0  0  0  0
   22.0102   17.6733   20.8727 H   0  0  0  0  0  0  0  0  0  0  0  0
   20.4766   19.1790   20.8148 C   0  0  0  0  0  0  0  0  0  0  0  0
   20.6043   19.2365   19.7252 H   0  0  0  0  0  0  0  0  0  0  0  0
   19.6562   18.4666   20.9586 H   0  0  0  0  0  0  0  0  0  0  0  0
   20.0635   20.5898   21.3039 C   0  0  0  0  0  0  0  0  0  0  0  0
   19.1867   20.8988   20.7184 H   0  0  0  0  0  0  0  0  0  0  0  0
   20.8566   21.3074   21.0536 H   0  0  0  0  0  0  0  0  0  0  0  0
   19.7067   20.7370   22.8060 C   0  0  0  0  0  0  0  0  0  0  0  0
   20.6188   20.8421   23.4023 H   0  0  0  0  0  0  0  0  0  0  0  0
   19.1896   21.6996   22.9187 H   0  0  0  0  0  0  0  0  0  0  0  0
   18.8148   19.6071   23.3826 C   0  0  0  0  0  0  0  0  0  0  0  0
   18.2971   19.0900   22.5637 H   0  0  0  0  0  0  0  0  0  0  0  0
   19.5792   18.5677   24.2406 C   0  0  0  0  0  0  0  0  0  0  0  0
   20.1228   19.0843   25.0424 H   0  0  0  0  0  0  0  0  0  0  0  0
   18.8335   17.9378   24.7440 H   0  0  0  0  0  0  0  0  0  0  0  0
   20.5555   17.6214   23.4906 C   0  0  0  0  0  0  0  0  0  0  0  0
   20.0291   17.0583   22.7092 H   0  0  0  0  0  0  0  0  0  0  0  0
   20.8879   16.8647   24.2143 H   0  0  0  0  0  0  0  0  0  0  0  0
   21.8228   18.3120   22.9234 C   0  0  0  0  0  0  0  0  0  0  0  0
   22.6818   17.6516   23.1051 H   0  0  0  0  0  0  0  0  0  0  0  0
   22.0531   19.2205   23.4912 H   0  0  0  0  0  0  0  0  0  0  0  0
   17.8296   20.2015   24.2181 O   0  0  0  0  0  0  0  0  0  0  0  0
   18.3143   20.6513   24.9404 H   0  0  0  0  0  0  0  0  0  0  0  0
  1  2  1  0  0  0  0
  1  3  1  0  0  0  0
  1  4  1  0  0  0  0
  4  5  1  0  0  0  0
  4  6  1  0  0  0  0
  4  7  1  0  0  0  0
  7  8  1  0  0  0  0
  7  9  1  0  0  0  0
  7 10  1  0  0  0  0
 10 11  1  0  0  0  0
 10 12  1  0  0  0  0
 10 13  1  0  0  0  0
 13 14  1  0  0  0  0
 13 15  1  0  0  0  0
 15 16  1  0  0  0  0
 15 17  1  0  0  0  0
 15 18  1  0  0  0  0
 18 19  1  0  0  0  0
 18 20  1  0  0  0  0
  1 21  1  0  0  0  0
 18 21  1  0  0  0  0
 21 22  1  0  0  0  0
 21 23  1  0  0  0  0
 13 24  1  0  0  0  0
 24 25  1  0  0  0  0
M  END
> <VConfSearch Rank>
106

> <Conf_Id>
140

> <Delta U+W>
-1.702

> <U+W>
9.211

> <U>
11.181

> <W>
-1.969

> <W(PB)>
-4.093

> <W(SA)>
2.124

> <Valence>
16.954

> <Coulomb>
-8.661

> <VdW>
2.887

> <VdW6>
-12.561

> <VdW12>
15.448

> <Bond>
0.433

> <Angle>
5.120

> <Pdih>
11.401

> <Idih>
0.000

> <Tether>
0.000

$$$$
VeraChem MOL file


 25 25  0  0  0  0  0  0  0  0999 V2000     
   21.9883   18.9469   21.5140 C   0  0  0  0  0  0  0  0  0  0  0  0
   22.6184   19.8102   21.2608 H   0  0  0  0  0  0  0  0  0  0  0  0
   22.4711   18.0797   21.0432 H   0  0  0  0  0  0  0  0  0  0  0  0
   20.5974   19.1291   20.8533 C   0  0  0  0  0  0  0  0  0  0  0  0
   20.2636   20.1696   20.9363 H   0  0  0  0  0  0  0  0  0  0  0  0
   20.7300   18.9705   19.7742 H   0  0  0  0  0  0  0  0  0  0  0  0
   19.4927   18.1612   21.3505 C   0  0  0  0  0  0  0  0  0  0  0  0
   19.9280   17.2346   21.7463 H   0  0  0  0  0  0  0  0  0  0  0  0
   18.9068   17.8509   20.4745 H   0  0  0  0  0  0  0  0  0  0  0  0
   18.4950   18.7794   22.3670 C   0  0  0  0  0  0  0  0  0  0  0  0
   18.0440   19.6788   21.9278 H   0  0  0  0  0  0  0  0  0  0  0  0
   17.6709   18.0646   22.4942 H   0  0  0  0  0  0  0  0  0  0  0  0
   19.0484   19.1147   23.7749 C   0  0  0  0  0  0  0  0  0  0  0  0
   19.5255   18.2210   24.1985 H   0  0  0  0  0  0  0  0  0  0  0  0
   20.0456   20.3019   23.8015 C   0  0  0  0  0  0  0  0  0  0  0  0
   19.8960   20.9428   22.9267 H   0  0  0  0  0  0  0  0  0  0  0  0
   19.8170   20.9476   24.6603 H   0  0  0  0  0  0  0  0  0  0  0  0
   21.5391   19.9020   23.9227 C   0  0  0  0  0  0  0  0  0  0  0  0
   21.7319   19.6365   24.9712 H   0  0  0  0  0  0  0  0  0  0  0  0
   22.1621   20.7836   23.7196 H   0  0  0  0  0  0  0  0  0  0  0  0
   22.0234   18.7199   23.0462 C   0  0  0  0  0  0  0  0  0  0  0  0
   21.4859   17.8014   23.3081 H   0  0  0  0  0  0  0  0  0  0  0  0
   23.0674   18.5168   23.3214 H   0  0  0  0  0  0  0  0  0  0  0  0
   17.9370   19.4496   24.5965 O   0  0  0  0  0  0  0  0  0  0  0  0
   17.5272   20.2442   24.1971 H   0  0  0  0  0  0  0  0  0  0  0  0
  1  2  1  0  0  0  0
  1  3  1  0  0  0  0
  1  4  1  0  0  0  0
  4  5  1  0  0  0  0
  4  6  1  0  0  0  0
  4  7  1  0  0  0  0
  7  8  1  0  0  0  0
  7  9  1  0  0  0  0
  7 10  1  0  0  0  0
 10 11  1  0  0  0  0
 10 12  1  0  0  0  0
 10 13  1  0  0  0  0
 13 14  1  0  0  0  0
 13 15  1  0  0  0  0
 15 16  1  0  0  0  0
 15 17  1  0  0  0  0
 15 18  1  0  0  0  0
 18 19  1  0  0  0  0
 18 20  1  0  0  0  0
  1 21  1  0  0  0  0
 18 21  1  0  0  0  0
 21 22  1  0  0  0  0
 21 23  1  0  0  0  0
 13 24  1  0  0  0  0
 24 25  1  0  0  0  0
M  END
> <VConfSearch Rank>
107

> <Conf_Id>
68

> <Delta U+W>
-1.765

> <U+W>
9.148

> <U>
11.181

> <W>
-2.032

> <W(PB)>
-4.147

> <W(SA)>
2.114

> <Valence>
16.955

> <Coulomb>
-8.661

> <VdW>
2.887

> <VdW6>
-12.561

> <VdW12>
15.448

> <Bond>
0.433

> <Angle>
5.121

> <Pdih>
11.402

> <Idih>
0.000

> <Tether>
0.000

$$$$
VeraChem MOL file


 25 25  0  0  0  0  0  0  0  0999 V2000     
   19.3405   19.1167   21.0262 C   0  0  0  0  0  0  0  0  0  0  0  0
   18.7127   19.0438   20.1275 H   0  0  0  0  0  0  0  0  0  0  0  0
   20.3667   19.1014   20.6420 H   0  0  0  0  0  0  0  0  0  0  0  0
   19.0686   17.8685   21.9055 C   0  0  0  0  0  0  0  0  0  0  0  0
   18.3110   18.0809   22.6706 H   0  0  0  0  0  0  0  0  0  0  0  0
   18.6163   17.1027   21.2606 H   0  0  0  0  0  0  0  0  0  0  0  0
   20.3322   17.2336   22.5434 C   0  0  0  0  0  0  0  0  0  0  0  0
   21.0545   16.9868   21.7532 H   0  0  0  0  0  0  0  0  0  0  0  0
   20.0364   16.2712   22.9827 H   0  0  0  0  0  0  0  0  0  0  0  0
   21.0438   18.0583   23.6489 C   0  0  0  0  0  0  0  0  0  0  0  0
   20.3452   18.2891   24.4621 H   0  0  0  0  0  0  0  0  0  0  0  0
   21.8002   17.3997   24.0969 H   0  0  0  0  0  0  0  0  0  0  0  0
   21.7463   19.3439   23.1402 C   0  0  0  0  0  0  0  0  0  0  0  0
   21.9102   19.2578   22.0598 H   0  0  0  0  0  0  0  0  0  0  0  0
   20.9845   20.6594   23.4351 C   0  0  0  0  0  0  0  0  0  0  0  0
   21.1333   20.9189   24.4916 H   0  0  0  0  0  0  0  0  0  0  0  0
   21.4528   21.4676   22.8584 H   0  0  0  0  0  0  0  0  0  0  0  0
   19.4573   20.6687   23.1672 C   0  0  0  0  0  0  0  0  0  0  0  0
   19.0730   21.6426   23.4996 H   0  0  0  0  0  0  0  0  0  0  0  0
   18.9511   19.9383   23.8086 H   0  0  0  0  0  0  0  0  0  0  0  0
   19.0238   20.4812   21.6917 C   0  0  0  0  0  0  0  0  0  0  0  0
   19.4567   21.2848   21.0807 H   0  0  0  0  0  0  0  0  0  0  0  0
   17.9361   20.6297   21.6486 H   0  0  0  0  0  0  0  0  0  0  0  0
   23.0215   19.4397   23.7627 O   0  0  0  0  0  0  0  0  0  0  0  0
   22.8558   19.4976   24.7261 H   0  0  0  0  0  0  0  0  0  0  0  0
  1  2  1  0  0  0  0
  1  3  1  0  0  0  0
  1  4  1  0  0  0  0
  4  5  1  0  0  0  0
  4  6  1  0  0  0  0
  4  7  1  0  0  0  0
  7  8  1  0  0  0  0
  7  9  1  0  0  0  0
  7 10  1  0  0  0  0
 10 11  1  0  0  0  0
 10 12  1  0  0  0  0
 10 13  1  0  0  0  0
 13 14  1  0  0  0  0
 13 15  1  0  0  0  0
 15 16  1  0  0  0  0
 15 17  1  0  0  0  0
 15 18  1  0  0  0  0
 18 19  1  0  0  0  0
 18 20  1  0  0  0  0
  1 21  1  0  0  0  0
 18 21  1  0  0  0  0
 21 22  1  0  0  0  0
 21 23  1  0  0  0  0
 13 24  1  0  0  0  0
 24 25  1  0  0  0  0
M  END
> <VConfSearch Rank>
108

> <Conf_Id>
165

> <Delta U+W>
-1.999

> <U+W>
8.915

> <U>
10.935

> <W>
-2.020

> <W(PB)>
-4.135

> <W(SA)>
2.115

> <Valence>
16.757

> <Coulomb>
-8.731

> <VdW>
2.908

> <VdW6>
-12.597

> <VdW12>
15.506

> <Bond>
0.434

> <Angle>
5.069

> <Pdih>
11.254

> <Idih>
0.000

> <Tether>
0.000

$$$$
VeraChem MOL file


 25 25  0  0  0  0  0  0  0  0999 V2000     
   20.2264   20.5344   23.8914 C   0  0  0  0  0  0  0  0  0  0  0  0
   20.1170   21.3871   24.5755 H   0  0  0  0  0  0  0  0  0  0  0  0
   20.8404   19.8175   24.4479 H   0  0  0  0  0  0  0  0  0  0  0  0
   20.9830   21.0509   22.6399 C   0  0  0  0  0  0  0  0  0  0  0  0
   20.5732   22.0381   22.3856 H   0  0  0  0  0  0  0  0  0  0  0  0
   22.0341   21.2267   22.9060 H   0  0  0  0  0  0  0  0  0  0  0  0
   20.9164   20.1801   21.3603 C   0  0  0  0  0  0  0  0  0  0  0  0
   21.4174   20.7385   20.5578 H   0  0  0  0  0  0  0  0  0  0  0  0
   19.8789   20.0803   21.0211 H   0  0  0  0  0  0  0  0  0  0  0  0
   21.5945   18.7884   21.4470 C   0  0  0  0  0  0  0  0  0  0  0  0
   21.5602   18.3430   20.4435 H   0  0  0  0  0  0  0  0  0  0  0  0
   22.6580   18.9263   21.6809 H   0  0  0  0  0  0  0  0  0  0  0  0
   20.9945   17.7710   22.4483 C   0  0  0  0  0  0  0  0  0  0  0  0
   21.3229   18.0253   23.4629 H   0  0  0  0  0  0  0  0  0  0  0  0
   19.4468   17.6802   22.4281 C   0  0  0  0  0  0  0  0  0  0  0  0
   19.0475   18.0333   21.4700 H   0  0  0  0  0  0  0  0  0  0  0  0
   19.1608   16.6211   22.4838 H   0  0  0  0  0  0  0  0  0  0  0  0
   18.7429   18.4006   23.6091 C   0  0  0  0  0  0  0  0  0  0  0  0
   19.1350   18.0096   24.5580 H   0  0  0  0  0  0  0  0  0  0  0  0
   17.6821   18.1159   23.5894 H   0  0  0  0  0  0  0  0  0  0  0  0
   18.8151   19.9502   23.6220 C   0  0  0  0  0  0  0  0  0  0  0  0
   18.1554   20.2948   24.4302 H   0  0  0  0  0  0  0  0  0  0  0  0
   18.3829   20.3677   22.7035 H   0  0  0  0  0  0  0  0  0  0  0  0
   21.5266   16.4911   22.1253 O   0  0  0  0  0  0  0  0  0  0  0  0
   22.5016   16.5664   22.1894 H   0  0  0  0  0  0  0  0  0  0  0  0
  1  2  1  0  0  0  0
  1  3  1  0  0  0  0
  1  4  1  0  0  0  0
  4  5  1  0  0  0  0
  4  6  1  0  0  0  0
  4  7  1  0  0  0  0
  7  8  1  0  0  0  0
  7  9  1  0  0  0  0
  7 10  1  0  0  0  0
 10 11  1  0  0  0  0
 10 12  1  0  0  0  0
 10 13  1  0  0  0  0
 13 14  1  0  0  0  0
 13 15  1  0  0  0  0
 15 16  1  0  0  0  0
 15 17  1  0  0  0  0
 15 18  1  0  0  0  0
 18 19  1  0  0  0  0
 18 20  1  0  0  0  0
  1 21  1  0  0  0  0
 18 21  1  0  0  0  0
 21 22  1  0  0  0  0
 21 23  1  0  0  0  0
 13 24  1  0  0  0  0
 24 25  1  0  0  0  0
M  END
> <VConfSearch Rank>
109

> <Conf_Id>
133

> <Delta U+W>
-2.139

> <U+W>
8.774

> <U>
10.905

> <W>
-2.131

> <W(PB)>
-4.281

> <W(SA)>
2.150

> <Valence>
16.378

> <Coulomb>
-8.448

> <VdW>
2.976

> <VdW6>
-12.570

> <VdW12>
15.545

> <Bond>
0.439

> <Angle>
5.049

> <Pdih>
10.889

> <Idih>
0.000

> <Tether>
0.000

$$$$
VeraChem MOL file


 25 25  0  0  0  0  0  0  0  0999 V2000     
   20.0050   21.0050   23.0533 C   0  0  0  0  0  0  0  0  0  0  0  0
   19.8364   22.0415   23.3764 H   0  0  0  0  0  0  0  0  0  0  0  0
   19.8778   21.0362   21.9654 H   0  0  0  0  0  0  0  0  0  0  0  0
   18.9146   20.1150   23.7047 C   0  0  0  0  0  0  0  0  0  0  0  0
   19.2765   19.6657   24.6384 H   0  0  0  0  0  0  0  0  0  0  0  0
   18.0881   20.7730   24.0061 H   0  0  0  0  0  0  0  0  0  0  0  0
   18.3131   19.0325   22.7701 C   0  0  0  0  0  0  0  0  0  0  0  0
   17.9137   19.5126   21.8662 H   0  0  0  0  0  0  0  0  0  0  0  0
   17.4435   18.5967   23.2805 H   0  0  0  0  0  0  0  0  0  0  0  0
   19.2521   17.8670   22.3592 C   0  0  0  0  0  0  0  0  0  0  0  0
   19.6379   17.3532   23.2476 H   0  0  0  0  0  0  0  0  0  0  0  0
   18.6301   17.1215   21.8456 H   0  0  0  0  0  0  0  0  0  0  0  0
   20.4094   18.2755   21.4116 C   0  0  0  0  0  0  0  0  0  0  0  0
   20.1570   19.2283   20.9316 H   0  0  0  0  0  0  0  0  0  0  0  0
   21.7921   18.3995   22.0976 C   0  0  0  0  0  0  0  0  0  0  0  0
   22.1855   17.3872   22.2618 H   0  0  0  0  0  0  0  0  0  0  0  0
   22.4875   18.8853   21.4011 H   0  0  0  0  0  0  0  0  0  0  0  0
   21.8435   19.1434   23.4570 C   0  0  0  0  0  0  0  0  0  0  0  0
   22.8742   19.0718   23.8301 H   0  0  0  0  0  0  0  0  0  0  0  0
   21.2415   18.6156   24.2055 H   0  0  0  0  0  0  0  0  0  0  0  0
   21.4672   20.6460   23.4256 C   0  0  0  0  0  0  0  0  0  0  0  0
   22.1487   21.1775   22.7475 H   0  0  0  0  0  0  0  0  0  0  0  0
   21.6672   21.0544   24.4257 H   0  0  0  0  0  0  0  0  0  0  0  0
   20.5270   17.2904   20.3911 O   0  0  0  0  0  0  0  0  0  0  0  0
   21.2328   17.5961   19.7838 H   0  0  0  0  0  0  0  0  0  0  0  0
  1  2  1  0  0  0  0
  1  3  1  0  0  0  0
  1  4  1  0  0  0  0
  4  5  1  0  0  0  0
  4  6  1  0  0  0  0
  4  7  1  0  0  0  0
  7  8  1  0  0  0  0
  7  9  1  0  0  0  0
  7 10  1  0  0  0  0
 10 11  1  0  0  0  0
 10 12  1  0  0  0  0
 10 13  1  0  0  0  0
 13 14  1  0  0  0  0
 13 15  1  0  0  0  0
 15 16  1  0  0  0  0
 15 17  1  0  0  0  0
 15 18  1  0  0  0  0
 18 19  1  0  0  0  0
 18 20  1  0  0  0  0
  1 21  1  0  0  0  0
 18 21  1  0  0  0  0
 21 22  1  0  0  0  0
 21 23  1  0  0  0  0
 13 24  1  0  0  0  0
 24 25  1  0  0  0  0
M  END
> <VConfSearch Rank>
110

> <Conf_Id>
95

> <Delta U+W>
-2.190

> <U+W>
8.723

> <U>
10.905

> <W>
-2.182

> <W(PB)>
-4.296

> <W(SA)>
2.114

> <Valence>
16.377

> <Coulomb>
-8.448

> <VdW>
2.976

> <VdW6>
-12.570

> <VdW12>
15.546

> <Bond>
0.439

> <Angle>
5.049

> <Pdih>
10.889

> <Idih>
0.000

> <Tether>
0.000

$$$$
VeraChem MOL file


 25 25  0  0  0  0  0  0  0  0999 V2000     
   20.7983   19.0755   24.4123 C   0  0  0  0  0  0  0  0  0  0  0  0
   20.9848   19.0228   25.4937 H   0  0  0  0  0  0  0  0  0  0  0  0
   21.7665   19.3799   24.0023 H   0  0  0  0  0  0  0  0  0  0  0  0
   19.7257   20.1817   24.1886 C   0  0  0  0  0  0  0  0  0  0  0  0
   19.0378   20.1490   25.0446 H   0  0  0  0  0  0  0  0  0  0  0  0
   20.2116   21.1653   24.2424 H   0  0  0  0  0  0  0  0  0  0  0  0
   18.8545   20.1099   22.9071 C   0  0  0  0  0  0  0  0  0  0  0  0
   18.0868   20.8920   22.9828 H   0  0  0  0  0  0  0  0  0  0  0  0
   18.2752   19.1813   22.9155 H   0  0  0  0  0  0  0  0  0  0  0  0
   19.5733   20.3032   21.5388 C   0  0  0  0  0  0  0  0  0  0  0  0
   18.9463   19.8760   20.7452 H   0  0  0  0  0  0  0  0  0  0  0  0
   19.6056   21.3829   21.3427 H   0  0  0  0  0  0  0  0  0  0  0  0
   21.0188   19.7654   21.3869 C   0  0  0  0  0  0  0  0  0  0  0  0
   21.6387   20.2365   22.1567 H   0  0  0  0  0  0  0  0  0  0  0  0
   21.2059   18.2218   21.4412 C   0  0  0  0  0  0  0  0  0  0  0  0
   21.0436   17.8260   20.4296 H   0  0  0  0  0  0  0  0  0  0  0  0
   22.2569   18.0102   21.6756 H   0  0  0  0  0  0  0  0  0  0  0  0
   20.3006   17.3989   22.3974 C   0  0  0  0  0  0  0  0  0  0  0  0
   20.5060   16.3353   22.2152 H   0  0  0  0  0  0  0  0  0  0  0  0
   19.2554   17.5131   22.0934 H   0  0  0  0  0  0  0  0  0  0  0  0
   20.4622   17.6407   23.9268 C   0  0  0  0  0  0  0  0  0  0  0  0
   21.2707   16.9859   24.2794 H   0  0  0  0  0  0  0  0  0  0  0  0
   19.5567   17.2888   24.4395 H   0  0  0  0  0  0  0  0  0  0  0  0
   21.5058   20.2060   20.1247 O   0  0  0  0  0  0  0  0  0  0  0  0
   21.4453   21.1840   20.1238 H   0  0  0  0  0  0  0  0  0  0  0  0
  1  2  1  0  0  0  0
  1  3  1  0  0  0  0
  1  4  1  0  0  0  0
  4  5  1  0  0  0  0
  4  6  1  0  0  0  0
  4  7  1  0  0  0  0
  7  8  1  0  0  0  0
  7  9  1  0  0  0  0
  7 10  1  0  0  0  0
 10 11  1  0  0  0  0
 10 12  1  0  0  0  0
 10 13  1  0  0  0  0
 13 14  1  0  0  0  0
 13 15  1  0  0  0  0
 15 16  1  0  0  0  0
 15 17  1  0  0  0  0
 15 18  1  0  0  0  0
 18 19  1  0  0  0  0
 18 20  1  0  0  0  0
  1 21  1  0  0  0  0
 18 21  1  0  0  0  0
 21 22  1  0  0  0  0
 21 23  1  0  0  0  0
 13 24  1  0  0  0  0
 24 25  1  0  0  0  0
M  END
> <VConfSearch Rank>
111

> <Conf_Id>
161

> <Delta U+W>
2.120

> <U+W>
13.033

> <U>
15.076

> <W>
-2.043

> <W(PB)>
-4.186

> <W(SA)>
2.143

> <Valence>
18.884

> <Coulomb>
-8.074

> <VdW>
4.266

> <VdW6>
-13.486

> <VdW12>
17.752

> <Bond>
0.713

> <Angle>
8.955

> <Pdih>
9.215

> <Idih>
0.000

> <Tether>
0.000

$$$$
VeraChem MOL file


 25 25  0  0  0  0  0  0  0  0999 V2000     
   18.9894   18.5162   21.3361 C   0  0  0  0  0  0  0  0  0  0  0  0
   18.4520   18.1756   20.4405 H   0  0  0  0  0  0  0  0  0  0  0  0
   18.2146   18.6120   22.1073 H   0  0  0  0  0  0  0  0  0  0  0  0
   19.6021   19.9050   21.0271 C   0  0  0  0  0  0  0  0  0  0  0  0
   20.5861   19.8002   20.5506 H   0  0  0  0  0  0  0  0  0  0  0  0
   18.9608   20.3740   20.2682 H   0  0  0  0  0  0  0  0  0  0  0  0
   19.6624   20.8843   22.2323 C   0  0  0  0  0  0  0  0  0  0  0  0
   18.7755   20.7810   22.8718 H   0  0  0  0  0  0  0  0  0  0  0  0
   19.6049   21.9004   21.8184 H   0  0  0  0  0  0  0  0  0  0  0  0
   20.9614   20.8168   23.0765 C   0  0  0  0  0  0  0  0  0  0  0  0
   21.8152   20.5862   22.4279 H   0  0  0  0  0  0  0  0  0  0  0  0
   21.1622   21.8257   23.4605 H   0  0  0  0  0  0  0  0  0  0  0  0
   20.9302   19.8756   24.3074 C   0  0  0  0  0  0  0  0  0  0  0  0
   20.2626   20.3231   25.0576 H   0  0  0  0  0  0  0  0  0  0  0  0
   20.4419   18.4302   24.0563 C   0  0  0  0  0  0  0  0  0  0  0  0
   20.6869   17.8258   24.9400 H   0  0  0  0  0  0  0  0  0  0  0  0
   19.3472   18.4260   24.0182 H   0  0  0  0  0  0  0  0  0  0  0  0
   21.0429   17.7458   22.7994 C   0  0  0  0  0  0  0  0  0  0  0  0
   21.5391   16.8153   23.1070 H   0  0  0  0  0  0  0  0  0  0  0  0
   21.8383   18.3561   22.3568 H   0  0  0  0  0  0  0  0  0  0  0  0
   19.9989   17.3991   21.7111 C   0  0  0  0  0  0  0  0  0  0  0  0
   19.4287   16.5185   22.0371 H   0  0  0  0  0  0  0  0  0  0  0  0
   20.5368   17.0879   20.8052 H   0  0  0  0  0  0  0  0  0  0  0  0
   22.2441   19.8125   24.8442 O   0  0  0  0  0  0  0  0  0  0  0  0
   22.7689   19.2869   24.2068 H   0  0  0  0  0  0  0  0  0  0  0  0
  1  2  1  0  0  0  0
  1  3  1  0  0  0  0
  1  4  1  0  0  0  0
  4  5  1  0  0  0  0
  4  6  1  0  0  0  0
  4  7  1  0  0  0  0
  7  8  1  0  0  0  0
  7  9  1  0  0  0  0
  7 10  1  0  0  0  0
 10 11  1  0  0  0  0
 10 12  1  0  0  0  0
 10 13  1  0  0  0  0
 13 14  1  0  0  0  0
 13 15  1  0  0  0  0
 15 16  1  0  0  0  0
 15 17  1  0  0  0  0
 15 18  1  0  0  0  0
 18 19  1  0  0  0  0
 18 20  1  0  0  0  0
  1 21  1  0  0  0  0
 18 21  1  0  0  0  0
 21 22  1  0  0  0  0
 21 23  1  0  0  0  0
 13 24  1  0  0  0  0
 24 25  1  0  0  0  0
M  END
> <VConfSearch Rank>
112

> <Conf_Id>
164

> <Delta U+W>
0.008

> <U+W>
10.922

> <U>
12.433

> <W>
-1.511

> <W(PB)>
-3.669

> <W(SA)>
2.157

> <Valence>
19.007

> <Coulomb>
-9.373

> <VdW>
2.799

> <VdW6>
-12.597

> <VdW12>
15.396

> <Bond>
0.425

> <Angle>
4.784

> <Pdih>
13.799

> <Idih>
0.000

> <Tether>
0.000

$$$$
VeraChem MOL file


 25 25  0  0  0  0  0  0  0  0999 V2000     
   19.1118   19.7673   21.3884 C   0  0  0  0  0  0  0  0  0  0  0  0
   19.0909   18.6729   21.3376 H   0  0  0  0  0  0  0  0  0  0  0  0
   18.3848   20.0929   20.6320 H   0  0  0  0  0  0  0  0  0  0  0  0
   20.4989   20.3024   20.9533 C   0  0  0  0  0  0  0  0  0  0  0  0
   20.6711   19.9685   19.9210 H   0  0  0  0  0  0  0  0  0  0  0  0
   20.4670   21.3995   20.9089 H   0  0  0  0  0  0  0  0  0  0  0  0
   21.7217   19.8687   21.8016 C   0  0  0  0  0  0  0  0  0  0  0  0
   21.8253   20.5104   22.6839 H   0  0  0  0  0  0  0  0  0  0  0  0
   22.6201   20.0759   21.2043 H   0  0  0  0  0  0  0  0  0  0  0  0
   21.7467   18.3719   22.2111 C   0  0  0  0  0  0  0  0  0  0  0  0
   21.1585   17.7640   21.5131 H   0  0  0  0  0  0  0  0  0  0  0  0
   22.7815   18.0208   22.1009 H   0  0  0  0  0  0  0  0  0  0  0  0
   21.3271   18.0896   23.6757 C   0  0  0  0  0  0  0  0  0  0  0  0
   21.9377   18.7230   24.3349 H   0  0  0  0  0  0  0  0  0  0  0  0
   19.8363   18.3240   24.0264 C   0  0  0  0  0  0  0  0  0  0  0  0
   19.1852   17.7145   23.3881 H   0  0  0  0  0  0  0  0  0  0  0  0
   19.6830   17.9432   25.0451 H   0  0  0  0  0  0  0  0  0  0  0  0
   19.3893   19.8103   24.0178 C   0  0  0  0  0  0  0  0  0  0  0  0
   20.2480   20.4709   24.1826 H   0  0  0  0  0  0  0  0  0  0  0  0
   18.7419   19.9788   24.8893 H   0  0  0  0  0  0  0  0  0  0  0  0
   18.5930   20.2547   22.7643 C   0  0  0  0  0  0  0  0  0  0  0  0
   18.5214   21.3507   22.7577 H   0  0  0  0  0  0  0  0  0  0  0  0
   17.5624   19.8906   22.8749 H   0  0  0  0  0  0  0  0  0  0  0  0
   21.6265   16.7289   23.9549 O   0  0  0  0  0  0  0  0  0  0  0  0
   21.0686   16.1943   23.3535 H   0  0  0  0  0  0  0  0  0  0  0  0
  1  2  1  0  0  0  0
  1  3  1  0  0  0  0
  1  4  1  0  0  0  0
  4  5  1  0  0  0  0
  4  6  1  0  0  0  0
  4  7  1  0  0  0  0
  7  8  1  0  0  0  0
  7  9  1  0  0  0  0
  7 10  1  0  0  0  0
 10 11  1  0  0  0  0
 10 12  1  0  0  0  0
 10 13  1  0  0  0  0
 13 14  1  0  0  0  0
 13 15  1  0  0  0  0
 15 16  1  0  0  0  0
 15 17  1  0  0  0  0
 15 18  1  0  0  0  0
 18 19  1  0  0  0  0
 18 20  1  0  0  0  0
  1 21  1  0  0  0  0
 18 21  1  0  0  0  0
 21 22  1  0  0  0  0
 21 23  1  0  0  0  0
 13 24  1  0  0  0  0
 24 25  1  0  0  0  0
M  END
> <VConfSearch Rank>
113

> <Conf_Id>
15

> <Delta U+W>
-1.271

> <U+W>
9.643

> <U>
11.413

> <W>
-1.770

> <W(PB)>
-3.908

> <W(SA)>
2.138

> <Valence>
17.496

> <Coulomb>
-8.736

> <VdW>
2.653

> <VdW6>
-12.485

> <VdW12>
15.138

> <Bond>
0.414

> <Angle>
5.295

> <Pdih>
11.787

> <Idih>
0.000

> <Tether>
0.000

$$$$
VeraChem MOL file


 25 25  0  0  0  0  0  0  0  0999 V2000     
   21.1085   18.8701   20.9222 C   0  0  0  0  0  0  0  0  0  0  0  0
   21.6646   18.5343   20.0362 H   0  0  0  0  0  0  0  0  0  0  0  0
   20.8193   19.9041   20.6954 H   0  0  0  0  0  0  0  0  0  0  0  0
   19.8542   17.9646   21.0398 C   0  0  0  0  0  0  0  0  0  0  0  0
   19.1999   18.1757   20.1831 H   0  0  0  0  0  0  0  0  0  0  0  0
   20.1615   16.9157   20.9294 H   0  0  0  0  0  0  0  0  0  0  0  0
   19.0250   18.0928   22.3403 C   0  0  0  0  0  0  0  0  0  0  0  0
   19.5208   17.5408   23.1474 H   0  0  0  0  0  0  0  0  0  0  0  0
   18.0704   17.5706   22.1887 H   0  0  0  0  0  0  0  0  0  0  0  0
   18.7311   19.5557   22.7632 C   0  0  0  0  0  0  0  0  0  0  0  0
   19.0284   20.2576   21.9762 H   0  0  0  0  0  0  0  0  0  0  0  0
   17.6440   19.6786   22.8549 H   0  0  0  0  0  0  0  0  0  0  0  0
   19.3624   19.9725   24.1116 C   0  0  0  0  0  0  0  0  0  0  0  0
   18.7864   19.4869   24.9124 H   0  0  0  0  0  0  0  0  0  0  0  0
   20.8507   19.5940   24.3265 C   0  0  0  0  0  0  0  0  0  0  0  0
   21.1823   20.1044   25.2407 H   0  0  0  0  0  0  0  0  0  0  0  0
   20.9359   18.5267   24.5632 H   0  0  0  0  0  0  0  0  0  0  0  0
   21.8406   19.9587   23.1880 C   0  0  0  0  0  0  0  0  0  0  0  0
   22.8117   20.1534   23.6636 H   0  0  0  0  0  0  0  0  0  0  0  0
   21.5606   20.9045   22.7065 H   0  0  0  0  0  0  0  0  0  0  0  0
   22.0754   18.8439   22.1317 C   0  0  0  0  0  0  0  0  0  0  0  0
   22.0893   17.8501   22.5990 H   0  0  0  0  0  0  0  0  0  0  0  0
   23.0885   18.9916   21.7331 H   0  0  0  0  0  0  0  0  0  0  0  0
   19.2317   21.3808   24.2460 O   0  0  0  0  0  0  0  0  0  0  0  0
   19.8317   21.7702   23.5786 H   0  0  0  0  0  0  0  0  0  0  0  0
  1  2  1  0  0  0  0
  1  3  1  0  0  0  0
  1  4  1  0  0  0  0
  4  5  1  0  0  0  0
  4  6  1  0  0  0  0
  4  7  1  0  0  0  0
  7  8  1  0  0  0  0
  7  9  1  0  0  0  0
  7 10  1  0  0  0  0
 10 11  1  0  0  0  0
 10 12  1  0  0  0  0
 10 13  1  0  0  0  0
 13 14  1  0  0  0  0
 13 15  1  0  0  0  0
 15 16  1  0  0  0  0
 15 17  1  0  0  0  0
 15 18  1  0  0  0  0
 18 19  1  0  0  0  0
 18 20  1  0  0  0  0
  1 21  1  0  0  0  0
 18 21  1  0  0  0  0
 21 22  1  0  0  0  0
 21 23  1  0  0  0  0
 13 24  1  0  0  0  0
 24 25  1  0  0  0  0
M  END
> <VConfSearch Rank>
114

> <Conf_Id>
115

> <Delta U+W>
0.038

> <U+W>
10.952

> <U>
12.526

> <W>
-1.575

> <W(PB)>
-3.698

> <W(SA)>
2.123

> <Valence>
19.016

> <Coulomb>
-9.226

> <VdW>
2.737

> <VdW6>
-12.612

> <VdW12>
15.349

> <Bond>
0.421

> <Angle>
4.883

> <Pdih>
13.711

> <Idih>
0.000

> <Tether>
0.000

$$$$
VeraChem MOL file


 25 25  0  0  0  0  0  0  0  0999 V2000     
   21.7286   18.7230   24.1930 C   0  0  0  0  0  0  0  0  0  0  0  0
   22.6905   18.3385   24.5587 H   0  0  0  0  0  0  0  0  0  0  0  0
   21.2502   19.1936   25.0625 H   0  0  0  0  0  0  0  0  0  0  0  0
   20.8960   17.5079   23.7218 C   0  0  0  0  0  0  0  0  0  0  0  0
   21.4340   16.9651   22.9328 H   0  0  0  0  0  0  0  0  0  0  0  0
   20.8280   16.8090   24.5668 H   0  0  0  0  0  0  0  0  0  0  0  0
   19.4577   17.8362   23.2588 C   0  0  0  0  0  0  0  0  0  0  0  0
   18.9983   18.5710   23.9333 H   0  0  0  0  0  0  0  0  0  0  0  0
   18.8591   16.9219   23.3728 H   0  0  0  0  0  0  0  0  0  0  0  0
   19.3500   18.2817   21.7756 C   0  0  0  0  0  0  0  0  0  0  0  0
   20.2752   18.0666   21.2264 H   0  0  0  0  0  0  0  0  0  0  0  0
   18.5780   17.6600   21.3023 H   0  0  0  0  0  0  0  0  0  0  0  0
   18.9522   19.7621   21.5805 C   0  0  0  0  0  0  0  0  0  0  0  0
   18.2398   20.0459   22.3683 H   0  0  0  0  0  0  0  0  0  0  0  0
   20.1360   20.7545   21.5932 C   0  0  0  0  0  0  0  0  0  0  0  0
   20.8275   20.5230   20.7723 H   0  0  0  0  0  0  0  0  0  0  0  0
   19.7341   21.7521   21.3727 H   0  0  0  0  0  0  0  0  0  0  0  0
   20.9097   20.8484   22.9308 C   0  0  0  0  0  0  0  0  0  0  0  0
   20.2112   20.8409   23.7782 H   0  0  0  0  0  0  0  0  0  0  0  0
   21.3921   21.8352   22.9607 H   0  0  0  0  0  0  0  0  0  0  0  0
   22.0233   19.7829   23.1057 C   0  0  0  0  0  0  0  0  0  0  0  0
   22.9390   20.3112   23.4048 H   0  0  0  0  0  0  0  0  0  0  0  0
   22.2677   19.2961   22.1522 H   0  0  0  0  0  0  0  0  0  0  0  0
   18.3078   19.8820   20.3179 O   0  0  0  0  0  0  0  0  0  0  0  0
   18.0158   20.8139   20.2363 H   0  0  0  0  0  0  0  0  0  0  0  0
  1  2  1  0  0  0  0
  1  3  1  0  0  0  0
  1  4  1  0  0  0  0
  4  5  1  0  0  0  0
  4  6  1  0  0  0  0
  4  7  1  0  0  0  0
  7  8  1  0  0  0  0
  7  9  1  0  0  0  0
  7 10  1  0  0  0  0
 10 11  1  0  0  0  0
 10 12  1  0  0  0  0
 10 13  1  0  0  0  0
 13 14  1  0  0  0  0
 13 15  1  0  0  0  0
 15 16  1  0  0  0  0
 15 17  1  0  0  0  0
 15 18  1  0  0  0  0
 18 19  1  0  0  0  0
 18 20  1  0  0  0  0
  1 21  1  0  0  0  0
 18 21  1  0  0  0  0
 21 22  1  0  0  0  0
 21 23  1  0  0  0  0
 13 24  1  0  0  0  0
 24 25  1  0  0  0  0
M  END
> <VConfSearch Rank>
115

> <Conf_Id>
30

> <Delta U+W>
0.000

> <U+W>
10.913

> <U>
13.140

> <W>
-2.227

> <W(PB)>
-4.367

> <W(SA)>
2.140

> <Valence>
19.155

> <Coulomb>
-8.157

> <VdW>
2.142

> <VdW6>
-11.576

> <VdW12>
13.718

> <Bond>
0.294

> <Angle>
3.547

> <Pdih>
15.314

> <Idih>
0.000

> <Tether>
0.000

$$$$
VeraChem MOL file


 25 25  0  0  0  0  0  0  0  0999 V2000     
   18.7423   20.5348   21.9529 C   0  0  0  0  0  0  0  0  0  0  0  0
   17.9625   20.4223   21.1874 H   0  0  0  0  0  0  0  0  0  0  0  0
   18.6448   21.5632   22.3268 H   0  0  0  0  0  0  0  0  0  0  0  0
   20.1250   20.3964   21.2696 C   0  0  0  0  0  0  0  0  0  0  0  0
   20.1000   20.9740   20.3354 H   0  0  0  0  0  0  0  0  0  0  0  0
   20.8888   20.8914   21.8805 H   0  0  0  0  0  0  0  0  0  0  0  0
   20.5332   18.9384   20.9390 C   0  0  0  0  0  0  0  0  0  0  0  0
   20.7568   18.8694   19.8657 H   0  0  0  0  0  0  0  0  0  0  0  0
   19.6944   18.2500   21.0947 H   0  0  0  0  0  0  0  0  0  0  0  0
   21.7732   18.4363   21.7211 C   0  0  0  0  0  0  0  0  0  0  0  0
   21.8667   17.3534   21.5647 H   0  0  0  0  0  0  0  0  0  0  0  0
   22.6704   18.8838   21.2740 H   0  0  0  0  0  0  0  0  0  0  0  0
   21.8087   18.7320   23.2415 C   0  0  0  0  0  0  0  0  0  0  0  0
   21.9756   19.8062   23.3970 H   0  0  0  0  0  0  0  0  0  0  0  0
   20.5403   18.3102   24.0230 C   0  0  0  0  0  0  0  0  0  0  0  0
   20.0825   17.4272   23.5591 H   0  0  0  0  0  0  0  0  0  0  0  0
   20.8496   17.9840   25.0249 H   0  0  0  0  0  0  0  0  0  0  0  0
   19.4892   19.4382   24.2247 C   0  0  0  0  0  0  0  0  0  0  0  0
   19.9748   20.4082   24.3972 H   0  0  0  0  0  0  0  0  0  0  0  0
   18.9529   19.2113   25.1564 H   0  0  0  0  0  0  0  0  0  0  0  0
   18.4221   19.5487   23.1077 C   0  0  0  0  0  0  0  0  0  0  0  0
   17.4853   19.8904   23.5690 H   0  0  0  0  0  0  0  0  0  0  0  0
   18.1900   18.5520   22.7112 H   0  0  0  0  0  0  0  0  0  0  0  0
   22.9225   18.0296   23.7801 O   0  0  0  0  0  0  0  0  0  0  0  0
   22.9869   18.2839   24.7243 H   0  0  0  0  0  0  0  0  0  0  0  0
  1  2  1  0  0  0  0
  1  3  1  0  0  0  0
  1  4  1  0  0  0  0
  4  5  1  0  0  0  0
  4  6  1  0  0  0  0
  4  7  1  0  0  0  0
  7  8  1  0  0  0  0
  7  9  1  0  0  0  0
  7 10  1  0  0  0  0
 10 11  1  0  0  0  0
 10 12  1  0  0  0  0
 10 13  1  0  0  0  0
 13 14  1  0  0  0  0
 13 15  1  0  0  0  0
 15 16  1  0  0  0  0
 15 17  1  0  0  0  0
 15 18  1  0  0  0  0
 18 19  1  0  0  0  0
 18 20  1  0  0  0  0
  1 21  1  0  0  0  0
 18 21  1  0  0  0  0
 21 22  1  0  0  0  0
 21 23  1  0  0  0  0
 13 24  1  0  0  0  0
 24 25  1  0  0  0  0
M  END
> <VConfSearch Rank>
116

> <Conf_Id>
162

> <Delta U+W>
0.219

> <U+W>
11.132

> <U>
13.296

> <W>
-2.164

> <W(PB)>
-4.311

> <W(SA)>
2.148

> <Valence>
18.607

> <Coulomb>
-8.339

> <VdW>
3.028

> <VdW6>
-12.271

> <VdW12>
15.299

> <Bond>
0.423

> <Angle>
4.488

> <Pdih>
13.696

> <Idih>
0.000

> <Tether>
0.000

$$$$
VeraChem MOL file


 25 25  0  0  0  0  0  0  0  0999 V2000     
   20.6041   21.0976   23.3578 C   0  0  0  0  0  0  0  0  0  0  0  0
   21.3596   20.6935   24.0434 H   0  0  0  0  0  0  0  0  0  0  0  0
   20.6085   22.1804   23.5436 H   0  0  0  0  0  0  0  0  0  0  0  0
   21.0421   20.8627   21.8906 C   0  0  0  0  0  0  0  0  0  0  0  0
   20.1807   20.9244   21.2120 H   0  0  0  0  0  0  0  0  0  0  0  0
   21.6913   21.7046   21.6134 H   0  0  0  0  0  0  0  0  0  0  0  0
   21.8594   19.5640   21.6438 C   0  0  0  0  0  0  0  0  0  0  0  0
   22.5356   19.3550   22.4836 H   0  0  0  0  0  0  0  0  0  0  0  0
   22.5157   19.7607   20.7848 H   0  0  0  0  0  0  0  0  0  0  0  0
   21.0183   18.3106   21.2876 C   0  0  0  0  0  0  0  0  0  0  0  0
   20.1350   18.6051   20.7076 H   0  0  0  0  0  0  0  0  0  0  0  0
   21.6125   17.6917   20.6027 H   0  0  0  0  0  0  0  0  0  0  0  0
   20.6129   17.3951   22.4703 C   0  0  0  0  0  0  0  0  0  0  0  0
   21.5198   16.8869   22.8287 H   0  0  0  0  0  0  0  0  0  0  0  0
   19.9667   18.0960   23.6890 C   0  0  0  0  0  0  0  0  0  0  0  0
   19.5411   17.3286   24.3484 H   0  0  0  0  0  0  0  0  0  0  0  0
   20.7545   18.5642   24.2889 H   0  0  0  0  0  0  0  0  0  0  0  0
   18.8568   19.1212   23.3359 C   0  0  0  0  0  0  0  0  0  0  0  0
   17.9300   18.8285   23.8476 H   0  0  0  0  0  0  0  0  0  0  0  0
   18.6109   19.0798   22.2683 H   0  0  0  0  0  0  0  0  0  0  0  0
   19.1907   20.5791   23.7342 C   0  0  0  0  0  0  0  0  0  0  0  0
   19.0665   20.6847   24.8206 H   0  0  0  0  0  0  0  0  0  0  0  0
   18.4383   21.2395   23.2821 H   0  0  0  0  0  0  0  0  0  0  0  0
   19.7035   16.4203   21.9735 O   0  0  0  0  0  0  0  0  0  0  0  0
   19.4562   15.8531   22.7325 H   0  0  0  0  0  0  0  0  0  0  0  0
  1  2  1  0  0  0  0
  1  3  1  0  0  0  0
  1  4  1  0  0  0  0
  4  5  1  0  0  0  0
  4  6  1  0  0  0  0
  4  7  1  0  0  0  0
  7  8  1  0  0  0  0
  7  9  1  0  0  0  0
  7 10  1  0  0  0  0
 10 11  1  0  0  0  0
 10 12  1  0  0  0  0
 10 13  1  0  0  0  0
 13 14  1  0  0  0  0
 13 15  1  0  0  0  0
 15 16  1  0  0  0  0
 15 17  1  0  0  0  0
 15 18  1  0  0  0  0
 18 19  1  0  0  0  0
 18 20  1  0  0  0  0
  1 21  1  0  0  0  0
 18 21  1  0  0  0  0
 21 22  1  0  0  0  0
 21 23  1  0  0  0  0
 13 24  1  0  0  0  0
 24 25  1  0  0  0  0
M  END
> <VConfSearch Rank>
117

> <Conf_Id>
155

> <Delta U+W>
0.339

> <U+W>
11.252

> <U>
13.420

> <W>
-2.167

> <W(PB)>
-4.325

> <W(SA)>
2.157

> <Valence>
18.609

> <Coulomb>
-8.052

> <VdW>
2.863

> <VdW6>
-12.524

> <VdW12>
15.387

> <Bond>
0.430

> <Angle>
4.724

> <Pdih>
13.455

> <Idih>
0.000

> <Tether>
0.000

$$$$
VeraChem MOL file


 25 25  0  0  0  0  0  0  0  0999 V2000     
   22.3479   19.2196   22.4677 C   0  0  0  0  0  0  0  0  0  0  0  0
   22.9024   19.0626   23.4027 H   0  0  0  0  0  0  0  0  0  0  0  0
   23.1138   19.3133   21.6858 H   0  0  0  0  0  0  0  0  0  0  0  0
   21.5245   17.9458   22.1418 C   0  0  0  0  0  0  0  0  0  0  0  0
   21.0650   18.0551   21.1544 H   0  0  0  0  0  0  0  0  0  0  0  0
   22.2338   17.1182   22.0047 H   0  0  0  0  0  0  0  0  0  0  0  0
   20.4748   17.4787   23.1922 C   0  0  0  0  0  0  0  0  0  0  0  0
   20.9981   16.8446   23.9206 H   0  0  0  0  0  0  0  0  0  0  0  0
   19.7466   16.8203   22.6993 H   0  0  0  0  0  0  0  0  0  0  0  0
   19.7132   18.5645   24.0001 C   0  0  0  0  0  0  0  0  0  0  0  0
   19.1331   18.0488   24.7766 H   0  0  0  0  0  0  0  0  0  0  0  0
   20.4318   19.1532   24.5770 H   0  0  0  0  0  0  0  0  0  0  0  0
   18.7428   19.5043   23.2259 C   0  0  0  0  0  0  0  0  0  0  0  0
   18.6274   20.4254   23.8151 H   0  0  0  0  0  0  0  0  0  0  0  0
   19.1315   19.9087   21.7817 C   0  0  0  0  0  0  0  0  0  0  0  0
   19.1898   19.0090   21.1623 H   0  0  0  0  0  0  0  0  0  0  0  0
   18.2847   20.4623   21.3549 H   0  0  0  0  0  0  0  0  0  0  0  0
   20.3972   20.7972   21.5894 C   0  0  0  0  0  0  0  0  0  0  0  0
   20.0836   21.8443   21.6994 H   0  0  0  0  0  0  0  0  0  0  0  0
   20.7428   20.7028   20.5512 H   0  0  0  0  0  0  0  0  0  0  0  0
   21.5974   20.5813   22.5484 C   0  0  0  0  0  0  0  0  0  0  0  0
   21.2845   20.7932   23.5756 H   0  0  0  0  0  0  0  0  0  0  0  0
   22.3348   21.3680   22.3381 H   0  0  0  0  0  0  0  0  0  0  0  0
   17.4778   18.8563   23.1480 O   0  0  0  0  0  0  0  0  0  0  0  0
   17.2097   18.6476   24.0666 H   0  0  0  0  0  0  0  0  0  0  0  0
  1  2  1  0  0  0  0
  1  3  1  0  0  0  0
  1  4  1  0  0  0  0
  4  5  1  0  0  0  0
  4  6  1  0  0  0  0
  4  7  1  0  0  0  0
  7  8  1  0  0  0  0
  7  9  1  0  0  0  0
  7 10  1  0  0  0  0
 10 11  1  0  0  0  0
 10 12  1  0  0  0  0
 10 13  1  0  0  0  0
 13 14  1  0  0  0  0
 13 15  1  0  0  0  0
 15 16  1  0  0  0  0
 15 17  1  0  0  0  0
 15 18  1  0  0  0  0
 18 19  1  0  0  0  0
 18 20  1  0  0  0  0
  1 21  1  0  0  0  0
 18 21  1  0  0  0  0
 21 22  1  0  0  0  0
 21 23  1  0  0  0  0
 13 24  1  0  0  0  0
 24 25  1  0  0  0  0
M  END
> <VConfSearch Rank>
118

> <Conf_Id>
146

> <Delta U+W>
2.553

> <U+W>
13.466

> <U>
15.643

> <W>
-2.176

> <W(PB)>
-4.307

> <W(SA)>
2.131

> <Valence>
18.916

> <Coulomb>
-7.506

> <VdW>
4.232

> <VdW6>
-13.632

> <VdW12>
17.864

> <Bond>
0.735

> <Angle>
9.140

> <Pdih>
9.042

> <Idih>
0.000

> <Tether>
0.000

$$$$
VeraChem MOL file


 25 25  0  0  0  0  0  0  0  0999 V2000     
   19.5021   21.1568   22.6573 C   0  0  0  0  0  0  0  0  0  0  0  0
   19.8468   21.9471   21.9767 H   0  0  0  0  0  0  0  0  0  0  0  0
   18.7036   21.6118   23.2592 H   0  0  0  0  0  0  0  0  0  0  0  0
   20.6514   20.7779   23.6246 C   0  0  0  0  0  0  0  0  0  0  0  0
   20.9083   21.6810   24.1949 H   0  0  0  0  0  0  0  0  0  0  0  0
   20.2957   20.0674   24.3794 H   0  0  0  0  0  0  0  0  0  0  0  0
   21.9562   20.2639   22.9660 C   0  0  0  0  0  0  0  0  0  0  0  0
   22.7059   20.1514   23.7611 H   0  0  0  0  0  0  0  0  0  0  0  0
   22.3510   21.0357   22.2915 H   0  0  0  0  0  0  0  0  0  0  0  0
   21.8736   18.9187   22.1984 C   0  0  0  0  0  0  0  0  0  0  0  0
   21.4792   19.0797   21.1901 H   0  0  0  0  0  0  0  0  0  0  0  0
   22.9044   18.5750   22.0379 H   0  0  0  0  0  0  0  0  0  0  0  0
   21.0727   17.8005   22.9141 C   0  0  0  0  0  0  0  0  0  0  0  0
   21.0006   18.0277   23.9862 H   0  0  0  0  0  0  0  0  0  0  0  0
   19.6509   17.5731   22.3410 C   0  0  0  0  0  0  0  0  0  0  0  0
   19.7236   17.3789   21.2627 H   0  0  0  0  0  0  0  0  0  0  0  0
   19.2511   16.6507   22.7821 H   0  0  0  0  0  0  0  0  0  0  0  0
   18.6058   18.6943   22.5908 C   0  0  0  0  0  0  0  0  0  0  0  0
   18.4844   18.8816   23.6655 H   0  0  0  0  0  0  0  0  0  0  0  0
   17.6338   18.3066   22.2562 H   0  0  0  0  0  0  0  0  0  0  0  0
   18.8704   20.0141   21.8210 C   0  0  0  0  0  0  0  0  0  0  0  0
   17.9091   20.3864   21.4410 H   0  0  0  0  0  0  0  0  0  0  0  0
   19.4631   19.8218   20.9196 H   0  0  0  0  0  0  0  0  0  0  0  0
   21.7889   16.5797   22.7656 O   0  0  0  0  0  0  0  0  0  0  0  0
   21.2984   15.8999   23.2732 H   0  0  0  0  0  0  0  0  0  0  0  0
  1  2  1  0  0  0  0
  1  3  1  0  0  0  0
  1  4  1  0  0  0  0
  4  5  1  0  0  0  0
  4  6  1  0  0  0  0
  4  7  1  0  0  0  0
  7  8  1  0  0  0  0
  7  9  1  0  0  0  0
  7 10  1  0  0  0  0
 10 11  1  0  0  0  0
 10 12  1  0  0  0  0
 10 13  1  0  0  0  0
 13 14  1  0  0  0  0
 13 15  1  0  0  0  0
 15 16  1  0  0  0  0
 15 17  1  0  0  0  0
 15 18  1  0  0  0  0
 18 19  1  0  0  0  0
 18 20  1  0  0  0  0
  1 21  1  0  0  0  0
 18 21  1  0  0  0  0
 21 22  1  0  0  0  0
 21 23  1  0  0  0  0
 13 24  1  0  0  0  0
 24 25  1  0  0  0  0
M  END
> <VConfSearch Rank>
119

> <Conf_Id>
62

> <Delta U+W>
-1.779

> <U+W>
9.134

> <U>
11.364

> <W>
-2.230

> <W(PB)>
-4.359

> <W(SA)>
2.129

> <Valence>
16.582

> <Coulomb>
-8.150

> <VdW>
2.933

> <VdW6>
-12.531

> <VdW12>
15.464

> <Bond>
0.439

> <Angle>
5.099

> <Pdih>
11.044

> <Idih>
0.000

> <Tether>
0.000

$$$$
VeraChem MOL file


 25 25  0  0  0  0  0  0  0  0999 V2000     
   19.5629   20.8529   22.9836 C   0  0  0  0  0  0  0  0  0  0  0  0
   19.2288   20.5789   21.9764 H   0  0  0  0  0  0  0  0  0  0  0  0
   19.1083   21.8358   23.1678 H   0  0  0  0  0  0  0  0  0  0  0  0
   21.0998   21.0447   23.0095 C   0  0  0  0  0  0  0  0  0  0  0  0
   21.3432   21.8461   22.2986 H   0  0  0  0  0  0  0  0  0  0  0  0
   21.4019   21.4211   23.9962 H   0  0  0  0  0  0  0  0  0  0  0  0
   21.9715   19.8137   22.6523 C   0  0  0  0  0  0  0  0  0  0  0  0
   22.1027   19.1680   23.5280 H   0  0  0  0  0  0  0  0  0  0  0  0
   22.9815   20.1855   22.4317 H   0  0  0  0  0  0  0  0  0  0  0  0
   21.4826   18.9861   21.4335 C   0  0  0  0  0  0  0  0  0  0  0  0
   20.8671   19.5979   20.7625 H   0  0  0  0  0  0  0  0  0  0  0  0
   22.3708   18.7176   20.8468 H   0  0  0  0  0  0  0  0  0  0  0  0
   20.7501   17.6682   21.7913 C   0  0  0  0  0  0  0  0  0  0  0  0
   21.3939   17.0891   22.4688 H   0  0  0  0  0  0  0  0  0  0  0  0
   19.3583   17.8125   22.4561 C   0  0  0  0  0  0  0  0  0  0  0  0
   18.6826   18.3887   21.8126 H   0  0  0  0  0  0  0  0  0  0  0  0
   18.9215   16.8062   22.5048 H   0  0  0  0  0  0  0  0  0  0  0  0
   19.3769   18.3799   23.9009 C   0  0  0  0  0  0  0  0  0  0  0  0
   20.3490   18.1976   24.3728 H   0  0  0  0  0  0  0  0  0  0  0  0
   18.6653   17.8011   24.5056 H   0  0  0  0  0  0  0  0  0  0  0  0
   18.9794   19.8725   24.0314 C   0  0  0  0  0  0  0  0  0  0  0  0
   19.2372   20.2232   25.0399 H   0  0  0  0  0  0  0  0  0  0  0  0
   17.8845   19.9350   23.9661 H   0  0  0  0  0  0  0  0  0  0  0  0
   20.5747   16.9316   20.5875 O   0  0  0  0  0  0  0  0  0  0  0  0
   21.4678   16.7876   20.2110 H   0  0  0  0  0  0  0  0  0  0  0  0
  1  2  1  0  0  0  0
  1  3  1  0  0  0  0
  1  4  1  0  0  0  0
  4  5  1  0  0  0  0
  4  6  1  0  0  0  0
  4  7  1  0  0  0  0
  7  8  1  0  0  0  0
  7  9  1  0  0  0  0
  7 10  1  0  0  0  0
 10 11  1  0  0  0  0
 10 12  1  0  0  0  0
 10 13  1  0  0  0  0
 13 14  1  0  0  0  0
 13 15  1  0  0  0  0
 15 16  1  0  0  0  0
 15 17  1  0  0  0  0
 15 18  1  0  0  0  0
 18 19  1  0  0  0  0
 18 20  1  0  0  0  0
  1 21  1  0  0  0  0
 18 21  1  0  0  0  0
 21 22  1  0  0  0  0
 21 23  1  0  0  0  0
 13 24  1  0  0  0  0
 24 25  1  0  0  0  0
M  END
> <VConfSearch Rank>
120

> <Conf_Id>
121

> <Delta U+W>
-1.283

> <U+W>
9.630

> <U>
11.876

> <W>
-2.246

> <W(PB)>
-4.376

> <W(SA)>
2.130

> <Valence>
17.153

> <Coulomb>
-7.966

> <VdW>
2.689

> <VdW6>
-12.458

> <VdW12>
15.147

> <Bond>
0.421

> <Angle>
5.258

> <Pdih>
11.475

> <Idih>
0.000

> <Tether>
0.000

$$$$
VeraChem MOL file


 25 25  0  0  0  0  0  0  0  0999 V2000     
   21.2352   20.3663   23.8784 C   0  0  0  0  0  0  0  0  0  0  0  0
   20.3251   20.9218   23.6250 H   0  0  0  0  0  0  0  0  0  0  0  0
   21.7559   21.0052   24.6046 H   0  0  0  0  0  0  0  0  0  0  0  0
   22.1529   20.2381   22.6370 C   0  0  0  0  0  0  0  0  0  0  0  0
   22.4093   21.2556   22.3114 H   0  0  0  0  0  0  0  0  0  0  0  0
   23.1027   19.7733   22.9341 H   0  0  0  0  0  0  0  0  0  0  0  0
   21.5824   19.4787   21.4119 C   0  0  0  0  0  0  0  0  0  0  0  0
   21.7126   18.3975   21.5343 H   0  0  0  0  0  0  0  0  0  0  0  0
   22.2129   19.7352   20.5495 H   0  0  0  0  0  0  0  0  0  0  0  0
   20.1099   19.8123   21.0515 C   0  0  0  0  0  0  0  0  0  0  0  0
   19.8268   20.8056   21.4204 H   0  0  0  0  0  0  0  0  0  0  0  0
   20.0482   19.8828   19.9574 H   0  0  0  0  0  0  0  0  0  0  0  0
   19.0709   18.7520   21.4944 C   0  0  0  0  0  0  0  0  0  0  0  0
   19.3940   17.7748   21.1074 H   0  0  0  0  0  0  0  0  0  0  0  0
   18.8329   18.6158   23.0196 C   0  0  0  0  0  0  0  0  0  0  0  0
   18.5155   19.5753   23.4461 H   0  0  0  0  0  0  0  0  0  0  0  0
   17.9781   17.9408   23.1580 H   0  0  0  0  0  0  0  0  0  0  0  0
   20.0231   18.0172   23.8160 C   0  0  0  0  0  0  0  0  0  0  0  0
   20.6581   17.4104   23.1605 H   0  0  0  0  0  0  0  0  0  0  0  0
   19.6218   17.3026   24.5476 H   0  0  0  0  0  0  0  0  0  0  0  0
   20.8772   19.0443   24.6023 C   0  0  0  0  0  0  0  0  0  0  0  0
   21.8002   18.5550   24.9416 H   0  0  0  0  0  0  0  0  0  0  0  0
   20.3277   19.3082   25.5162 H   0  0  0  0  0  0  0  0  0  0  0  0
   17.8285   19.0933   20.8926 O   0  0  0  0  0  0  0  0  0  0  0  0
   17.1969   18.3805   21.1231 H   0  0  0  0  0  0  0  0  0  0  0  0
  1  2  1  0  0  0  0
  1  3  1  0  0  0  0
  1  4  1  0  0  0  0
  4  5  1  0  0  0  0
  4  6  1  0  0  0  0
  4  7  1  0  0  0  0
  7  8  1  0  0  0  0
  7  9  1  0  0  0  0
  7 10  1  0  0  0  0
 10 11  1  0  0  0  0
 10 12  1  0  0  0  0
 10 13  1  0  0  0  0
 13 14  1  0  0  0  0
 13 15  1  0  0  0  0
 15 16  1  0  0  0  0
 15 17  1  0  0  0  0
 15 18  1  0  0  0  0
 18 19  1  0  0  0  0
 18 20  1  0  0  0  0
  1 21  1  0  0  0  0
 18 21  1  0  0  0  0
 21 22  1  0  0  0  0
 21 23  1  0  0  0  0
 13 24  1  0  0  0  0
 24 25  1  0  0  0  0
M  END
> <VConfSearch Rank>
121

> <Conf_Id>
24

> <Delta U+W>
-1.236

> <U+W>
9.678

> <U>
11.876

> <W>
-2.199

> <W(PB)>
-4.335

> <W(SA)>
2.137

> <Valence>
17.153

> <Coulomb>
-7.966

> <VdW>
2.689

> <VdW6>
-12.458

> <VdW12>
15.147

> <Bond>
0.421

> <Angle>
5.258

> <Pdih>
11.475

> <Idih>
0.000

> <Tether>
0.000

$$$$
VeraChem MOL file


 25 25  0  0  0  0  0  0  0  0999 V2000     
   20.6398   21.1675   21.9047 C   0  0  0  0  0  0  0  0  0  0  0  0
   21.0767   21.9644   22.5218 H   0  0  0  0  0  0  0  0  0  0  0  0
   20.4110   21.6334   20.9364 H   0  0  0  0  0  0  0  0  0  0  0  0
   21.7130   20.0724   21.6659 C   0  0  0  0  0  0  0  0  0  0  0  0
   21.4384   19.4423   20.8103 H   0  0  0  0  0  0  0  0  0  0  0  0
   22.6305   20.5876   21.3500 H   0  0  0  0  0  0  0  0  0  0  0  0
   22.0618   19.1849   22.8863 C   0  0  0  0  0  0  0  0  0  0  0  0
   22.0053   19.7635   23.8182 H   0  0  0  0  0  0  0  0  0  0  0  0
   23.1185   18.9021   22.7831 H   0  0  0  0  0  0  0  0  0  0  0  0
   21.2499   17.8632   22.9955 C   0  0  0  0  0  0  0  0  0  0  0  0
   21.0589   17.4390   22.0015 H   0  0  0  0  0  0  0  0  0  0  0  0
   21.8990   17.1382   23.5053 H   0  0  0  0  0  0  0  0  0  0  0  0
   19.9334   17.9690   23.8034 C   0  0  0  0  0  0  0  0  0  0  0  0
   20.0466   18.7641   24.5523 H   0  0  0  0  0  0  0  0  0  0  0  0
   18.6583   18.2345   22.9635 C   0  0  0  0  0  0  0  0  0  0  0  0
   18.3957   17.3276   22.4033 H   0  0  0  0  0  0  0  0  0  0  0  0
   17.8298   18.4079   23.6629 H   0  0  0  0  0  0  0  0  0  0  0  0
   18.7113   19.4198   21.9670 C   0  0  0  0  0  0  0  0  0  0  0  0
   17.6867   19.6268   21.6292 H   0  0  0  0  0  0  0  0  0  0  0  0
   19.2485   19.1171   21.0607 H   0  0  0  0  0  0  0  0  0  0  0  0
   19.3110   20.7194   22.5612 C   0  0  0  0  0  0  0  0  0  0  0  0
   19.4471   20.6319   23.6454 H   0  0  0  0  0  0  0  0  0  0  0  0
   18.5813   21.5312   22.4374 H   0  0  0  0  0  0  0  0  0  0  0  0
   19.7341   16.7433   24.4959 O   0  0  0  0  0  0  0  0  0  0  0  0
   19.6565   16.0477   23.8111 H   0  0  0  0  0  0  0  0  0  0  0  0
  1  2  1  0  0  0  0
  1  3  1  0  0  0  0
  1  4  1  0  0  0  0
  4  5  1  0  0  0  0
  4  6  1  0  0  0  0
  4  7  1  0  0  0  0
  7  8  1  0  0  0  0
  7  9  1  0  0  0  0
  7 10  1  0  0  0  0
 10 11  1  0  0  0  0
 10 12  1  0  0  0  0
 10 13  1  0  0  0  0
 13 14  1  0  0  0  0
 13 15  1  0  0  0  0
 15 16  1  0  0  0  0
 15 17  1  0  0  0  0
 15 18  1  0  0  0  0
 18 19  1  0  0  0  0
 18 20  1  0  0  0  0
  1 21  1  0  0  0  0
 18 21  1  0  0  0  0
 21 22  1  0  0  0  0
 21 23  1  0  0  0  0
 13 24  1  0  0  0  0
 24 25  1  0  0  0  0
M  END
> <VConfSearch Rank>
122

> <Conf_Id>
167

> <Delta U+W>
0.388

> <U+W>
11.301

> <U>
13.202

> <W>
-1.901

> <W(PB)>
-4.065

> <W(SA)>
2.163

> <Valence>
18.957

> <Coulomb>
-8.753

> <VdW>
2.998

> <VdW6>
-12.294

> <VdW12>
15.292

> <Bond>
0.419

> <Angle>
4.543

> <Pdih>
13.996

> <Idih>
0.000

> <Tether>
0.000

$$$$
VeraChem MOL file


 25 25  0  0  0  0  0  0  0  0999 V2000     
   18.3364   19.6019   23.1445 C   0  0  0  0  0  0  0  0  0  0  0  0
   17.5131   19.1537   22.5719 H   0  0  0  0  0  0  0  0  0  0  0  0
   17.8580   20.1816   23.9458 H   0  0  0  0  0  0  0  0  0  0  0  0
   19.0985   20.5981   22.2323 C   0  0  0  0  0  0  0  0  0  0  0  0
   19.2122   20.1881   21.2225 H   0  0  0  0  0  0  0  0  0  0  0  0
   18.4489   21.4741   22.0991 H   0  0  0  0  0  0  0  0  0  0  0  0
   20.4645   21.0901   22.7770 C   0  0  0  0  0  0  0  0  0  0  0  0
   20.4966   21.0319   23.8726 H   0  0  0  0  0  0  0  0  0  0  0  0
   20.5465   22.1606   22.5443 H   0  0  0  0  0  0  0  0  0  0  0  0
   21.7046   20.3946   22.1519 C   0  0  0  0  0  0  0  0  0  0  0  0
   21.6711   20.5014   21.0598 H   0  0  0  0  0  0  0  0  0  0  0  0
   22.5938   20.9510   22.4766 H   0  0  0  0  0  0  0  0  0  0  0  0
   21.9264   18.9044   22.5116 C   0  0  0  0  0  0  0  0  0  0  0  0
   21.9268   18.7948   23.6044 H   0  0  0  0  0  0  0  0  0  0  0  0
   20.8840   17.9405   21.8877 C   0  0  0  0  0  0  0  0  0  0  0  0
   20.4183   18.4049   21.0126 H   0  0  0  0  0  0  0  0  0  0  0  0
   21.3969   17.0567   21.4857 H   0  0  0  0  0  0  0  0  0  0  0  0
   19.7947   17.4307   22.8667 C   0  0  0  0  0  0  0  0  0  0  0  0
   20.2422   16.6443   23.4899 H   0  0  0  0  0  0  0  0  0  0  0  0
   19.0002   16.9377   22.2903 H   0  0  0  0  0  0  0  0  0  0  0  0
   19.1622   18.4773   23.8182 C   0  0  0  0  0  0  0  0  0  0  0  0
   19.9237   18.9076   24.4786 H   0  0  0  0  0  0  0  0  0  0  0  0
   18.4854   17.9362   24.4934 H   0  0  0  0  0  0  0  0  0  0  0  0
   23.2143   18.5397   22.0294 O   0  0  0  0  0  0  0  0  0  0  0  0
   23.3729   17.6179   22.3219 H   0  0  0  0  0  0  0  0  0  0  0  0
  1  2  1  0  0  0  0
  1  3  1  0  0  0  0
  1  4  1  0  0  0  0
  4  5  1  0  0  0  0
  4  6  1  0  0  0  0
  4  7  1  0  0  0  0
  7  8  1  0  0  0  0
  7  9  1  0  0  0  0
  7 10  1  0  0  0  0
 10 11  1  0  0  0  0
 10 12  1  0  0  0  0
 10 13  1  0  0  0  0
 13 14  1  0  0  0  0
 13 15  1  0  0  0  0
 15 16  1  0  0  0  0
 15 17  1  0  0  0  0
 15 18  1  0  0  0  0
 18 19  1  0  0  0  0
 18 20  1  0  0  0  0
  1 21  1  0  0  0  0
 18 21  1  0  0  0  0
 21 22  1  0  0  0  0
 21 23  1  0  0  0  0
 13 24  1  0  0  0  0
 24 25  1  0  0  0  0
M  END
> <VConfSearch Rank>
123

> <Conf_Id>
60

> <Delta U+W>
-1.838

> <U+W>
9.075

> <U>
11.150

> <W>
-2.074

> <W(PB)>
-4.196

> <W(SA)>
2.121

> <Valence>
16.582

> <Coulomb>
-8.361

> <VdW>
2.928

> <VdW6>
-12.539

> <VdW12>
15.467

> <Bond>
0.441

> <Angle>
5.093

> <Pdih>
11.049

> <Idih>
0.000

> <Tether>
0.000

$$$$
VeraChem MOL file


 25 25  0  0  0  0  0  0  0  0999 V2000     
   19.9768   21.2223   22.7096 C   0  0  0  0  0  0  0  0  0  0  0  0
   20.6110   21.9249   22.1522 H   0  0  0  0  0  0  0  0  0  0  0  0
   19.2442   21.8438   23.2424 H   0  0  0  0  0  0  0  0  0  0  0  0
   20.8330   20.4988   23.7792 C   0  0  0  0  0  0  0  0  0  0  0  0
   21.2266   21.2689   24.4566 H   0  0  0  0  0  0  0  0  0  0  0  0
   20.1977   19.8717   24.4150 H   0  0  0  0  0  0  0  0  0  0  0  0
   22.0442   19.6892   23.2516 C   0  0  0  0  0  0  0  0  0  0  0  0
   22.6125   19.3374   24.1235 H   0  0  0  0  0  0  0  0  0  0  0  0
   22.7206   20.3619   22.7071 H   0  0  0  0  0  0  0  0  0  0  0  0
   21.7312   18.4601   22.3592 C   0  0  0  0  0  0  0  0  0  0  0  0
   21.5392   18.7795   21.3299 H   0  0  0  0  0  0  0  0  0  0  0  0
   22.6523   17.8661   22.2921 H   0  0  0  0  0  0  0  0  0  0  0  0
   20.5721   17.5621   22.8640 C   0  0  0  0  0  0  0  0  0  0  0  0
   20.3971   17.7464   23.9324 H   0  0  0  0  0  0  0  0  0  0  0  0
   19.2424   17.7527   22.0926 C   0  0  0  0  0  0  0  0  0  0  0  0
   19.4221   17.6010   21.0202 H   0  0  0  0  0  0  0  0  0  0  0  0
   18.5632   16.9450   22.3960 H   0  0  0  0  0  0  0  0  0  0  0  0
   18.4942   19.0969   22.3058 C   0  0  0  0  0  0  0  0  0  0  0  0
   18.2669   19.2516   23.3684 H   0  0  0  0  0  0  0  0  0  0  0  0
   17.5163   19.0005   21.8145 H   0  0  0  0  0  0  0  0  0  0  0  0
   19.1997   20.3380   21.7000 C   0  0  0  0  0  0  0  0  0  0  0  0
   18.4326   20.9747   21.2383 H   0  0  0  0  0  0  0  0  0  0  0  0
   19.8466   20.0437   20.8660 H   0  0  0  0  0  0  0  0  0  0  0  0
   20.9615   16.2027   22.7069 O   0  0  0  0  0  0  0  0  0  0  0  0
   21.7646   16.0758   23.2542 H   0  0  0  0  0  0  0  0  0  0  0  0
  1  2  1  0  0  0  0
  1  3  1  0  0  0  0
  1  4  1  0  0  0  0
  4  5  1  0  0  0  0
  4  6  1  0  0  0  0
  4  7  1  0  0  0  0
  7  8  1  0  0  0  0
  7  9  1  0  0  0  0
  7 10  1  0  0  0  0
 10 11  1  0  0  0  0
 10 12  1  0  0  0  0
 10 13  1  0  0  0  0
 13 14  1  0  0  0  0
 13 15  1  0  0  0  0
 15 16  1  0  0  0  0
 15 17  1  0  0  0  0
 15 18  1  0  0  0  0
 18 19  1  0  0  0  0
 18 20  1  0  0  0  0
  1 21  1  0  0  0  0
 18 21  1  0  0  0  0
 21 22  1  0  0  0  0
 21 23  1  0  0  0  0
 13 24  1  0  0  0  0
 24 25  1  0  0  0  0
M  END
> <VConfSearch Rank>
124

> <Conf_Id>
129

> <Delta U+W>
-1.846

> <U+W>
9.067

> <U>
11.150

> <W>
-2.083

> <W(PB)>
-4.217

> <W(SA)>
2.134

> <Valence>
16.583

> <Coulomb>
-8.361

> <VdW>
2.928

> <VdW6>
-12.539

> <VdW12>
15.467

> <Bond>
0.441

> <Angle>
5.093

> <Pdih>
11.049

> <Idih>
0.000

> <Tether>
0.000

$$$$
VeraChem MOL file


 25 25  0  0  0  0  0  0  0  0999 V2000     
   21.2812   20.7797   23.5283 C   0  0  0  0  0  0  0  0  0  0  0  0
   20.9311   21.8148   23.4156 H   0  0  0  0  0  0  0  0  0  0  0  0
   22.1800   20.8380   24.1573 H   0  0  0  0  0  0  0  0  0  0  0  0
   21.7193   20.2346   22.1459 C   0  0  0  0  0  0  0  0  0  0  0  0
   22.5399   20.8720   21.7896 H   0  0  0  0  0  0  0  0  0  0  0  0
   22.1691   19.2409   22.2529 H   0  0  0  0  0  0  0  0  0  0  0  0
   20.6333   20.2237   21.0409 C   0  0  0  0  0  0  0  0  0  0  0  0
   21.1201   19.9254   20.1023 H   0  0  0  0  0  0  0  0  0  0  0  0
   20.2724   21.2480   20.8766 H   0  0  0  0  0  0  0  0  0  0  0  0
   19.4150   19.2896   21.2612 C   0  0  0  0  0  0  0  0  0  0  0  0
   18.6837   19.7714   21.9182 H   0  0  0  0  0  0  0  0  0  0  0  0
   18.9020   19.2001   20.2940 H   0  0  0  0  0  0  0  0  0  0  0  0
   19.7609   17.8733   21.7893 C   0  0  0  0  0  0  0  0  0  0  0  0
   20.8161   17.6491   21.5836 H   0  0  0  0  0  0  0  0  0  0  0  0
   19.4808   17.6708   23.2997 C   0  0  0  0  0  0  0  0  0  0  0  0
   18.4342   17.9233   23.5145 H   0  0  0  0  0  0  0  0  0  0  0  0
   19.5792   16.5986   23.5163 H   0  0  0  0  0  0  0  0  0  0  0  0
   20.4023   18.4309   24.2917 C   0  0  0  0  0  0  0  0  0  0  0  0
   21.4545   18.1643   24.1284 H   0  0  0  0  0  0  0  0  0  0  0  0
   20.1657   18.0593   25.2981 H   0  0  0  0  0  0  0  0  0  0  0  0
   20.2122   19.9698   24.3066 C   0  0  0  0  0  0  0  0  0  0  0  0
   20.2488   20.3083   25.3511 H   0  0  0  0  0  0  0  0  0  0  0  0
   19.2043   20.2365   23.9693 H   0  0  0  0  0  0  0  0  0  0  0  0
   18.9663   16.9293   21.0824 O   0  0  0  0  0  0  0  0  0  0  0  0
   18.0331   17.1467   21.2845 H   0  0  0  0  0  0  0  0  0  0  0  0
  1  2  1  0  0  0  0
  1  3  1  0  0  0  0
  1  4  1  0  0  0  0
  4  5  1  0  0  0  0
  4  6  1  0  0  0  0
  4  7  1  0  0  0  0
  7  8  1  0  0  0  0
  7  9  1  0  0  0  0
  7 10  1  0  0  0  0
 10 11  1  0  0  0  0
 10 12  1  0  0  0  0
 10 13  1  0  0  0  0
 13 14  1  0  0  0  0
 13 15  1  0  0  0  0
 15 16  1  0  0  0  0
 15 17  1  0  0  0  0
 15 18  1  0  0  0  0
 18 19  1  0  0  0  0
 18 20  1  0  0  0  0
  1 21  1  0  0  0  0
 18 21  1  0  0  0  0
 21 22  1  0  0  0  0
 21 23  1  0  0  0  0
 13 24  1  0  0  0  0
 24 25  1  0  0  0  0
M  END
> <VConfSearch Rank>
125

> <Conf_Id>
140

> <Delta U+W>
-1.702

> <U+W>
9.211

> <U>
11.181

> <W>
-1.969

> <W(PB)>
-4.093

> <W(SA)>
2.124

> <Valence>
16.954

> <Coulomb>
-8.661

> <VdW>
2.887

> <VdW6>
-12.561

> <VdW12>
15.448

> <Bond>
0.433

> <Angle>
5.120

> <Pdih>
11.401

> <Idih>
0.000

> <Tether>
0.000

$$$$
VeraChem MOL file


 25 25  0  0  0  0  0  0  0  0999 V2000     
   22.0226   19.6397   21.6439 C   0  0  0  0  0  0  0  0  0  0  0  0
   22.4559   18.9409   20.9156 H   0  0  0  0  0  0  0  0  0  0  0  0
   22.7021   20.5026   21.6668 H   0  0  0  0  0  0  0  0  0  0  0  0
   22.0477   18.9818   23.0479 C   0  0  0  0  0  0  0  0  0  0  0  0
   21.7715   17.9233   22.9834 H   0  0  0  0  0  0  0  0  0  0  0  0
   23.0950   18.9707   23.3798 H   0  0  0  0  0  0  0  0  0  0  0  0
   21.2055   19.6995   24.1341 C   0  0  0  0  0  0  0  0  0  0  0  0
   21.0795   20.7639   23.8973 H   0  0  0  0  0  0  0  0  0  0  0  0
   21.7850   19.6805   25.0673 H   0  0  0  0  0  0  0  0  0  0  0  0
   19.8347   19.0366   24.4383 C   0  0  0  0  0  0  0  0  0  0  0  0
   19.9956   17.9861   24.7134 H   0  0  0  0  0  0  0  0  0  0  0  0
   19.4281   19.5209   25.3363 H   0  0  0  0  0  0  0  0  0  0  0  0
   18.7557   19.1202   23.3294 C   0  0  0  0  0  0  0  0  0  0  0  0
   18.6193   20.1694   23.0354 H   0  0  0  0  0  0  0  0  0  0  0  0
   19.0632   18.2618   22.0752 C   0  0  0  0  0  0  0  0  0  0  0  0
   19.7598   17.4560   22.3282 H   0  0  0  0  0  0  0  0  0  0  0  0
   18.1473   17.7461   21.7560 H   0  0  0  0  0  0  0  0  0  0  0  0
   19.5851   19.0547   20.8488 C   0  0  0  0  0  0  0  0  0  0  0  0
   18.7244   19.5477   20.3763 H   0  0  0  0  0  0  0  0  0  0  0  0
   19.9687   18.3458   20.1025 H   0  0  0  0  0  0  0  0  0  0  0  0
   20.6546   20.1426   21.1188 C   0  0  0  0  0  0  0  0  0  0  0  0
   20.2544   20.9196   21.7801 H   0  0  0  0  0  0  0  0  0  0  0  0
   20.8410   20.6592   20.1673 H   0  0  0  0  0  0  0  0  0  0  0  0
   17.5341   18.6606   23.8937 O   0  0  0  0  0  0  0  0  0  0  0  0
   17.6819   17.7274   24.1509 H   0  0  0  0  0  0  0  0  0  0  0  0
  1  2  1  0  0  0  0
  1  3  1  0  0  0  0
  1  4  1  0  0  0  0
  4  5  1  0  0  0  0
  4  6  1  0  0  0  0
  4  7  1  0  0  0  0
  7  8  1  0  0  0  0
  7  9  1  0  0  0  0
  7 10  1  0  0  0  0
 10 11  1  0  0  0  0
 10 12  1  0  0  0  0
 10 13  1  0  0  0  0
 13 14  1  0  0  0  0
 13 15  1  0  0  0  0
 15 16  1  0  0  0  0
 15 17  1  0  0  0  0
 15 18  1  0  0  0  0
 18 19  1  0  0  0  0
 18 20  1  0  0  0  0
  1 21  1  0  0  0  0
 18 21  1  0  0  0  0
 21 22  1  0  0  0  0
 21 23  1  0  0  0  0
 13 24  1  0  0  0  0
 24 25  1  0  0  0  0
M  END
> <VConfSearch Rank>
126

> <Conf_Id>
68

> <Delta U+W>
-1.765

> <U+W>
9.148

> <U>
11.181

> <W>
-2.032

> <W(PB)>
-4.147

> <W(SA)>
2.114

> <Valence>
16.955

> <Coulomb>
-8.661

> <VdW>
2.887

> <VdW6>
-12.561

> <VdW12>
15.448

> <Bond>
0.433

> <Angle>
5.121

> <Pdih>
11.402

> <Idih>
0.000

> <Tether>
0.000

$$$$
VeraChem MOL file


 25 25  0  0  0  0  0  0  0  0999 V2000     
   19.7328   18.8118   24.4153 C   0  0  0  0  0  0  0  0  0  0  0  0
   19.5361   18.5272   25.4580 H   0  0  0  0  0  0  0  0  0  0  0  0
   18.7615   19.1526   24.0393 H   0  0  0  0  0  0  0  0  0  0  0  0
   20.1996   17.5455   23.6511 C   0  0  0  0  0  0  0  0  0  0  0  0
   21.2949   17.4820   23.6224 H   0  0  0  0  0  0  0  0  0  0  0  0
   19.8781   16.6712   24.2336 H   0  0  0  0  0  0  0  0  0  0  0  0
   19.6015   17.3860   22.2286 C   0  0  0  0  0  0  0  0  0  0  0  0
   18.5047   17.4050   22.2903 H   0  0  0  0  0  0  0  0  0  0  0  0
   19.8586   16.3801   21.8695 H   0  0  0  0  0  0  0  0  0  0  0  0
   20.0724   18.4046   21.1566 C   0  0  0  0  0  0  0  0  0  0  0  0
   21.1643   18.3786   21.0592 H   0  0  0  0  0  0  0  0  0  0  0  0
   19.6883   18.0476   20.1913 H   0  0  0  0  0  0  0  0  0  0  0  0
   19.5704   19.8543   21.3829 C   0  0  0  0  0  0  0  0  0  0  0  0
   18.7018   19.8315   22.0512 H   0  0  0  0  0  0  0  0  0  0  0  0
   20.6299   20.8250   21.9601 C   0  0  0  0  0  0  0  0  0  0  0  0
   21.3111   21.1187   21.1506 H   0  0  0  0  0  0  0  0  0  0  0  0
   20.1215   21.7459   22.2739 H   0  0  0  0  0  0  0  0  0  0  0  0
   21.5016   20.3060   23.1327 C   0  0  0  0  0  0  0  0  0  0  0  0
   22.2398   21.0866   23.3617 H   0  0  0  0  0  0  0  0  0  0  0  0
   22.0999   19.4449   22.8138 H   0  0  0  0  0  0  0  0  0  0  0  0
   20.7501   19.9818   24.4481 C   0  0  0  0  0  0  0  0  0  0  0  0
   20.2416   20.8863   24.8086 H   0  0  0  0  0  0  0  0  0  0  0  0
   21.5074   19.7452   25.2081 H   0  0  0  0  0  0  0  0  0  0  0  0
   19.1398   20.3844   20.1354 O   0  0  0  0  0  0  0  0  0  0  0  0
   19.9229   20.3804   19.5475 H   0  0  0  0  0  0  0  0  0  0  0  0
  1  2  1  0  0  0  0
  1  3  1  0  0  0  0
  1  4  1  0  0  0  0
  4  5  1  0  0  0  0
  4  6  1  0  0  0  0
  4  7  1  0  0  0  0
  7  8  1  0  0  0  0
  7  9  1  0  0  0  0
  7 10  1  0  0  0  0
 10 11  1  0  0  0  0
 10 12  1  0  0  0  0
 10 13  1  0  0  0  0
 13 14  1  0  0  0  0
 13 15  1  0  0  0  0
 15 16  1  0  0  0  0
 15 17  1  0  0  0  0
 15 18  1  0  0  0  0
 18 19  1  0  0  0  0
 18 20  1  0  0  0  0
  1 21  1  0  0  0  0
 18 21  1  0  0  0  0
 21 22  1  0  0  0  0
 21 23  1  0  0  0  0
 13 24  1  0  0  0  0
 24 25  1  0  0  0  0
M  END
> <VConfSearch Rank>
127

> <Conf_Id>
165

> <Delta U+W>
-1.999

> <U+W>
8.915

> <U>
10.935

> <W>
-2.020

> <W(PB)>
-4.135

> <W(SA)>
2.115

> <Valence>
16.757

> <Coulomb>
-8.731

> <VdW>
2.908

> <VdW6>
-12.597

> <VdW12>
15.506

> <Bond>
0.434

> <Angle>
5.069

> <Pdih>
11.254

> <Idih>
0.000

> <Tether>
0.000

$$$$
VeraChem MOL file


 25 25  0  0  0  0  0  0  0  0999 V2000     
   20.0175   17.9492   21.3275 C   0  0  0  0  0  0  0  0  0  0  0  0
   19.8500   17.2815   20.4713 H   0  0  0  0  0  0  0  0  0  0  0  0
   20.1206   17.2722   22.1830 H   0  0  0  0  0  0  0  0  0  0  0  0
   18.7481   18.8285   21.4724 C   0  0  0  0  0  0  0  0  0  0  0  0
   18.4358   19.1329   20.4640 H   0  0  0  0  0  0  0  0  0  0  0  0
   17.9283   18.2099   21.8619 H   0  0  0  0  0  0  0  0  0  0  0  0
   18.8697   20.1157   22.3260 C   0  0  0  0  0  0  0  0  0  0  0  0
   17.9179   20.6573   22.2389 H   0  0  0  0  0  0  0  0  0  0  0  0
   19.6135   20.7927   21.8905 H   0  0  0  0  0  0  0  0  0  0  0  0
   19.1455   19.9075   23.8375 C   0  0  0  0  0  0  0  0  0  0  0  0
   19.0957   20.8933   24.3195 H   0  0  0  0  0  0  0  0  0  0  0  0
   18.3268   19.3177   24.2693 H   0  0  0  0  0  0  0  0  0  0  0  0
   20.4910   19.2468   24.2260 C   0  0  0  0  0  0  0  0  0  0  0  0
   20.4239   18.1652   24.0607 H   0  0  0  0  0  0  0  0  0  0  0  0
   21.7247   19.7968   23.4647 C   0  0  0  0  0  0  0  0  0  0  0  0
   21.5287   20.8047   23.0800 H   0  0  0  0  0  0  0  0  0  0  0  0
   22.5480   19.9199   24.1813 H   0  0  0  0  0  0  0  0  0  0  0  0
   22.2470   18.8743   22.3310 C   0  0  0  0  0  0  0  0  0  0  0  0
   22.4666   17.8804   22.7444 H   0  0  0  0  0  0  0  0  0  0  0  0
   23.2137   19.2732   21.9946 H   0  0  0  0  0  0  0  0  0  0  0  0
   21.3390   18.7232   21.0822 C   0  0  0  0  0  0  0  0  0  0  0  0
   21.9153   18.1632   20.3331 H   0  0  0  0  0  0  0  0  0  0  0  0
   21.1454   19.7002   20.6212 H   0  0  0  0  0  0  0  0  0  0  0  0
   20.6857   19.4642   25.6190 O   0  0  0  0  0  0  0  0  0  0  0  0
   19.9151   19.0682   26.0769 H   0  0  0  0  0  0  0  0  0  0  0  0
  1  2  1  0  0  0  0
  1  3  1  0  0  0  0
  1  4  1  0  0  0  0
  4  5  1  0  0  0  0
  4  6  1  0  0  0  0
  4  7  1  0  0  0  0
  7  8  1  0  0  0  0
  7  9  1  0  0  0  0
  7 10  1  0  0  0  0
 10 11  1  0  0  0  0
 10 12  1  0  0  0  0
 10 13  1  0  0  0  0
 13 14  1  0  0  0  0
 13 15  1  0  0  0  0
 15 16  1  0  0  0  0
 15 17  1  0  0  0  0
 15 18  1  0  0  0  0
 18 19  1  0  0  0  0
 18 20  1  0  0  0  0
  1 21  1  0  0  0  0
 18 21  1  0  0  0  0
 21 22  1  0  0  0  0
 21 23  1  0  0  0  0
 13 24  1  0  0  0  0
 24 25  1  0  0  0  0
M  END
> <VConfSearch Rank>
128

> <Conf_Id>
133

> <Delta U+W>
-2.139

> <U+W>
8.774

> <U>
10.905

> <W>
-2.131

> <W(PB)>
-4.281

> <W(SA)>
2.150

> <Valence>
16.378

> <Coulomb>
-8.448

> <VdW>
2.976

> <VdW6>
-12.570

> <VdW12>
15.545

> <Bond>
0.439

> <Angle>
5.049

> <Pdih>
10.889

> <Idih>
0.000

> <Tether>
0.000

$$$$
VeraChem MOL file


 25 25  0  0  0  0  0  0  0  0999 V2000     
   21.4342   20.4552   21.9059 C   0  0  0  0  0  0  0  0  0  0  0  0
   22.0717   21.1783   21.3790 H   0  0  0  0  0  0  0  0  0  0  0  0
   21.9533   20.2769   22.8544 H   0  0  0  0  0  0  0  0  0  0  0  0
   21.3810   19.1558   21.0607 C   0  0  0  0  0  0  0  0  0  0  0  0
   20.4996   19.1451   20.4068 H   0  0  0  0  0  0  0  0  0  0  0  0
   22.2423   19.1701   20.3788 H   0  0  0  0  0  0  0  0  0  0  0  0
   21.4746   17.8415   21.8797 C   0  0  0  0  0  0  0  0  0  0  0  0
   22.3895   17.8553   22.4878 H   0  0  0  0  0  0  0  0  0  0  0  0
   21.6060   17.0140   21.1692 H   0  0  0  0  0  0  0  0  0  0  0  0
   20.2622   17.4974   22.7857 C   0  0  0  0  0  0  0  0  0  0  0  0
   19.3415   17.4473   22.1926 H   0  0  0  0  0  0  0  0  0  0  0  0
   20.4197   16.4752   23.1556 H   0  0  0  0  0  0  0  0  0  0  0  0
   20.0825   18.4372   24.0059 C   0  0  0  0  0  0  0  0  0  0  0  0
   21.0299   18.9535   24.2001 H   0  0  0  0  0  0  0  0  0  0  0  0
   18.9519   19.4842   23.8530 C   0  0  0  0  0  0  0  0  0  0  0  0
   17.9906   18.9763   24.0093 H   0  0  0  0  0  0  0  0  0  0  0  0
   19.0415   20.2188   24.6636 H   0  0  0  0  0  0  0  0  0  0  0  0
   18.8638   20.2384   22.5012 C   0  0  0  0  0  0  0  0  0  0  0  0
   17.9714   20.8778   22.5411 H   0  0  0  0  0  0  0  0  0  0  0  0
   18.6643   19.5366   21.6833 H   0  0  0  0  0  0  0  0  0  0  0  0
   20.0678   21.1476   22.1489 C   0  0  0  0  0  0  0  0  0  0  0  0
   20.1884   21.9103   22.9301 H   0  0  0  0  0  0  0  0  0  0  0  0
   19.8054   21.6986   21.2354 H   0  0  0  0  0  0  0  0  0  0  0  0
   19.7763   17.6432   25.1466 O   0  0  0  0  0  0  0  0  0  0  0  0
   19.7130   18.2563   25.9085 H   0  0  0  0  0  0  0  0  0  0  0  0
  1  2  1  0  0  0  0
  1  3  1  0  0  0  0
  1  4  1  0  0  0  0
  4  5  1  0  0  0  0
  4  6  1  0  0  0  0
  4  7  1  0  0  0  0
  7  8  1  0  0  0  0
  7  9  1  0  0  0  0
  7 10  1  0  0  0  0
 10 11  1  0  0  0  0
 10 12  1  0  0  0  0
 10 13  1  0  0  0  0
 13 14  1  0  0  0  0
 13 15  1  0  0  0  0
 15 16  1  0  0  0  0
 15 17  1  0  0  0  0
 15 18  1  0  0  0  0
 18 19  1  0  0  0  0
 18 20  1  0  0  0  0
  1 21  1  0  0  0  0
 18 21  1  0  0  0  0
 21 22  1  0  0  0  0
 21 23  1  0  0  0  0
 13 24  1  0  0  0  0
 24 25  1  0  0  0  0
M  END
> <VConfSearch Rank>
129

> <Conf_Id>
95

> <Delta U+W>
-2.190

> <U+W>
8.723

> <U>
10.905

> <W>
-2.182

> <W(PB)>
-4.296

> <W(SA)>
2.114

> <Valence>
16.377

> <Coulomb>
-8.448

> <VdW>
2.976

> <VdW6>
-12.570

> <VdW12>
15.546

> <Bond>
0.439

> <Angle>
5.049

> <Pdih>
10.889

> <Idih>
0.000

> <Tether>
0.000

$$$$
VeraChem MOL file


 25 25  0  0  0  0  0  0  0  0999 V2000     
   20.1115   20.8648   21.9968 C   0  0  0  0  0  0  0  0  0  0  0  0
   20.1173   21.8738   21.5623 H   0  0  0  0  0  0  0  0  0  0  0  0
   19.2528   20.8854   22.6753 H   0  0  0  0  0  0  0  0  0  0  0  0
   21.4429   20.7021   22.7876 C   0  0  0  0  0  0  0  0  0  0  0  0
   22.2190   21.2537   22.2396 H   0  0  0  0  0  0  0  0  0  0  0  0
   21.3481   21.2150   23.7543 H   0  0  0  0  0  0  0  0  0  0  0  0
   21.9875   19.2683   23.0195 C   0  0  0  0  0  0  0  0  0  0  0  0
   22.9797   19.3603   23.4821 H   0  0  0  0  0  0  0  0  0  0  0  0
   22.1986   18.8010   22.0525 H   0  0  0  0  0  0  0  0  0  0  0  0
   21.1462   18.3182   23.9229 C   0  0  0  0  0  0  0  0  0  0  0  0
   21.4307   17.2799   23.7077 H   0  0  0  0  0  0  0  0  0  0  0  0
   21.4569   18.5024   24.9596 H   0  0  0  0  0  0  0  0  0  0  0  0
   19.6019   18.4399   23.8778 C   0  0  0  0  0  0  0  0  0  0  0  0
   19.3349   19.4691   24.1394 H   0  0  0  0  0  0  0  0  0  0  0  0
   18.9022   18.0436   22.5459 C   0  0  0  0  0  0  0  0  0  0  0  0
   18.7308   16.9589   22.5640 H   0  0  0  0  0  0  0  0  0  0  0  0
   17.9042   18.4998   22.5320 H   0  0  0  0  0  0  0  0  0  0  0  0
   19.6213   18.3638   21.2074 C   0  0  0  0  0  0  0  0  0  0  0  0
   19.0291   17.9165   20.3975 H   0  0  0  0  0  0  0  0  0  0  0  0
   20.5676   17.8153   21.1651 H   0  0  0  0  0  0  0  0  0  0  0  0
   19.8335   19.8629   20.8452 C   0  0  0  0  0  0  0  0  0  0  0  0
   18.9255   20.2087   20.3324 H   0  0  0  0  0  0  0  0  0  0  0  0
   20.6365   19.9378   20.0995 H   0  0  0  0  0  0  0  0  0  0  0  0
   19.0791   17.5961   24.8972 O   0  0  0  0  0  0  0  0  0  0  0  0
   19.4751   17.8945   25.7423 H   0  0  0  0  0  0  0  0  0  0  0  0
  1  2  1  0  0  0  0
  1  3  1  0  0  0  0
  1  4  1  0  0  0  0
  4  5  1  0  0  0  0
  4  6  1  0  0  0  0
  4  7  1  0  0  0  0
  7  8  1  0  0  0  0
  7  9  1  0  0  0  0
  7 10  1  0  0  0  0
 10 11  1  0  0  0  0
 10 12  1  0  0  0  0
 10 13  1  0  0  0  0
 13 14  1  0  0  0  0
 13 15  1  0  0  0  0
 15 16  1  0  0  0  0
 15 17  1  0  0  0  0
 15 18  1  0  0  0  0
 18 19  1  0  0  0  0
 18 20  1  0  0  0  0
  1 21  1  0  0  0  0
 18 21  1  0  0  0  0
 21 22  1  0  0  0  0
 21 23  1  0  0  0  0
 13 24  1  0  0  0  0
 24 25  1  0  0  0  0
M  END
> <VConfSearch Rank>
130

> <Conf_Id>
161

> <Delta U+W>
2.120

> <U+W>
13.033

> <U>
15.076

> <W>
-2.043

> <W(PB)>
-4.186

> <W(SA)>
2.143

> <Valence>
18.884

> <Coulomb>
-8.074

> <VdW>
4.266

> <VdW6>
-13.486

> <VdW12>
17.752

> <Bond>
0.713

> <Angle>
8.955

> <Pdih>
9.215

> <Idih>
0.000

> <Tether>
0.000

$$$$
VeraChem MOL file


 25 25  0  0  0  0  0  0  0  0999 V2000     
   20.0955   19.5876   24.5627 C   0  0  0  0  0  0  0  0  0  0  0  0
   19.7403   19.6764   25.5985 H   0  0  0  0  0  0  0  0  0  0  0  0
   20.9621   20.2584   24.5059 H   0  0  0  0  0  0  0  0  0  0  0  0
   18.9713   20.0961   23.6261 C   0  0  0  0  0  0  0  0  0  0  0  0
   18.2656   19.2887   23.3891 H   0  0  0  0  0  0  0  0  0  0  0  0
   18.3892   20.8318   24.1980 H   0  0  0  0  0  0  0  0  0  0  0  0
   19.4588   20.8132   22.3363 C   0  0  0  0  0  0  0  0  0  0  0  0
   20.3549   21.4170   22.5331 H   0  0  0  0  0  0  0  0  0  0  0  0
   18.6776   21.5348   22.0601 H   0  0  0  0  0  0  0  0  0  0  0  0
   19.6737   19.8925   21.1073 C   0  0  0  0  0  0  0  0  0  0  0  0
   18.9378   19.0793   21.1183 H   0  0  0  0  0  0  0  0  0  0  0  0
   19.4368   20.4762   20.2079 H   0  0  0  0  0  0  0  0  0  0  0  0
   21.1078   19.3397   20.9078 C   0  0  0  0  0  0  0  0  0  0  0  0
   21.7537   20.1774   20.6082 H   0  0  0  0  0  0  0  0  0  0  0  0
   21.7627   18.6663   22.1360 C   0  0  0  0  0  0  0  0  0  0  0  0
   22.6578   18.1279   21.7967 H   0  0  0  0  0  0  0  0  0  0  0  0
   22.1490   19.4435   22.8042 H   0  0  0  0  0  0  0  0  0  0  0  0
   20.8463   17.6784   22.9064 C   0  0  0  0  0  0  0  0  0  0  0  0
   21.3364   16.6959   22.9413 H   0  0  0  0  0  0  0  0  0  0  0  0
   19.9072   17.5057   22.3685 H   0  0  0  0  0  0  0  0  0  0  0  0
   20.5317   18.1126   24.3580 C   0  0  0  0  0  0  0  0  0  0  0  0
   21.4175   17.9284   24.9812 H   0  0  0  0  0  0  0  0  0  0  0  0
   19.7470   17.4524   24.7521 H   0  0  0  0  0  0  0  0  0  0  0  0
   21.0688   18.3913   19.8508 O   0  0  0  0  0  0  0  0  0  0  0  0
   20.6036   17.6087   20.2100 H   0  0  0  0  0  0  0  0  0  0  0  0
  1  2  1  0  0  0  0
  1  3  1  0  0  0  0
  1  4  1  0  0  0  0
  4  5  1  0  0  0  0
  4  6  1  0  0  0  0
  4  7  1  0  0  0  0
  7  8  1  0  0  0  0
  7  9  1  0  0  0  0
  7 10  1  0  0  0  0
 10 11  1  0  0  0  0
 10 12  1  0  0  0  0
 10 13  1  0  0  0  0
 13 14  1  0  0  0  0
 13 15  1  0  0  0  0
 15 16  1  0  0  0  0
 15 17  1  0  0  0  0
 15 18  1  0  0  0  0
 18 19  1  0  0  0  0
 18 20  1  0  0  0  0
  1 21  1  0  0  0  0
 18 21  1  0  0  0  0
 21 22  1  0  0  0  0
 21 23  1  0  0  0  0
 13 24  1  0  0  0  0
 24 25  1  0  0  0  0
M  END
> <VConfSearch Rank>
131

> <Conf_Id>
164

> <Delta U+W>
0.008

> <U+W>
10.922

> <U>
12.433

> <W>
-1.511

> <W(PB)>
-3.669

> <W(SA)>
2.157

> <Valence>
19.007

> <Coulomb>
-9.373

> <VdW>
2.799

> <VdW6>
-12.597

> <VdW12>
15.396

> <Bond>
0.425

> <Angle>
4.784

> <Pdih>
13.799

> <Idih>
0.000

> <Tether>
0.000

$$$$
VeraChem MOL file


 25 25  0  0  0  0  0  0  0  0999 V2000     
   19.7312   20.9345   22.6800 C   0  0  0  0  0  0  0  0  0  0  0  0
   19.3195   20.5172   21.7541 H   0  0  0  0  0  0  0  0  0  0  0  0
   19.3754   21.9737   22.6968 H   0  0  0  0  0  0  0  0  0  0  0  0
   21.2782   20.9793   22.6118 C   0  0  0  0  0  0  0  0  0  0  0  0
   21.5514   21.6132   21.7572 H   0  0  0  0  0  0  0  0  0  0  0  0
   21.6657   21.4959   23.5003 H   0  0  0  0  0  0  0  0  0  0  0  0
   22.0182   19.6265   22.4539 C   0  0  0  0  0  0  0  0  0  0  0  0
   22.1418   19.1393   23.4278 H   0  0  0  0  0  0  0  0  0  0  0  0
   23.0426   19.8537   22.1285 H   0  0  0  0  0  0  0  0  0  0  0  0
   21.3910   18.6437   21.4294 C   0  0  0  0  0  0  0  0  0  0  0  0
   20.8010   19.1830   20.6786 H   0  0  0  0  0  0  0  0  0  0  0  0
   22.2173   18.1820   20.8724 H   0  0  0  0  0  0  0  0  0  0  0  0
   20.5661   17.4901   22.0534 C   0  0  0  0  0  0  0  0  0  0  0  0
   21.1948   16.9846   22.8003 H   0  0  0  0  0  0  0  0  0  0  0  0
   19.2303   17.8828   22.7331 C   0  0  0  0  0  0  0  0  0  0  0  0
   18.5692   18.3970   22.0251 H   0  0  0  0  0  0  0  0  0  0  0  0
   18.7128   16.9479   22.9868 H   0  0  0  0  0  0  0  0  0  0  0  0
   19.3802   18.6975   24.0455 C   0  0  0  0  0  0  0  0  0  0  0  0
   20.3579   18.5111   24.5041 H   0  0  0  0  0  0  0  0  0  0  0  0
   18.6562   18.3091   24.7749 H   0  0  0  0  0  0  0  0  0  0  0  0
   19.1225   20.2202   23.9124 C   0  0  0  0  0  0  0  0  0  0  0  0
   19.4651   20.7210   24.8280 H   0  0  0  0  0  0  0  0  0  0  0  0
   18.0354   20.3750   23.8785 H   0  0  0  0  0  0  0  0  0  0  0  0
   20.2666   16.5652   21.0170 O   0  0  0  0  0  0  0  0  0  0  0  0
   19.7082   17.0451   20.3715 H   0  0  0  0  0  0  0  0  0  0  0  0
  1  2  1  0  0  0  0
  1  3  1  0  0  0  0
  1  4  1  0  0  0  0
  4  5  1  0  0  0  0
  4  6  1  0  0  0  0
  4  7  1  0  0  0  0
  7  8  1  0  0  0  0
  7  9  1  0  0  0  0
  7 10  1  0  0  0  0
 10 11  1  0  0  0  0
 10 12  1  0  0  0  0
 10 13  1  0  0  0  0
 13 14  1  0  0  0  0
 13 15  1  0  0  0  0
 15 16  1  0  0  0  0
 15 17  1  0  0  0  0
 15 18  1  0  0  0  0
 18 19  1  0  0  0  0
 18 20  1  0  0  0  0
  1 21  1  0  0  0  0
 18 21  1  0  0  0  0
 21 22  1  0  0  0  0
 21 23  1  0  0  0  0
 13 24  1  0  0  0  0
 24 25  1  0  0  0  0
M  END
> <VConfSearch Rank>
132

> <Conf_Id>
15

> <Delta U+W>
-1.271

> <U+W>
9.643

> <U>
11.413

> <W>
-1.770

> <W(PB)>
-3.908

> <W(SA)>
2.138

> <Valence>
17.496

> <Coulomb>
-8.736

> <VdW>
2.653

> <VdW6>
-12.485

> <VdW12>
15.138

> <Bond>
0.414

> <Angle>
5.295

> <Pdih>
11.787

> <Idih>
0.000

> <Tether>
0.000

$$$$
VeraChem MOL file


 25 25  0  0  0  0  0  0  0  0999 V2000     
   20.3326   19.2198   20.7251 C   0  0  0  0  0  0  0  0  0  0  0  0
   20.1473   19.1303   19.6459 H   0  0  0  0  0  0  0  0  0  0  0  0
   21.4249   19.1867   20.8249 H   0  0  0  0  0  0  0  0  0  0  0  0
   19.7848   20.6028   21.1656 C   0  0  0  0  0  0  0  0  0  0  0  0
   20.4023   21.3798   20.6946 H   0  0  0  0  0  0  0  0  0  0  0  0
   18.7751   20.7330   20.7528 H   0  0  0  0  0  0  0  0  0  0  0  0
   19.7248   20.8727   22.6884 C   0  0  0  0  0  0  0  0  0  0  0  0
   18.8493   20.3702   23.1158 H   0  0  0  0  0  0  0  0  0  0  0  0
   19.5336   21.9442   22.8373 H   0  0  0  0  0  0  0  0  0  0  0  0
   21.0182   20.4865   23.4522 C   0  0  0  0  0  0  0  0  0  0  0  0
   21.8233   20.2316   22.7541 H   0  0  0  0  0  0  0  0  0  0  0  0
   21.3811   21.3720   23.9901 H   0  0  0  0  0  0  0  0  0  0  0  0
   20.8367   19.3537   24.4886 C   0  0  0  0  0  0  0  0  0  0  0  0
   20.2974   19.7744   25.3495 H   0  0  0  0  0  0  0  0  0  0  0  0
   20.0447   18.1057   24.0199 C   0  0  0  0  0  0  0  0  0  0  0  0
   20.1557   17.3432   24.8026 H   0  0  0  0  0  0  0  0  0  0  0  0
   18.9708   18.3269   24.0042 H   0  0  0  0  0  0  0  0  0  0  0  0
   20.4684   17.4706   22.6685 C   0  0  0  0  0  0  0  0  0  0  0  0
   20.2573   16.3950   22.7446 H   0  0  0  0  0  0  0  0  0  0  0  0
   21.5535   17.5416   22.5195 H   0  0  0  0  0  0  0  0  0  0  0  0
   19.6998   17.9902   21.4223 C   0  0  0  0  0  0  0  0  0  0  0  0
   18.6426   18.1749   21.6558 H   0  0  0  0  0  0  0  0  0  0  0  0
   19.6965   17.1736   20.6872 H   0  0  0  0  0  0  0  0  0  0  0  0
   22.1245   18.9349   24.9181 O   0  0  0  0  0  0  0  0  0  0  0  0
   22.5293   18.4840   24.1500 H   0  0  0  0  0  0  0  0  0  0  0  0
  1  2  1  0  0  0  0
  1  3  1  0  0  0  0
  1  4  1  0  0  0  0
  4  5  1  0  0  0  0
  4  6  1  0  0  0  0
  4  7  1  0  0  0  0
  7  8  1  0  0  0  0
  7  9  1  0  0  0  0
  7 10  1  0  0  0  0
 10 11  1  0  0  0  0
 10 12  1  0  0  0  0
 10 13  1  0  0  0  0
 13 14  1  0  0  0  0
 13 15  1  0  0  0  0
 15 16  1  0  0  0  0
 15 17  1  0  0  0  0
 15 18  1  0  0  0  0
 18 19  1  0  0  0  0
 18 20  1  0  0  0  0
  1 21  1  0  0  0  0
 18 21  1  0  0  0  0
 21 22  1  0  0  0  0
 21 23  1  0  0  0  0
 13 24  1  0  0  0  0
 24 25  1  0  0  0  0
M  END
> <VConfSearch Rank>
133

> <Conf_Id>
115

> <Delta U+W>
0.038

> <U+W>
10.952

> <U>
12.526

> <W>
-1.575

> <W(PB)>
-3.698

> <W(SA)>
2.123

> <Valence>
19.016

> <Coulomb>
-9.226

> <VdW>
2.737

> <VdW6>
-12.612

> <VdW12>
15.349

> <Bond>
0.421

> <Angle>
4.883

> <Pdih>
13.711

> <Idih>
0.000

> <Tether>
0.000

$$$$
VeraChem MOL file


 25 25  0  0  0  0  0  0  0  0999 V2000     
   19.7338   17.3684   23.4803 C   0  0  0  0  0  0  0  0  0  0  0  0
   19.3157   16.3545   23.4160 H   0  0  0  0  0  0  0  0  0  0  0  0
   20.2005   17.4317   24.4726 H   0  0  0  0  0  0  0  0  0  0  0  0
   18.5517   18.3609   23.3851 C   0  0  0  0  0  0  0  0  0  0  0  0
   18.0097   18.2125   22.4412 H   0  0  0  0  0  0  0  0  0  0  0  0
   17.8386   18.0994   24.1789 H   0  0  0  0  0  0  0  0  0  0  0  0
   18.9287   19.8507   23.5560 C   0  0  0  0  0  0  0  0  0  0  0  0
   19.6627   19.9680   24.3644 H   0  0  0  0  0  0  0  0  0  0  0  0
   18.0294   20.3799   23.9001 H   0  0  0  0  0  0  0  0  0  0  0  0
   19.4059   20.5428   22.2509 C   0  0  0  0  0  0  0  0  0  0  0  0
   19.1759   19.9323   21.3688 H   0  0  0  0  0  0  0  0  0  0  0  0
   18.8152   21.4613   22.1327 H   0  0  0  0  0  0  0  0  0  0  0  0
   20.9003   20.9362   22.2460 C   0  0  0  0  0  0  0  0  0  0  0  0
   21.1883   21.2526   23.2587 H   0  0  0  0  0  0  0  0  0  0  0  0
   21.8590   19.8191   21.7775 C   0  0  0  0  0  0  0  0  0  0  0  0
   21.6245   19.5336   20.7435 H   0  0  0  0  0  0  0  0  0  0  0  0
   22.8715   20.2427   21.7480 H   0  0  0  0  0  0  0  0  0  0  0  0
   21.9054   18.5619   22.6797 C   0  0  0  0  0  0  0  0  0  0  0  0
   21.9007   18.8508   23.7392 H   0  0  0  0  0  0  0  0  0  0  0  0
   22.8776   18.0772   22.5150 H   0  0  0  0  0  0  0  0  0  0  0  0
   20.8062   17.5108   22.3747 C   0  0  0  0  0  0  0  0  0  0  0  0
   21.3030   16.5360   22.2746 H   0  0  0  0  0  0  0  0  0  0  0  0
   20.3315   17.6957   21.4019 H   0  0  0  0  0  0  0  0  0  0  0  0
   21.0626   22.0376   21.3605 O   0  0  0  0  0  0  0  0  0  0  0  0
   22.0036   22.3062   21.4120 H   0  0  0  0  0  0  0  0  0  0  0  0
  1  2  1  0  0  0  0
  1  3  1  0  0  0  0
  1  4  1  0  0  0  0
  4  5  1  0  0  0  0
  4  6  1  0  0  0  0
  4  7  1  0  0  0  0
  7  8  1  0  0  0  0
  7  9  1  0  0  0  0
  7 10  1  0  0  0  0
 10 11  1  0  0  0  0
 10 12  1  0  0  0  0
 10 13  1  0  0  0  0
 13 14  1  0  0  0  0
 13 15  1  0  0  0  0
 15 16  1  0  0  0  0
 15 17  1  0  0  0  0
 15 18  1  0  0  0  0
 18 19  1  0  0  0  0
 18 20  1  0  0  0  0
  1 21  1  0  0  0  0
 18 21  1  0  0  0  0
 21 22  1  0  0  0  0
 21 23  1  0  0  0  0
 13 24  1  0  0  0  0
 24 25  1  0  0  0  0
M  END
> <VConfSearch Rank>
134

> <Conf_Id>
30

> <Delta U+W>
0.000

> <U+W>
10.913

> <U>
13.140

> <W>
-2.227

> <W(PB)>
-4.367

> <W(SA)>
2.140

> <Valence>
19.155

> <Coulomb>
-8.157

> <VdW>
2.142

> <VdW6>
-11.576

> <VdW12>
13.718

> <Bond>
0.294

> <Angle>
3.547

> <Pdih>
15.314

> <Idih>
0.000

> <Tether>
0.000

$$$$
VeraChem MOL file


 25 25  0  0  0  0  0  0  0  0999 V2000     
   21.4192   20.2187   24.1914 C   0  0  0  0  0  0  0  0  0  0  0  0
   21.6677   19.9450   25.2259 H   0  0  0  0  0  0  0  0  0  0  0  0
   21.8296   21.2271   24.0445 H   0  0  0  0  0  0  0  0  0  0  0  0
   19.8782   20.2989   24.0613 C   0  0  0  0  0  0  0  0  0  0  0  0
   19.4915   20.8297   24.9420 H   0  0  0  0  0  0  0  0  0  0  0  0
   19.6131   20.9407   23.2131 H   0  0  0  0  0  0  0  0  0  0  0  0
   19.1711   18.9234   23.9628 C   0  0  0  0  0  0  0  0  0  0  0  0
   18.4176   18.8562   24.7593 H   0  0  0  0  0  0  0  0  0  0  0  0
   19.8709   18.1055   24.1703 H   0  0  0  0  0  0  0  0  0  0  0  0
   18.4615   18.6729   22.6081 C   0  0  0  0  0  0  0  0  0  0  0  0
   18.1598   17.6179   22.5646 H   0  0  0  0  0  0  0  0  0  0  0  0
   17.5300   19.2535   22.5914 H   0  0  0  0  0  0  0  0  0  0  0  0
   19.2570   19.0241   21.3259 C   0  0  0  0  0  0  0  0  0  0  0  0
   19.3368   20.1158   21.2377 H   0  0  0  0  0  0  0  0  0  0  0  0
   20.6787   18.4161   21.2471 C   0  0  0  0  0  0  0  0  0  0  0  0
   20.7103   17.4509   21.7686 H   0  0  0  0  0  0  0  0  0  0  0  0
   20.8930   18.1845   20.1952 H   0  0  0  0  0  0  0  0  0  0  0  0
   21.8196   19.3503   21.7404 C   0  0  0  0  0  0  0  0  0  0  0  0
   21.6252   20.3955   21.4645 H   0  0  0  0  0  0  0  0  0  0  0  0
   22.7256   19.0668   21.1873 H   0  0  0  0  0  0  0  0  0  0  0  0
   22.1584   19.2336   23.2472 C   0  0  0  0  0  0  0  0  0  0  0  0
   23.2340   19.4232   23.3666 H   0  0  0  0  0  0  0  0  0  0  0  0
   22.0191   18.1983   23.5836 H   0  0  0  0  0  0  0  0  0  0  0  0
   18.5018   18.5459   20.2190 O   0  0  0  0  0  0  0  0  0  0  0  0
   18.9692   18.8409   19.4098 H   0  0  0  0  0  0  0  0  0  0  0  0
  1  2  1  0  0  0  0
  1  3  1  0  0  0  0
  1  4  1  0  0  0  0
  4  5  1  0  0  0  0
  4  6  1  0  0  0  0
  4  7  1  0  0  0  0
  7  8  1  0  0  0  0
  7  9  1  0  0  0  0
  7 10  1  0  0  0  0
 10 11  1  0  0  0  0
 10 12  1  0  0  0  0
 10 13  1  0  0  0  0
 13 14  1  0  0  0  0
 13 15  1  0  0  0  0
 15 16  1  0  0  0  0
 15 17  1  0  0  0  0
 15 18  1  0  0  0  0
 18 19  1  0  0  0  0
 18 20  1  0  0  0  0
  1 21  1  0  0  0  0
 18 21  1  0  0  0  0
 21 22  1  0  0  0  0
 21 23  1  0  0  0  0
 13 24  1  0  0  0  0
 24 25  1  0  0  0  0
M  END
> <VConfSearch Rank>
135

> <Conf_Id>
162

> <Delta U+W>
0.219

> <U+W>
11.132

> <U>
13.296

> <W>
-2.164

> <W(PB)>
-4.311

> <W(SA)>
2.148

> <Valence>
18.607

> <Coulomb>
-8.339

> <VdW>
3.028

> <VdW6>
-12.271

> <VdW12>
15.299

> <Bond>
0.423

> <Angle>
4.488

> <Pdih>
13.696

> <Idih>
0.000

> <Tether>
0.000

$$$$
VeraChem MOL file


 25 25  0  0  0  0  0  0  0  0999 V2000     
   21.0577   17.9474   24.0356 C   0  0  0  0  0  0  0  0  0  0  0  0
   20.1383   18.1231   24.6083 H   0  0  0  0  0  0  0  0  0  0  0  0
   21.6080   17.1932   24.6146 H   0  0  0  0  0  0  0  0  0  0  0  0
   20.7119   17.3326   22.6564 C   0  0  0  0  0  0  0  0  0  0  0  0
   21.5386   17.4754   21.9476 H   0  0  0  0  0  0  0  0  0  0  0  0
   20.6381   16.2461   22.8016 H   0  0  0  0  0  0  0  0  0  0  0  0
   19.3610   17.7976   22.0444 C   0  0  0  0  0  0  0  0  0  0  0  0
   18.5962   17.9257   22.8221 H   0  0  0  0  0  0  0  0  0  0  0  0
   18.9985   16.9743   21.4137 H   0  0  0  0  0  0  0  0  0  0  0  0
   19.4426   19.0538   21.1387 C   0  0  0  0  0  0  0  0  0  0  0  0
   20.4010   19.0691   20.6053 H   0  0  0  0  0  0  0  0  0  0  0  0
   18.6834   18.9502   20.3525 H   0  0  0  0  0  0  0  0  0  0  0  0
   19.1809   20.4170   21.8276 C   0  0  0  0  0  0  0  0  0  0  0  0
   18.1119   20.4668   22.0801 H   0  0  0  0  0  0  0  0  0  0  0  0
   19.9736   20.6908   23.1279 C   0  0  0  0  0  0  0  0  0  0  0  0
   19.8600   21.7508   23.3898 H   0  0  0  0  0  0  0  0  0  0  0  0
   19.4971   20.1533   23.9547 H   0  0  0  0  0  0  0  0  0  0  0  0
   21.4867   20.3563   23.0492 C   0  0  0  0  0  0  0  0  0  0  0  0
   22.0613   21.2606   23.2908 H   0  0  0  0  0  0  0  0  0  0  0  0
   21.7794   20.1058   22.0227 H   0  0  0  0  0  0  0  0  0  0  0  0
   21.9365   19.2261   24.0063 C   0  0  0  0  0  0  0  0  0  0  0  0
   21.9877   19.6286   25.0271 H   0  0  0  0  0  0  0  0  0  0  0  0
   22.9653   18.9437   23.7447 H   0  0  0  0  0  0  0  0  0  0  0  0
   19.4816   21.4431   20.8890 O   0  0  0  0  0  0  0  0  0  0  0  0
   19.3136   22.2958   21.3404 H   0  0  0  0  0  0  0  0  0  0  0  0
  1  2  1  0  0  0  0
  1  3  1  0  0  0  0
  1  4  1  0  0  0  0
  4  5  1  0  0  0  0
  4  6  1  0  0  0  0
  4  7  1  0  0  0  0
  7  8  1  0  0  0  0
  7  9  1  0  0  0  0
  7 10  1  0  0  0  0
 10 11  1  0  0  0  0
 10 12  1  0  0  0  0
 10 13  1  0  0  0  0
 13 14  1  0  0  0  0
 13 15  1  0  0  0  0
 15 16  1  0  0  0  0
 15 17  1  0  0  0  0
 15 18  1  0  0  0  0
 18 19  1  0  0  0  0
 18 20  1  0  0  0  0
  1 21  1  0  0  0  0
 18 21  1  0  0  0  0
 21 22  1  0  0  0  0
 21 23  1  0  0  0  0
 13 24  1  0  0  0  0
 24 25  1  0  0  0  0
M  END
> <VConfSearch Rank>
136

> <Conf_Id>
155

> <Delta U+W>
0.339

> <U+W>
11.252

> <U>
13.420

> <W>
-2.167

> <W(PB)>
-4.325

> <W(SA)>
2.157

> <Valence>
18.609

> <Coulomb>
-8.052

> <VdW>
2.863

> <VdW6>
-12.524

> <VdW12>
15.387

> <Bond>
0.430

> <Angle>
4.724

> <Pdih>
13.455

> <Idih>
0.000

> <Tether>
0.000

$$$$
VeraChem MOL file


 25 25  0  0  0  0  0  0  0  0999 V2000     
   21.6000   18.2280   23.8932 C   0  0  0  0  0  0  0  0  0  0  0  0
   21.4736   17.1370   23.8830 H   0  0  0  0  0  0  0  0  0  0  0  0
   22.4236   18.4202   24.5942 H   0  0  0  0  0  0  0  0  0  0  0  0
   22.0786   18.7001   22.4950 C   0  0  0  0  0  0  0  0  0  0  0  0
   22.3170   19.7676   22.5360 H   0  0  0  0  0  0  0  0  0  0  0  0
   23.0507   18.2271   22.3000 H   0  0  0  0  0  0  0  0  0  0  0  0
   21.1636   18.3836   21.2761 C   0  0  0  0  0  0  0  0  0  0  0  0
   21.4214   17.3755   20.9242 H   0  0  0  0  0  0  0  0  0  0  0  0
   21.4249   19.0588   20.4500 H   0  0  0  0  0  0  0  0  0  0  0  0
   19.6253   18.4107   21.4877 C   0  0  0  0  0  0  0  0  0  0  0  0
   19.1611   18.0282   20.5693 H   0  0  0  0  0  0  0  0  0  0  0  0
   19.3521   17.6604   22.2349 H   0  0  0  0  0  0  0  0  0  0  0  0
   18.9586   19.7767   21.8251 C   0  0  0  0  0  0  0  0  0  0  0  0
   18.0088   19.5682   22.3381 H   0  0  0  0  0  0  0  0  0  0  0  0
   19.7618   20.7739   22.6975 C   0  0  0  0  0  0  0  0  0  0  0  0
   20.6839   21.0437   22.1745 H   0  0  0  0  0  0  0  0  0  0  0  0
   19.1968   21.7149   22.7279 H   0  0  0  0  0  0  0  0  0  0  0  0
   20.0585   20.3751   24.1744 C   0  0  0  0  0  0  0  0  0  0  0  0
   19.1950   20.6853   24.7785 H   0  0  0  0  0  0  0  0  0  0  0  0
   20.9026   20.9744   24.5412 H   0  0  0  0  0  0  0  0  0  0  0  0
   20.3187   18.8790   24.4919 C   0  0  0  0  0  0  0  0  0  0  0  0
   19.4294   18.2936   24.2381 H   0  0  0  0  0  0  0  0  0  0  0  0
   20.3874   18.7795   25.5838 H   0  0  0  0  0  0  0  0  0  0  0  0
   18.6734   20.4377   20.5971 O   0  0  0  0  0  0  0  0  0  0  0  0
   18.1218   19.8256   20.0677 H   0  0  0  0  0  0  0  0  0  0  0  0
  1  2  1  0  0  0  0
  1  3  1  0  0  0  0
  1  4  1  0  0  0  0
  4  5  1  0  0  0  0
  4  6  1  0  0  0  0
  4  7  1  0  0  0  0
  7  8  1  0  0  0  0
  7  9  1  0  0  0  0
  7 10  1  0  0  0  0
 10 11  1  0  0  0  0
 10 12  1  0  0  0  0
 10 13  1  0  0  0  0
 13 14  1  0  0  0  0
 13 15  1  0  0  0  0
 15 16  1  0  0  0  0
 15 17  1  0  0  0  0
 15 18  1  0  0  0  0
 18 19  1  0  0  0  0
 18 20  1  0  0  0  0
  1 21  1  0  0  0  0
 18 21  1  0  0  0  0
 21 22  1  0  0  0  0
 21 23  1  0  0  0  0
 13 24  1  0  0  0  0
 24 25  1  0  0  0  0
M  END
> <VConfSearch Rank>
137

> <Conf_Id>
146

> <Delta U+W>
2.553

> <U+W>
13.466

> <U>
15.643

> <W>
-2.176

> <W(PB)>
-4.307

> <W(SA)>
2.131

> <Valence>
18.916

> <Coulomb>
-7.506

> <VdW>
4.232

> <VdW6>
-13.632

> <VdW12>
17.864

> <Bond>
0.735

> <Angle>
9.140

> <Pdih>
9.042

> <Idih>
0.000

> <Tether>
0.000

$$$$
VeraChem MOL file


 25 25  0  0  0  0  0  0  0  0999 V2000     
   19.4486   18.3653   24.3224 C   0  0  0  0  0  0  0  0  0  0  0  0
   18.9955   17.3652   24.2914 H   0  0  0  0  0  0  0  0  0  0  0  0
   19.3222   18.7159   25.3558 H   0  0  0  0  0  0  0  0  0  0  0  0
   18.6417   19.3208   23.4081 C   0  0  0  0  0  0  0  0  0  0  0  0
   17.6165   19.3592   23.8009 H   0  0  0  0  0  0  0  0  0  0  0  0
   19.0131   20.3472   23.5070 H   0  0  0  0  0  0  0  0  0  0  0  0
   18.5468   18.9183   21.9150 C   0  0  0  0  0  0  0  0  0  0  0  0
   17.8550   19.6185   21.4271 H   0  0  0  0  0  0  0  0  0  0  0  0
   18.0754   17.9295   21.8346 H   0  0  0  0  0  0  0  0  0  0  0  0
   19.8681   18.9138   21.1027 C   0  0  0  0  0  0  0  0  0  0  0  0
   20.4168   17.9824   21.2741 H   0  0  0  0  0  0  0  0  0  0  0  0
   19.5932   18.8783   20.0398 H   0  0  0  0  0  0  0  0  0  0  0  0
   20.7943   20.1332   21.3456 C   0  0  0  0  0  0  0  0  0  0  0  0
   20.2110   20.9592   21.7742 H   0  0  0  0  0  0  0  0  0  0  0  0
   22.0090   19.8342   22.2604 C   0  0  0  0  0  0  0  0  0  0  0  0
   22.5716   18.9867   21.8470 H   0  0  0  0  0  0  0  0  0  0  0  0
   22.6899   20.6941   22.2117 H   0  0  0  0  0  0  0  0  0  0  0  0
   21.7092   19.5679   23.7607 C   0  0  0  0  0  0  0  0  0  0  0  0
   21.1806   20.4187   24.2095 H   0  0  0  0  0  0  0  0  0  0  0  0
   22.6773   19.5268   24.2785 H   0  0  0  0  0  0  0  0  0  0  0  0
   20.9697   18.2361   24.0503 C   0  0  0  0  0  0  0  0  0  0  0  0
   21.4196   17.7831   24.9444 H   0  0  0  0  0  0  0  0  0  0  0  0
   21.1591   17.5092   23.2524 H   0  0  0  0  0  0  0  0  0  0  0  0
   21.3065   20.5569   20.0873 O   0  0  0  0  0  0  0  0  0  0  0  0
   21.8403   21.3614   20.2550 H   0  0  0  0  0  0  0  0  0  0  0  0
  1  2  1  0  0  0  0
  1  3  1  0  0  0  0
  1  4  1  0  0  0  0
  4  5  1  0  0  0  0
  4  6  1  0  0  0  0
  4  7  1  0  0  0  0
  7  8  1  0  0  0  0
  7  9  1  0  0  0  0
  7 10  1  0  0  0  0
 10 11  1  0  0  0  0
 10 12  1  0  0  0  0
 10 13  1  0  0  0  0
 13 14  1  0  0  0  0
 13 15  1  0  0  0  0
 15 16  1  0  0  0  0
 15 17  1  0  0  0  0
 15 18  1  0  0  0  0
 18 19  1  0  0  0  0
 18 20  1  0  0  0  0
  1 21  1  0  0  0  0
 18 21  1  0  0  0  0
 21 22  1  0  0  0  0
 21 23  1  0  0  0  0
 13 24  1  0  0  0  0
 24 25  1  0  0  0  0
M  END
> <VConfSearch Rank>
138

> <Conf_Id>
62

> <Delta U+W>
-1.779

> <U+W>
9.134

> <U>
11.364

> <W>
-2.230

> <W(PB)>
-4.359

> <W(SA)>
2.129

> <Valence>
16.582

> <Coulomb>
-8.150

> <VdW>
2.933

> <VdW6>
-12.531

> <VdW12>
15.464

> <Bond>
0.439

> <Angle>
5.099

> <Pdih>
11.044

> <Idih>
0.000

> <Tether>
0.000

$$$$
VeraChem MOL file


 25 25  0  0  0  0  0  0  0  0999 V2000     
   20.9094   20.9784   22.5327 C   0  0  0  0  0  0  0  0  0  0  0  0
   21.6949   20.5032   23.1312 H   0  0  0  0  0  0  0  0  0  0  0  0
   21.2132   22.0318   22.4640 H   0  0  0  0  0  0  0  0  0  0  0  0
   19.5567   20.9379   23.2866 C   0  0  0  0  0  0  0  0  0  0  0  0
   19.6914   21.4792   24.2330 H   0  0  0  0  0  0  0  0  0  0  0  0
   18.8089   21.5101   22.7211 H   0  0  0  0  0  0  0  0  0  0  0  0
   18.9747   19.5402   23.6189 C   0  0  0  0  0  0  0  0  0  0  0  0
   18.4324   19.1345   22.7574 H   0  0  0  0  0  0  0  0  0  0  0  0
   18.2018   19.6857   24.3860 H   0  0  0  0  0  0  0  0  0  0  0  0
   20.0001   18.5050   24.1540 C   0  0  0  0  0  0  0  0  0  0  0  0
   20.8642   19.0045   24.6090 H   0  0  0  0  0  0  0  0  0  0  0  0
   19.5142   17.9622   24.9753 H   0  0  0  0  0  0  0  0  0  0  0  0
   20.4659   17.4520   23.1169 C   0  0  0  0  0  0  0  0  0  0  0  0
   19.5738   16.9810   22.6795 H   0  0  0  0  0  0  0  0  0  0  0  0
   21.3527   17.9721   21.9580 C   0  0  0  0  0  0  0  0  0  0  0  0
   22.2559   18.4540   22.3514 H   0  0  0  0  0  0  0  0  0  0  0  0
   21.7116   17.0909   21.4099 H   0  0  0  0  0  0  0  0  0  0  0  0
   20.6270   18.8889   20.9370 C   0  0  0  0  0  0  0  0  0  0  0  0
   19.5487   18.6932   20.9435 H   0  0  0  0  0  0  0  0  0  0  0  0
   20.9519   18.6021   19.9275 H   0  0  0  0  0  0  0  0  0  0  0  0
   20.9063   20.4056   21.0934 C   0  0  0  0  0  0  0  0  0  0  0  0
   20.1864   20.9657   20.4813 H   0  0  0  0  0  0  0  0  0  0  0  0
   21.8924   20.6120   20.6554 H   0  0  0  0  0  0  0  0  0  0  0  0
   21.2105   16.4605   23.8133 O   0  0  0  0  0  0  0  0  0  0  0  0
   20.6170   16.0908   24.4998 H   0  0  0  0  0  0  0  0  0  0  0  0
  1  2  1  0  0  0  0
  1  3  1  0  0  0  0
  1  4  1  0  0  0  0
  4  5  1  0  0  0  0
  4  6  1  0  0  0  0
  4  7  1  0  0  0  0
  7  8  1  0  0  0  0
  7  9  1  0  0  0  0
  7 10  1  0  0  0  0
 10 11  1  0  0  0  0
 10 12  1  0  0  0  0
 10 13  1  0  0  0  0
 13 14  1  0  0  0  0
 13 15  1  0  0  0  0
 15 16  1  0  0  0  0
 15 17  1  0  0  0  0
 15 18  1  0  0  0  0
 18 19  1  0  0  0  0
 18 20  1  0  0  0  0
  1 21  1  0  0  0  0
 18 21  1  0  0  0  0
 21 22  1  0  0  0  0
 21 23  1  0  0  0  0
 13 24  1  0  0  0  0
 24 25  1  0  0  0  0
M  END
> <VConfSearch Rank>
139

> <Conf_Id>
121

> <Delta U+W>
-1.283

> <U+W>
9.630

> <U>
11.876

> <W>
-2.246

> <W(PB)>
-4.376

> <W(SA)>
2.130

> <Valence>
17.153

> <Coulomb>
-7.966

> <VdW>
2.689

> <VdW6>
-12.458

> <VdW12>
15.147

> <Bond>
0.421

> <Angle>
5.258

> <Pdih>
11.475

> <Idih>
0.000

> <Tether>
0.000

$$$$
VeraChem MOL file


 25 25  0  0  0  0  0  0  0  0999 V2000     
   19.9455   19.5598   20.8712 C   0  0  0  0  0  0  0  0  0  0  0  0
   21.0243   19.3668   20.8787 H   0  0  0  0  0  0  0  0  0  0  0  0
   19.7006   19.7201   19.8124 H   0  0  0  0  0  0  0  0  0  0  0  0
   19.6274   20.8772   21.6216 C   0  0  0  0  0  0  0  0  0  0  0  0
   20.1600   21.6869   21.1042 H   0  0  0  0  0  0  0  0  0  0  0  0
   18.5590   21.1078   21.5132 H   0  0  0  0  0  0  0  0  0  0  0  0
   20.0070   20.9446   23.1230 C   0  0  0  0  0  0  0  0  0  0  0  0
   19.2253   20.4855   23.7388 H   0  0  0  0  0  0  0  0  0  0  0  0
   19.9974   22.0044   23.4122 H   0  0  0  0  0  0  0  0  0  0  0  0
   21.3981   20.3571   23.4825 C   0  0  0  0  0  0  0  0  0  0  0  0
   22.0704   20.3715   22.6161 H   0  0  0  0  0  0  0  0  0  0  0  0
   21.8591   21.0317   24.2161 H   0  0  0  0  0  0  0  0  0  0  0  0
   21.3678   18.9469   24.1231 C   0  0  0  0  0  0  0  0  0  0  0  0
   20.6824   18.9768   24.9823 H   0  0  0  0  0  0  0  0  0  0  0  0
   20.9379   17.7796   23.1991 C   0  0  0  0  0  0  0  0  0  0  0  0
   21.5951   17.7210   22.3228 H   0  0  0  0  0  0  0  0  0  0  0  0
   21.1080   16.8460   23.7511 H   0  0  0  0  0  0  0  0  0  0  0  0
   19.4443   17.7965   22.7767 C   0  0  0  0  0  0  0  0  0  0  0  0
   18.8454   18.3569   23.5034 H   0  0  0  0  0  0  0  0  0  0  0  0
   19.0589   16.7695   22.8372 H   0  0  0  0  0  0  0  0  0  0  0  0
   19.1688   18.3035   21.3380 C   0  0  0  0  0  0  0  0  0  0  0  0
   18.0907   18.4797   21.2226 H   0  0  0  0  0  0  0  0  0  0  0  0
   19.4126   17.4888   20.6425 H   0  0  0  0  0  0  0  0  0  0  0  0
   22.6791   18.6633   24.5948 O   0  0  0  0  0  0  0  0  0  0  0  0
   22.6332   17.8007   25.0575 H   0  0  0  0  0  0  0  0  0  0  0  0
  1  2  1  0  0  0  0
  1  3  1  0  0  0  0
  1  4  1  0  0  0  0
  4  5  1  0  0  0  0
  4  6  1  0  0  0  0
  4  7  1  0  0  0  0
  7  8  1  0  0  0  0
  7  9  1  0  0  0  0
  7 10  1  0  0  0  0
 10 11  1  0  0  0  0
 10 12  1  0  0  0  0
 10 13  1  0  0  0  0
 13 14  1  0  0  0  0
 13 15  1  0  0  0  0
 15 16  1  0  0  0  0
 15 17  1  0  0  0  0
 15 18  1  0  0  0  0
 18 19  1  0  0  0  0
 18 20  1  0  0  0  0
  1 21  1  0  0  0  0
 18 21  1  0  0  0  0
 21 22  1  0  0  0  0
 21 23  1  0  0  0  0
 13 24  1  0  0  0  0
 24 25  1  0  0  0  0
M  END
> <VConfSearch Rank>
140

> <Conf_Id>
24

> <Delta U+W>
-1.236

> <U+W>
9.678

> <U>
11.876

> <W>
-2.199

> <W(PB)>
-4.335

> <W(SA)>
2.137

> <Valence>
17.153

> <Coulomb>
-7.966

> <VdW>
2.689

> <VdW6>
-12.458

> <VdW12>
15.147

> <Bond>
0.421

> <Angle>
5.258

> <Pdih>
11.475

> <Idih>
0.000

> <Tether>
0.000

$$$$
VeraChem MOL file


 25 25  0  0  0  0  0  0  0  0999 V2000     
   21.8002   20.5034   23.3647 C   0  0  0  0  0  0  0  0  0  0  0  0
   22.0409   20.6169   24.4305 H   0  0  0  0  0  0  0  0  0  0  0  0
   22.4431   21.2210   22.8369 H   0  0  0  0  0  0  0  0  0  0  0  0
   22.2033   19.0760   22.9085 C   0  0  0  0  0  0  0  0  0  0  0  0
   22.2879   19.0291   21.8153 H   0  0  0  0  0  0  0  0  0  0  0  0
   23.2238   18.8996   23.2752 H   0  0  0  0  0  0  0  0  0  0  0  0
   21.3076   17.9206   23.4199 C   0  0  0  0  0  0  0  0  0  0  0  0
   20.9343   18.1345   24.4305 H   0  0  0  0  0  0  0  0  0  0  0  0
   21.9552   17.0398   23.5294 H   0  0  0  0  0  0  0  0  0  0  0  0
   20.1483   17.5123   22.4675 C   0  0  0  0  0  0  0  0  0  0  0  0
   20.4602   17.5877   21.4179 H   0  0  0  0  0  0  0  0  0  0  0  0
   19.9604   16.4442   22.6428 H   0  0  0  0  0  0  0  0  0  0  0  0
   18.8174   18.2700   22.6946 C   0  0  0  0  0  0  0  0  0  0  0  0
   18.7607   18.5667   23.7502 H   0  0  0  0  0  0  0  0  0  0  0  0
   18.6021   19.5170   21.7999 C   0  0  0  0  0  0  0  0  0  0  0  0
   18.3958   19.1956   20.7705 H   0  0  0  0  0  0  0  0  0  0  0  0
   17.6907   20.0216   22.1468 H   0  0  0  0  0  0  0  0  0  0  0  0
   19.7503   20.5565   21.7608 C   0  0  0  0  0  0  0  0  0  0  0  0
   19.3657   21.4712   21.2894 H   0  0  0  0  0  0  0  0  0  0  0  0
   20.5424   20.2074   21.0881 H   0  0  0  0  0  0  0  0  0  0  0  0
   20.3234   20.9186   23.1543 C   0  0  0  0  0  0  0  0  0  0  0  0
   19.7053   20.4996   23.9567 H   0  0  0  0  0  0  0  0  0  0  0  0
   20.2548   22.0066   23.2902 H   0  0  0  0  0  0  0  0  0  0  0  0
   17.7434   17.3749   22.4352 O   0  0  0  0  0  0  0  0  0  0  0  0
   17.8256   17.1082   21.4966 H   0  0  0  0  0  0  0  0  0  0  0  0
  1  2  1  0  0  0  0
  1  3  1  0  0  0  0
  1  4  1  0  0  0  0
  4  5  1  0  0  0  0
  4  6  1  0  0  0  0
  4  7  1  0  0  0  0
  7  8  1  0  0  0  0
  7  9  1  0  0  0  0
  7 10  1  0  0  0  0
 10 11  1  0  0  0  0
 10 12  1  0  0  0  0
 10 13  1  0  0  0  0
 13 14  1  0  0  0  0
 13 15  1  0  0  0  0
 15 16  1  0  0  0  0
 15 17  1  0  0  0  0
 15 18  1  0  0  0  0
 18 19  1  0  0  0  0
 18 20  1  0  0  0  0
  1 21  1  0  0  0  0
 18 21  1  0  0  0  0
 21 22  1  0  0  0  0
 21 23  1  0  0  0  0
 13 24  1  0  0  0  0
 24 25  1  0  0  0  0
M  END
> <VConfSearch Rank>
141

> <Conf_Id>
167

> <Delta U+W>
0.388

> <U+W>
11.301

> <U>
13.202

> <W>
-1.901

> <W(PB)>
-4.065

> <W(SA)>
2.163

> <Valence>
18.957

> <Coulomb>
-8.753

> <VdW>
2.998

> <VdW6>
-12.294

> <VdW12>
15.292

> <Bond>
0.419

> <Angle>
4.543

> <Pdih>
13.996

> <Idih>
0.000

> <Tether>
0.000

$$$$
VeraChem MOL file


 25 25  0  0  0  0  0  0  0  0999 V2000     
   21.6111   20.5833   21.7916 C   0  0  0  0  0  0  0  0  0  0  0  0
   21.5111   21.6641   21.9603 H   0  0  0  0  0  0  0  0  0  0  0  0
   22.4964   20.4644   21.1521 H   0  0  0  0  0  0  0  0  0  0  0  0
   20.3804   20.0841   20.9909 C   0  0  0  0  0  0  0  0  0  0  0  0
   19.4632   20.5609   21.3546 H   0  0  0  0  0  0  0  0  0  0  0  0
   20.4921   20.4568   19.9634 H   0  0  0  0  0  0  0  0  0  0  0  0
   20.2054   18.5445   20.9280 C   0  0  0  0  0  0  0  0  0  0  0  0
   21.1673   18.0323   21.0588 H   0  0  0  0  0  0  0  0  0  0  0  0
   19.8814   18.2904   19.9095 H   0  0  0  0  0  0  0  0  0  0  0  0
   19.1385   17.9693   21.8992 C   0  0  0  0  0  0  0  0  0  0  0  0
   18.1767   18.4679   21.7216 H   0  0  0  0  0  0  0  0  0  0  0  0
   18.9804   16.9166   21.6300 H   0  0  0  0  0  0  0  0  0  0  0  0
   19.4684   18.0223   23.4118 C   0  0  0  0  0  0  0  0  0  0  0  0
   20.4461   17.5522   23.5829 H   0  0  0  0  0  0  0  0  0  0  0  0
   19.4612   19.4522   24.0116 C   0  0  0  0  0  0  0  0  0  0  0  0
   18.8618   20.1204   23.3850 H   0  0  0  0  0  0  0  0  0  0  0  0
   18.9372   19.4420   24.9767 H   0  0  0  0  0  0  0  0  0  0  0  0
   20.8636   20.0658   24.2598 C   0  0  0  0  0  0  0  0  0  0  0  0
   21.2719   19.6158   25.1751 H   0  0  0  0  0  0  0  0  0  0  0  0
   20.7506   21.1361   24.4790 H   0  0  0  0  0  0  0  0  0  0  0  0
   21.9174   19.8818   23.1388 C   0  0  0  0  0  0  0  0  0  0  0  0
   22.1248   18.8181   22.9755 H   0  0  0  0  0  0  0  0  0  0  0  0
   22.8650   20.2935   23.5121 H   0  0  0  0  0  0  0  0  0  0  0  0
   18.4818   17.2513   24.0873 O   0  0  0  0  0  0  0  0  0  0  0  0
   18.7382   17.2339   25.0331 H   0  0  0  0  0  0  0  0  0  0  0  0
  1  2  1  0  0  0  0
  1  3  1  0  0  0  0
  1  4  1  0  0  0  0
  4  5  1  0  0  0  0
  4  6  1  0  0  0  0
  4  7  1  0  0  0  0
  7  8  1  0  0  0  0
  7  9  1  0  0  0  0
  7 10  1  0  0  0  0
 10 11  1  0  0  0  0
 10 12  1  0  0  0  0
 10 13  1  0  0  0  0
 13 14  1  0  0  0  0
 13 15  1  0  0  0  0
 15 16  1  0  0  0  0
 15 17  1  0  0  0  0
 15 18  1  0  0  0  0
 18 19  1  0  0  0  0
 18 20  1  0  0  0  0
  1 21  1  0  0  0  0
 18 21  1  0  0  0  0
 21 22  1  0  0  0  0
 21 23  1  0  0  0  0
 13 24  1  0  0  0  0
 24 25  1  0  0  0  0
M  END
> <VConfSearch Rank>
142

> <Conf_Id>
60

> <Delta U+W>
-1.838

> <U+W>
9.075

> <U>
11.150

> <W>
-2.074

> <W(PB)>
-4.196

> <W(SA)>
2.121

> <Valence>
16.582

> <Coulomb>
-8.361

> <VdW>
2.928

> <VdW6>
-12.539

> <VdW12>
15.467

> <Bond>
0.441

> <Angle>
5.093

> <Pdih>
11.049

> <Idih>
0.000

> <Tether>
0.000

$$$$
VeraChem MOL file


 25 25  0  0  0  0  0  0  0  0999 V2000     
   20.7521   19.4603   24.6552 C   0  0  0  0  0  0  0  0  0  0  0  0
   21.7728   19.3383   25.0422 H   0  0  0  0  0  0  0  0  0  0  0  0
   20.1310   19.6994   25.5292 H   0  0  0  0  0  0  0  0  0  0  0  0
   20.2539   18.1058   24.0915 C   0  0  0  0  0  0  0  0  0  0  0  0
   20.2579   17.3864   24.9218 H   0  0  0  0  0  0  0  0  0  0  0  0
   19.2009   18.1802   23.7970 H   0  0  0  0  0  0  0  0  0  0  0  0
   21.0976   17.4904   22.9469 C   0  0  0  0  0  0  0  0  0  0  0  0
   20.6925   16.4909   22.7374 H   0  0  0  0  0  0  0  0  0  0  0  0
   22.1246   17.3271   23.3008 H   0  0  0  0  0  0  0  0  0  0  0  0
   21.1450   18.2752   21.6103 C   0  0  0  0  0  0  0  0  0  0  0  0
   21.8806   19.0835   21.6724 H   0  0  0  0  0  0  0  0  0  0  0  0
   21.5519   17.5952   20.8501 H   0  0  0  0  0  0  0  0  0  0  0  0
   19.7801   18.8321   21.1287 C   0  0  0  0  0  0  0  0  0  0  0  0
   18.9624   18.2919   21.6244 H   0  0  0  0  0  0  0  0  0  0  0  0
   19.5988   20.3523   21.3639 C   0  0  0  0  0  0  0  0  0  0  0  0
   20.4331   20.8920   20.8970 H   0  0  0  0  0  0  0  0  0  0  0  0
   18.6997   20.6684   20.8185 H   0  0  0  0  0  0  0  0  0  0  0  0
   19.4405   20.8204   22.8363 C   0  0  0  0  0  0  0  0  0  0  0  0
   18.5855   20.3238   23.3129 H   0  0  0  0  0  0  0  0  0  0  0  0
   19.1733   21.8856   22.8067 H   0  0  0  0  0  0  0  0  0  0  0  0
   20.7188   20.6846   23.7038 C   0  0  0  0  0  0  0  0  0  0  0  0
   20.8019   21.5824   24.3315 H   0  0  0  0  0  0  0  0  0  0  0  0
   21.6153   20.7094   23.0741 H   0  0  0  0  0  0  0  0  0  0  0  0
   19.6760   18.6050   19.7281 O   0  0  0  0  0  0  0  0  0  0  0  0
   19.7226   17.6349   19.5968 H   0  0  0  0  0  0  0  0  0  0  0  0
  1  2  1  0  0  0  0
  1  3  1  0  0  0  0
  1  4  1  0  0  0  0
  4  5  1  0  0  0  0
  4  6  1  0  0  0  0
  4  7  1  0  0  0  0
  7  8  1  0  0  0  0
  7  9  1  0  0  0  0
  7 10  1  0  0  0  0
 10 11  1  0  0  0  0
 10 12  1  0  0  0  0
 10 13  1  0  0  0  0
 13 14  1  0  0  0  0
 13 15  1  0  0  0  0
 15 16  1  0  0  0  0
 15 17  1  0  0  0  0
 15 18  1  0  0  0  0
 18 19  1  0  0  0  0
 18 20  1  0  0  0  0
  1 21  1  0  0  0  0
 18 21  1  0  0  0  0
 21 22  1  0  0  0  0
 21 23  1  0  0  0  0
 13 24  1  0  0  0  0
 24 25  1  0  0  0  0
M  END
> <VConfSearch Rank>
143

> <Conf_Id>
129

> <Delta U+W>
-1.846

> <U+W>
9.067

> <U>
11.150

> <W>
-2.083

> <W(PB)>
-4.217

> <W(SA)>
2.134

> <Valence>
16.583

> <Coulomb>
-8.361

> <VdW>
2.928

> <VdW6>
-12.539

> <VdW12>
15.467

> <Bond>
0.441

> <Angle>
5.093

> <Pdih>
11.049

> <Idih>
0.000

> <Tether>
0.000

$$$$
VeraChem MOL file


 25 25  0  0  0  0  0  0  0  0999 V2000     
   20.5975   20.9383   21.5630 C   0  0  0  0  0  0  0  0  0  0  0  0
   19.7795   21.4291   21.0185 H   0  0  0  0  0  0  0  0  0  0  0  0
   21.4867   21.5577   21.3825 H   0  0  0  0  0  0  0  0  0  0  0  0
   20.8678   19.5478   20.9355 C   0  0  0  0  0  0  0  0  0  0  0  0
   21.1591   19.7137   19.8894 H   0  0  0  0  0  0  0  0  0  0  0  0
   21.7483   19.0860   21.3966 H   0  0  0  0  0  0  0  0  0  0  0  0
   19.6755   18.5585   20.9288 C   0  0  0  0  0  0  0  0  0  0  0  0
   19.9835   17.6739   20.3546 H   0  0  0  0  0  0  0  0  0  0  0  0
   18.8401   19.0006   20.3692 H   0  0  0  0  0  0  0  0  0  0  0  0
   19.1572   18.0723   22.3073 C   0  0  0  0  0  0  0  0  0  0  0  0
   18.4833   18.8177   22.7417 H   0  0  0  0  0  0  0  0  0  0  0  0
   18.5190   17.1984   22.1186 H   0  0  0  0  0  0  0  0  0  0  0  0
   20.2618   17.6881   23.3256 C   0  0  0  0  0  0  0  0  0  0  0  0
   21.2011   17.4858   22.7939 H   0  0  0  0  0  0  0  0  0  0  0  0
   20.5149   18.7529   24.4224 C   0  0  0  0  0  0  0  0  0  0  0  0
   19.5715   18.9800   24.9360 H   0  0  0  0  0  0  0  0  0  0  0  0
   21.1664   18.3006   25.1821 H   0  0  0  0  0  0  0  0  0  0  0  0
   21.1815   20.0804   23.9703 C   0  0  0  0  0  0  0  0  0  0  0  0
   22.1495   19.8866   23.4906 H   0  0  0  0  0  0  0  0  0  0  0  0
   21.4214   20.6453   24.8815 H   0  0  0  0  0  0  0  0  0  0  0  0
   20.2896   20.9860   23.0820 C   0  0  0  0  0  0  0  0  0  0  0  0
   20.4290   22.0263   23.4065 H   0  0  0  0  0  0  0  0  0  0  0  0
   19.2289   20.7828   23.2676 H   0  0  0  0  0  0  0  0  0  0  0  0
   19.8635   16.4916   23.9827 O   0  0  0  0  0  0  0  0  0  0  0  0
   19.0288   16.6981   24.4514 H   0  0  0  0  0  0  0  0  0  0  0  0
  1  2  1  0  0  0  0
  1  3  1  0  0  0  0
  1  4  1  0  0  0  0
  4  5  1  0  0  0  0
  4  6  1  0  0  0  0
  4  7  1  0  0  0  0
  7  8  1  0  0  0  0
  7  9  1  0  0  0  0
  7 10  1  0  0  0  0
 10 11  1  0  0  0  0
 10 12  1  0  0  0  0
 10 13  1  0  0  0  0
 13 14  1  0  0  0  0
 13 15  1  0  0  0  0
 15 16  1  0  0  0  0
 15 17  1  0  0  0  0
 15 18  1  0  0  0  0
 18 19  1  0  0  0  0
 18 20  1  0  0  0  0
  1 21  1  0  0  0  0
 18 21  1  0  0  0  0
 21 22  1  0  0  0  0
 21 23  1  0  0  0  0
 13 24  1  0  0  0  0
 24 25  1  0  0  0  0
M  END
> <VConfSearch Rank>
144

> <Conf_Id>
140

> <Delta U+W>
-1.702

> <U+W>
9.211

> <U>
11.181

> <W>
-1.969

> <W(PB)>
-4.093

> <W(SA)>
2.124

> <Valence>
16.954

> <Coulomb>
-8.661

> <VdW>
2.887

> <VdW6>
-12.561

> <VdW12>
15.448

> <Bond>
0.433

> <Angle>
5.120

> <Pdih>
11.401

> <Idih>
0.000

> <Tether>
0.000

$$$$
VeraChem MOL file


 25 25  0  0  0  0  0  0  0  0999 V2000     
   18.5908   19.2117   21.4649 C   0  0  0  0  0  0  0  0  0  0  0  0
   18.6358   18.9150   20.4083 H   0  0  0  0  0  0  0  0  0  0  0  0
   17.5445   19.4913   21.6496 H   0  0  0  0  0  0  0  0  0  0  0  0
   19.4608   20.4790   21.6685 C   0  0  0  0  0  0  0  0  0  0  0  0
   20.3937   20.4026   21.0985 H   0  0  0  0  0  0  0  0  0  0  0  0
   18.9241   21.3166   21.2023 H   0  0  0  0  0  0  0  0  0  0  0  0
   19.7531   20.8554   23.1441 C   0  0  0  0  0  0  0  0  0  0  0  0
   18.9758   20.4642   23.8131 H   0  0  0  0  0  0  0  0  0  0  0  0
   19.6787   21.9483   23.2270 H   0  0  0  0  0  0  0  0  0  0  0  0
   21.1664   20.4578   23.6495 C   0  0  0  0  0  0  0  0  0  0  0  0
   21.9231   20.8980   22.9870 H   0  0  0  0  0  0  0  0  0  0  0  0
   21.3119   20.9362   24.6274 H   0  0  0  0  0  0  0  0  0  0  0  0
   21.4481   18.9437   23.8201 C   0  0  0  0  0  0  0  0  0  0  0  0
   20.6721   18.5009   24.4586 H   0  0  0  0  0  0  0  0  0  0  0  0
   21.5386   18.1581   22.4863 C   0  0  0  0  0  0  0  0  0  0  0  0
   21.7809   18.8365   21.6620 H   0  0  0  0  0  0  0  0  0  0  0  0
   22.3882   17.4633   22.5322 H   0  0  0  0  0  0  0  0  0  0  0  0
   20.2851   17.3152   22.1345 C   0  0  0  0  0  0  0  0  0  0  0  0
   20.3118   16.4024   22.7453 H   0  0  0  0  0  0  0  0  0  0  0  0
   20.3629   16.9782   21.0920 H   0  0  0  0  0  0  0  0  0  0  0  0
   18.9047   17.9831   22.3550 C   0  0  0  0  0  0  0  0  0  0  0  0
   18.7625   18.2322   23.4128 H   0  0  0  0  0  0  0  0  0  0  0  0
   18.1386   17.2244   22.1448 H   0  0  0  0  0  0  0  0  0  0  0  0
   22.6940   18.8195   24.4942 O   0  0  0  0  0  0  0  0  0  0  0  0
   23.3668   19.2239   23.9088 H   0  0  0  0  0  0  0  0  0  0  0  0
  1  2  1  0  0  0  0
  1  3  1  0  0  0  0
  1  4  1  0  0  0  0
  4  5  1  0  0  0  0
  4  6  1  0  0  0  0
  4  7  1  0  0  0  0
  7  8  1  0  0  0  0
  7  9  1  0  0  0  0
  7 10  1  0  0  0  0
 10 11  1  0  0  0  0
 10 12  1  0  0  0  0
 10 13  1  0  0  0  0
 13 14  1  0  0  0  0
 13 15  1  0  0  0  0
 15 16  1  0  0  0  0
 15 17  1  0  0  0  0
 15 18  1  0  0  0  0
 18 19  1  0  0  0  0
 18 20  1  0  0  0  0
  1 21  1  0  0  0  0
 18 21  1  0  0  0  0
 21 22  1  0  0  0  0
 21 23  1  0  0  0  0
 13 24  1  0  0  0  0
 24 25  1  0  0  0  0
M  END
> <VConfSearch Rank>
145

> <Conf_Id>
68

> <Delta U+W>
-1.765

> <U+W>
9.148

> <U>
11.181

> <W>
-2.032

> <W(PB)>
-4.147

> <W(SA)>
2.114

> <Valence>
16.955

> <Coulomb>
-8.661

> <VdW>
2.887

> <VdW6>
-12.561

> <VdW12>
15.448

> <Bond>
0.433

> <Angle>
5.121

> <Pdih>
11.402

> <Idih>
0.000

> <Tether>
0.000

$$$$
VeraChem MOL file


 25 25  0  0  0  0  0  0  0  0999 V2000     
   21.8177   20.1085   22.2616 C   0  0  0  0  0  0  0  0  0  0  0  0
   22.7818   20.6206   22.1380 H   0  0  0  0  0  0  0  0  0  0  0  0
   21.2016   20.4880   21.4385 H   0  0  0  0  0  0  0  0  0  0  0  0
   21.2207   20.5306   23.6293 C   0  0  0  0  0  0  0  0  0  0  0  0
   21.4715   19.8033   24.4120 H   0  0  0  0  0  0  0  0  0  0  0  0
   21.7191   21.4611   23.9339 H   0  0  0  0  0  0  0  0  0  0  0  0
   19.6964   20.8185   23.6134 C   0  0  0  0  0  0  0  0  0  0  0  0
   19.4779   21.5834   22.8556 H   0  0  0  0  0  0  0  0  0  0  0  0
   19.4332   21.2755   24.5771 H   0  0  0  0  0  0  0  0  0  0  0  0
   18.7596   19.6002   23.3972 C   0  0  0  0  0  0  0  0  0  0  0  0
   18.9425   18.8375   24.1635 H   0  0  0  0  0  0  0  0  0  0  0  0
   17.7354   19.9528   23.5800 H   0  0  0  0  0  0  0  0  0  0  0  0
   18.8240   18.9841   21.9755 C   0  0  0  0  0  0  0  0  0  0  0  0
   19.2508   19.7213   21.2856 H   0  0  0  0  0  0  0  0  0  0  0  0
   19.6323   17.6671   21.8752 C   0  0  0  0  0  0  0  0  0  0  0  0
   19.0164   16.8491   22.2717 H   0  0  0  0  0  0  0  0  0  0  0  0
   19.7897   17.4372   20.8134 H   0  0  0  0  0  0  0  0  0  0  0  0
   20.9970   17.6162   22.6095 C   0  0  0  0  0  0  0  0  0  0  0  0
   21.3908   16.5968   22.4973 H   0  0  0  0  0  0  0  0  0  0  0  0
   20.8563   17.7408   23.6893 H   0  0  0  0  0  0  0  0  0  0  0  0
   22.0851   18.5903   22.0925 C   0  0  0  0  0  0  0  0  0  0  0  0
   22.2879   18.3799   21.0337 H   0  0  0  0  0  0  0  0  0  0  0  0
   23.0164   18.3536   22.6250 H   0  0  0  0  0  0  0  0  0  0  0  0
   17.4983   18.7059   21.5420 O   0  0  0  0  0  0  0  0  0  0  0  0
   17.1281   18.0609   22.1789 H   0  0  0  0  0  0  0  0  0  0  0  0
  1  2  1  0  0  0  0
  1  3  1  0  0  0  0
  1  4  1  0  0  0  0
  4  5  1  0  0  0  0
  4  6  1  0  0  0  0
  4  7  1  0  0  0  0
  7  8  1  0  0  0  0
  7  9  1  0  0  0  0
  7 10  1  0  0  0  0
 10 11  1  0  0  0  0
 10 12  1  0  0  0  0
 10 13  1  0  0  0  0
 13 14  1  0  0  0  0
 13 15  1  0  0  0  0
 15 16  1  0  0  0  0
 15 17  1  0  0  0  0
 15 18  1  0  0  0  0
 18 19  1  0  0  0  0
 18 20  1  0  0  0  0
  1 21  1  0  0  0  0
 18 21  1  0  0  0  0
 21 22  1  0  0  0  0
 21 23  1  0  0  0  0
 13 24  1  0  0  0  0
 24 25  1  0  0  0  0
M  END
> <VConfSearch Rank>
146

> <Conf_Id>
165

> <Delta U+W>
-1.999

> <U+W>
8.915

> <U>
10.935

> <W>
-2.020

> <W(PB)>
-4.135

> <W(SA)>
2.115

> <Valence>
16.757

> <Coulomb>
-8.731

> <VdW>
2.908

> <VdW6>
-12.597

> <VdW12>
15.506

> <Bond>
0.434

> <Angle>
5.069

> <Pdih>
11.254

> <Idih>
0.000

> <Tether>
0.000

$$$$
VeraChem MOL file


 25 25  0  0  0  0  0  0  0  0999 V2000     
   20.2590   18.3262   24.2837 C   0  0  0  0  0  0  0  0  0  0  0  0
   20.3170   17.8355   25.2650 H   0  0  0  0  0  0  0  0  0  0  0  0
   19.1890   18.3338   24.0473 H   0  0  0  0  0  0  0  0  0  0  0  0
   21.0365   17.4323   23.2827 C   0  0  0  0  0  0  0  0  0  0  0  0
   21.9524   17.0891   23.7831 H   0  0  0  0  0  0  0  0  0  0  0  0
   20.4500   16.5249   23.0848 H   0  0  0  0  0  0  0  0  0  0  0  0
   21.4586   18.0740   21.9372 C   0  0  0  0  0  0  0  0  0  0  0  0
   22.0754   17.3386   21.4030 H   0  0  0  0  0  0  0  0  0  0  0  0
   22.1305   18.9217   22.1138 H   0  0  0  0  0  0  0  0  0  0  0  0
   20.3047   18.4859   20.9870 C   0  0  0  0  0  0  0  0  0  0  0  0
   20.7586   18.8184   20.0437 H   0  0  0  0  0  0  0  0  0  0  0  0
   19.7131   17.5948   20.7407 H   0  0  0  0  0  0  0  0  0  0  0  0
   19.3454   19.5969   21.4801 C   0  0  0  0  0  0  0  0  0  0  0  0
   18.6376   19.1702   22.2004 H   0  0  0  0  0  0  0  0  0  0  0  0
   20.0489   20.8173   22.1283 C   0  0  0  0  0  0  0  0  0  0  0  0
   21.0885   20.8944   21.7887 H   0  0  0  0  0  0  0  0  0  0  0  0
   19.5612   21.7320   21.7648 H   0  0  0  0  0  0  0  0  0  0  0  0
   19.9791   20.8538   23.6783 C   0  0  0  0  0  0  0  0  0  0  0  0
   18.9282   20.8073   23.9953 H   0  0  0  0  0  0  0  0  0  0  0  0
   20.3420   21.8375   24.0059 H   0  0  0  0  0  0  0  0  0  0  0  0
   20.7939   19.7738   24.4377 C   0  0  0  0  0  0  0  0  0  0  0  0
   20.7490   20.0305   25.5050 H   0  0  0  0  0  0  0  0  0  0  0  0
   21.8578   19.8325   24.1747 H   0  0  0  0  0  0  0  0  0  0  0  0
   18.6026   20.0492   20.3536 O   0  0  0  0  0  0  0  0  0  0  0  0
   18.1345   19.2679   19.9920 H   0  0  0  0  0  0  0  0  0  0  0  0
  1  2  1  0  0  0  0
  1  3  1  0  0  0  0
  1  4  1  0  0  0  0
  4  5  1  0  0  0  0
  4  6  1  0  0  0  0
  4  7  1  0  0  0  0
  7  8  1  0  0  0  0
  7  9  1  0  0  0  0
  7 10  1  0  0  0  0
 10 11  1  0  0  0  0
 10 12  1  0  0  0  0
 10 13  1  0  0  0  0
 13 14  1  0  0  0  0
 13 15  1  0  0  0  0
 15 16  1  0  0  0  0
 15 17  1  0  0  0  0
 15 18  1  0  0  0  0
 18 19  1  0  0  0  0
 18 20  1  0  0  0  0
  1 21  1  0  0  0  0
 18 21  1  0  0  0  0
 21 22  1  0  0  0  0
 21 23  1  0  0  0  0
 13 24  1  0  0  0  0
 24 25  1  0  0  0  0
M  END
> <VConfSearch Rank>
147

> <Conf_Id>
133

> <Delta U+W>
-2.139

> <U+W>
8.774

> <U>
10.905

> <W>
-2.131

> <W(PB)>
-4.281

> <W(SA)>
2.150

> <Valence>
16.378

> <Coulomb>
-8.448

> <VdW>
2.976

> <VdW6>
-12.570

> <VdW12>
15.545

> <Bond>
0.439

> <Angle>
5.049

> <Pdih>
10.889

> <Idih>
0.000

> <Tether>
0.000

$$$$
VeraChem MOL file


 25 25  0  0  0  0  0  0  0  0999 V2000     
   22.0347   19.6165   23.0760 C   0  0  0  0  0  0  0  0  0  0  0  0
   23.1014   19.7623   23.2953 H   0  0  0  0  0  0  0  0  0  0  0  0
   21.5448   20.4902   23.5203 H   0  0  0  0  0  0  0  0  0  0  0  0
   21.5726   18.3148   23.7813 C   0  0  0  0  0  0  0  0  0  0  0  0
   21.6192   17.4569   23.0983 H   0  0  0  0  0  0  0  0  0  0  0  0
   22.3022   18.0906   24.5715 H   0  0  0  0  0  0  0  0  0  0  0  0
   20.1811   18.4011   24.4619 C   0  0  0  0  0  0  0  0  0  0  0  0
   20.1760   19.2359   25.1761 H   0  0  0  0  0  0  0  0  0  0  0  0
   20.0490   17.4945   25.0680 H   0  0  0  0  0  0  0  0  0  0  0  0
   18.9521   18.5235   23.5219 C   0  0  0  0  0  0  0  0  0  0  0  0
   18.9202   17.6818   22.8200 H   0  0  0  0  0  0  0  0  0  0  0  0
   18.0576   18.4067   24.1486 H   0  0  0  0  0  0  0  0  0  0  0  0
   18.8491   19.8748   22.7685 C   0  0  0  0  0  0  0  0  0  0  0  0
   19.4603   20.6206   23.2901 H   0  0  0  0  0  0  0  0  0  0  0  0
   19.2725   19.8178   21.2801 C   0  0  0  0  0  0  0  0  0  0  0  0
   18.4572   19.3531   20.7092 H   0  0  0  0  0  0  0  0  0  0  0  0
   19.3613   20.8439   20.9006 H   0  0  0  0  0  0  0  0  0  0  0  0
   20.5738   19.0450   20.9435 C   0  0  0  0  0  0  0  0  0  0  0  0
   20.6793   19.0428   19.8501 H   0  0  0  0  0  0  0  0  0  0  0  0
   20.4720   17.9875   21.2133 H   0  0  0  0  0  0  0  0  0  0  0  0
   21.8832   19.6271   21.5325 C   0  0  0  0  0  0  0  0  0  0  0  0
   22.0211   20.6540   21.1677 H   0  0  0  0  0  0  0  0  0  0  0  0
   22.7170   19.0490   21.1111 H   0  0  0  0  0  0  0  0  0  0  0  0
   17.4958   20.3132   22.8099 O   0  0  0  0  0  0  0  0  0  0  0  0
   17.4686   21.1873   22.3675 H   0  0  0  0  0  0  0  0  0  0  0  0
  1  2  1  0  0  0  0
  1  3  1  0  0  0  0
  1  4  1  0  0  0  0
  4  5  1  0  0  0  0
  4  6  1  0  0  0  0
  4  7  1  0  0  0  0
  7  8  1  0  0  0  0
  7  9  1  0  0  0  0
  7 10  1  0  0  0  0
 10 11  1  0  0  0  0
 10 12  1  0  0  0  0
 10 13  1  0  0  0  0
 13 14  1  0  0  0  0
 13 15  1  0  0  0  0
 15 16  1  0  0  0  0
 15 17  1  0  0  0  0
 15 18  1  0  0  0  0
 18 19  1  0  0  0  0
 18 20  1  0  0  0  0
  1 21  1  0  0  0  0
 18 21  1  0  0  0  0
 21 22  1  0  0  0  0
 21 23  1  0  0  0  0
 13 24  1  0  0  0  0
 24 25  1  0  0  0  0
M  END
> <VConfSearch Rank>
148

> <Conf_Id>
95

> <Delta U+W>
-2.190

> <U+W>
8.723

> <U>
10.905

> <W>
-2.182

> <W(PB)>
-4.296

> <W(SA)>
2.114

> <Valence>
16.377

> <Coulomb>
-8.448

> <VdW>
2.976

> <VdW6>
-12.570

> <VdW12>
15.546

> <Bond>
0.439

> <Angle>
5.049

> <Pdih>
10.889

> <Idih>
0.000

> <Tether>
0.000

$$$$
VeraChem MOL file


 25 25  0  0  0  0  0  0  0  0999 V2000     
   20.8522   20.4043   23.8877 C   0  0  0  0  0  0  0  0  0  0  0  0
   21.2960   21.0904   24.6219 H   0  0  0  0  0  0  0  0  0  0  0  0
   19.7758   20.5226   24.0479 H   0  0  0  0  0  0  0  0  0  0  0  0
   21.3175   18.9678   24.2677 C   0  0  0  0  0  0  0  0  0  0  0  0
   22.3394   19.0483   24.6631 H   0  0  0  0  0  0  0  0  0  0  0  0
   20.7078   18.6059   25.1065 H   0  0  0  0  0  0  0  0  0  0  0  0
   21.3489   17.8886   23.1538 C   0  0  0  0  0  0  0  0  0  0  0  0
   21.8110   16.9866   23.5779 H   0  0  0  0  0  0  0  0  0  0  0  0
   22.0534   18.1944   22.3740 H   0  0  0  0  0  0  0  0  0  0  0  0
   19.9867   17.4579   22.5331 C   0  0  0  0  0  0  0  0  0  0  0  0
   20.1728   16.9965   21.5544 H   0  0  0  0  0  0  0  0  0  0  0  0
   19.5838   16.6571   23.1670 H   0  0  0  0  0  0  0  0  0  0  0  0
   18.8765   18.5290   22.3852 C   0  0  0  0  0  0  0  0  0  0  0  0
   18.6722   18.9451   23.3772 H   0  0  0  0  0  0  0  0  0  0  0  0
   19.1432   19.6865   21.3804 C   0  0  0  0  0  0  0  0  0  0  0  0
   18.8301   19.3476   20.3837 H   0  0  0  0  0  0  0  0  0  0  0  0
   18.4760   20.5209   21.6312 H   0  0  0  0  0  0  0  0  0  0  0  0
   20.5925   20.2251   21.2384 C   0  0  0  0  0  0  0  0  0  0  0  0
   20.5968   20.9530   20.4157 H   0  0  0  0  0  0  0  0  0  0  0  0
   21.2422   19.4233   20.8737 H   0  0  0  0  0  0  0  0  0  0  0  0
   21.2230   20.9292   22.4755 C   0  0  0  0  0  0  0  0  0  0  0  0
   20.9259   21.9862   22.4388 H   0  0  0  0  0  0  0  0  0  0  0  0
   22.3159   20.9289   22.3656 H   0  0  0  0  0  0  0  0  0  0  0  0
   17.6956   17.8608   21.9565 O   0  0  0  0  0  0  0  0  0  0  0  0
   17.4980   17.1761   22.6290 H   0  0  0  0  0  0  0  0  0  0  0  0
  1  2  1  0  0  0  0
  1  3  1  0  0  0  0
  1  4  1  0  0  0  0
  4  5  1  0  0  0  0
  4  6  1  0  0  0  0
  4  7  1  0  0  0  0
  7  8  1  0  0  0  0
  7  9  1  0  0  0  0
  7 10  1  0  0  0  0
 10 11  1  0  0  0  0
 10 12  1  0  0  0  0
 10 13  1  0  0  0  0
 13 14  1  0  0  0  0
 13 15  1  0  0  0  0
 15 16  1  0  0  0  0
 15 17  1  0  0  0  0
 15 18  1  0  0  0  0
 18 19  1  0  0  0  0
 18 20  1  0  0  0  0
  1 21  1  0  0  0  0
 18 21  1  0  0  0  0
 21 22  1  0  0  0  0
 21 23  1  0  0  0  0
 13 24  1  0  0  0  0
 24 25  1  0  0  0  0
M  END
> <VConfSearch Rank>
149

> <Conf_Id>
161

> <Delta U+W>
2.120

> <U+W>
13.033

> <U>
15.076

> <W>
-2.043

> <W(PB)>
-4.186

> <W(SA)>
2.143

> <Valence>
18.884

> <Coulomb>
-8.074

> <VdW>
4.266

> <VdW6>
-13.486

> <VdW12>
17.752

> <Bond>
0.713

> <Angle>
8.955

> <Pdih>
9.215

> <Idih>
0.000

> <Tether>
0.000

$$$$
VeraChem MOL file


 25 25  0  0  0  0  0  0  0  0999 V2000     
   19.1832   18.5822   24.1340 C   0  0  0  0  0  0  0  0  0  0  0  0
   18.5731   18.4927   25.0433 H   0  0  0  0  0  0  0  0  0  0  0  0
   19.3815   17.5472   23.8276 H   0  0  0  0  0  0  0  0  0  0  0  0
   20.5105   19.2838   24.5157 C   0  0  0  0  0  0  0  0  0  0  0  0
   20.4002   20.3758   24.4760 H   0  0  0  0  0  0  0  0  0  0  0  0
   20.7020   19.0497   25.5719 H   0  0  0  0  0  0  0  0  0  0  0  0
   21.7594   18.8155   23.7179 C   0  0  0  0  0  0  0  0  0  0  0  0
   21.7207   17.7361   23.5189 H   0  0  0  0  0  0  0  0  0  0  0  0
   22.6277   18.9583   24.3757 H   0  0  0  0  0  0  0  0  0  0  0  0
   22.0484   19.6060   22.4156 C   0  0  0  0  0  0  0  0  0  0  0  0
   21.7598   20.6561   22.5458 H   0  0  0  0  0  0  0  0  0  0  0  0
   23.1369   19.6275   22.2732 H   0  0  0  0  0  0  0  0  0  0  0  0
   21.4456   19.0230   21.1123 C   0  0  0  0  0  0  0  0  0  0  0  0
   21.9888   18.0974   20.8738 H   0  0  0  0  0  0  0  0  0  0  0  0
   19.9382   18.6801   21.1445 C   0  0  0  0  0  0  0  0  0  0  0  0
   19.6036   18.5021   20.1137 H   0  0  0  0  0  0  0  0  0  0  0  0
   19.8033   17.7153   21.6453 H   0  0  0  0  0  0  0  0  0  0  0  0
   19.0336   19.7675   21.7837 C   0  0  0  0  0  0  0  0  0  0  0  0
   18.2698   20.0661   21.0528 H   0  0  0  0  0  0  0  0  0  0  0  0
   19.5989   20.6835   21.9902 H   0  0  0  0  0  0  0  0  0  0  0  0
   18.3135   19.3090   23.0744 C   0  0  0  0  0  0  0  0  0  0  0  0
   17.4841   18.6437   22.7982 H   0  0  0  0  0  0  0  0  0  0  0  0
   17.8483   20.1887   23.5397 H   0  0  0  0  0  0  0  0  0  0  0  0
   21.6639   19.9630   20.0696 O   0  0  0  0  0  0  0  0  0  0  0  0
   21.0578   20.7097   20.2509 H   0  0  0  0  0  0  0  0  0  0  0  0
  1  2  1  0  0  0  0
  1  3  1  0  0  0  0
  1  4  1  0  0  0  0
  4  5  1  0  0  0  0
  4  6  1  0  0  0  0
  4  7  1  0  0  0  0
  7  8  1  0  0  0  0
  7  9  1  0  0  0  0
  7 10  1  0  0  0  0
 10 11  1  0  0  0  0
 10 12  1  0  0  0  0
 10 13  1  0  0  0  0
 13 14  1  0  0  0  0
 13 15  1  0  0  0  0
 15 16  1  0  0  0  0
 15 17  1  0  0  0  0
 15 18  1  0  0  0  0
 18 19  1  0  0  0  0
 18 20  1  0  0  0  0
  1 21  1  0  0  0  0
 18 21  1  0  0  0  0
 21 22  1  0  0  0  0
 21 23  1  0  0  0  0
 13 24  1  0  0  0  0
 24 25  1  0  0  0  0
M  END
> <VConfSearch Rank>
150

> <Conf_Id>
164

> <Delta U+W>
0.008

> <U+W>
10.922

> <U>
12.433

> <W>
-1.511

> <W(PB)>
-3.669

> <W(SA)>
2.157

> <Valence>
19.007

> <Coulomb>
-9.373

> <VdW>
2.799

> <VdW6>
-12.597

> <VdW12>
15.396

> <Bond>
0.425

> <Angle>
4.784

> <Pdih>
13.799

> <Idih>
0.000

> <Tether>
0.000

$$$$
VeraChem MOL file


 25 25  0  0  0  0  0  0  0  0999 V2000     
   18.6305   19.4999   22.0064 C   0  0  0  0  0  0  0  0  0  0  0  0
   18.5358   19.5309   23.0977 H   0  0  0  0  0  0  0  0  0  0  0  0
   17.6114   19.6748   21.6355 H   0  0  0  0  0  0  0  0  0  0  0  0
   19.0527   18.0841   21.5404 C   0  0  0  0  0  0  0  0  0  0  0  0
   18.2747   17.3831   21.8724 H   0  0  0  0  0  0  0  0  0  0  0  0
   19.0391   18.0443   20.4428 H   0  0  0  0  0  0  0  0  0  0  0  0
   20.4176   17.5512   22.0461 C   0  0  0  0  0  0  0  0  0  0  0  0
   21.2340   17.9280   21.4196 H   0  0  0  0  0  0  0  0  0  0  0  0
   20.4229   16.4652   21.8802 H   0  0  0  0  0  0  0  0  0  0  0  0
   20.7168   17.8137   23.5462 C   0  0  0  0  0  0  0  0  0  0  0  0
   19.7880   17.9410   24.1154 H   0  0  0  0  0  0  0  0  0  0  0  0
   21.1823   16.9046   23.9499 H   0  0  0  0  0  0  0  0  0  0  0  0
   21.6955   18.9830   23.8209 C   0  0  0  0  0  0  0  0  0  0  0  0
   22.6053   18.8148   23.2271 H   0  0  0  0  0  0  0  0  0  0  0  0
   21.1746   20.4092   23.5122 C   0  0  0  0  0  0  0  0  0  0  0  0
   20.2609   20.6218   24.0803 H   0  0  0  0  0  0  0  0  0  0  0  0
   21.9249   21.1142   23.8947 H   0  0  0  0  0  0  0  0  0  0  0  0
   20.9765   20.7200   22.0046 C   0  0  0  0  0  0  0  0  0  0  0  0
   21.6120   20.0709   21.3915 H   0  0  0  0  0  0  0  0  0  0  0  0
   21.3522   21.7341   21.8112 H   0  0  0  0  0  0  0  0  0  0  0  0
   19.5094   20.6735   21.5064 C   0  0  0  0  0  0  0  0  0  0  0  0
   19.5054   20.6876   20.4081 H   0  0  0  0  0  0  0  0  0  0  0  0
   19.0197   21.6065   21.8171 H   0  0  0  0  0  0  0  0  0  0  0  0
   22.0425   18.9399   25.1981 O   0  0  0  0  0  0  0  0  0  0  0  0
   21.2137   19.0925   25.6967 H   0  0  0  0  0  0  0  0  0  0  0  0
  1  2  1  0  0  0  0
  1  3  1  0  0  0  0
  1  4  1  0  0  0  0
  4  5  1  0  0  0  0
  4  6  1  0  0  0  0
  4  7  1  0  0  0  0
  7  8  1  0  0  0  0
  7  9  1  0  0  0  0
  7 10  1  0  0  0  0
 10 11  1  0  0  0  0
 10 12  1  0  0  0  0
 10 13  1  0  0  0  0
 13 14  1  0  0  0  0
 13 15  1  0  0  0  0
 15 16  1  0  0  0  0
 15 17  1  0  0  0  0
 15 18  1  0  0  0  0
 18 19  1  0  0  0  0
 18 20  1  0  0  0  0
  1 21  1  0  0  0  0
 18 21  1  0  0  0  0
 21 22  1  0  0  0  0
 21 23  1  0  0  0  0
 13 24  1  0  0  0  0
 24 25  1  0  0  0  0
M  END
> <VConfSearch Rank>
151

> <Conf_Id>
15

> <Delta U+W>
-1.271

> <U+W>
9.643

> <U>
11.413

> <W>
-1.770

> <W(PB)>
-3.908

> <W(SA)>
2.138

> <Valence>
17.496

> <Coulomb>
-8.736

> <VdW>
2.653

> <VdW6>
-12.485

> <VdW12>
15.138

> <Bond>
0.414

> <Angle>
5.295

> <Pdih>
11.787

> <Idih>
0.000

> <Tether>
0.000

$$$$
VeraChem MOL file


 25 25  0  0  0  0  0  0  0  0999 V2000     
   21.2889   19.1593   20.9780 C   0  0  0  0  0  0  0  0  0  0  0  0
   21.9583   18.9970   20.1222 H   0  0  0  0  0  0  0  0  0  0  0  0
   20.8692   20.1606   20.8188 H   0  0  0  0  0  0  0  0  0  0  0  0
   20.1771   18.0806   20.8944 C   0  0  0  0  0  0  0  0  0  0  0  0
   19.5701   18.2851   20.0020 H   0  0  0  0  0  0  0  0  0  0  0  0
   20.6441   17.1017   20.7198 H   0  0  0  0  0  0  0  0  0  0  0  0
   19.2356   17.9578   22.1167 C   0  0  0  0  0  0  0  0  0  0  0  0
   19.7407   17.4004   22.9142 H   0  0  0  0  0  0  0  0  0  0  0  0
   18.3842   17.3260   21.8290 H   0  0  0  0  0  0  0  0  0  0  0  0
   18.6953   19.3142   22.6396 C   0  0  0  0  0  0  0  0  0  0  0  0
   18.9481   20.1277   21.9506 H   0  0  0  0  0  0  0  0  0  0  0  0
   17.5982   19.2743   22.6385 H   0  0  0  0  0  0  0  0  0  0  0  0
   19.1469   19.6743   24.0737 C   0  0  0  0  0  0  0  0  0  0  0  0
   18.5863   19.0336   24.7694 H   0  0  0  0  0  0  0  0  0  0  0  0
   20.6525   19.4870   24.3938 C   0  0  0  0  0  0  0  0  0  0  0  0
   20.8300   19.9422   25.3776 H   0  0  0  0  0  0  0  0  0  0  0  0
   20.8754   18.4234   24.5406 H   0  0  0  0  0  0  0  0  0  0  0  0
   21.6664   20.1010   23.3917 C   0  0  0  0  0  0  0  0  0  0  0  0
   22.5563   20.3794   23.9728 H   0  0  0  0  0  0  0  0  0  0  0  0
   21.2894   21.0429   22.9728 H   0  0  0  0  0  0  0  0  0  0  0  0
   22.1481   19.1442   22.2665 C   0  0  0  0  0  0  0  0  0  0  0  0
   22.2711   18.1194   22.6418 H   0  0  0  0  0  0  0  0  0  0  0  0
   23.1571   19.4718   21.9806 H   0  0  0  0  0  0  0  0  0  0  0  0
   18.7989   21.0294   24.3212 O   0  0  0  0  0  0  0  0  0  0  0  0
   19.3867   21.5650   23.7514 H   0  0  0  0  0  0  0  0  0  0  0  0
  1  2  1  0  0  0  0
  1  3  1  0  0  0  0
  1  4  1  0  0  0  0
  4  5  1  0  0  0  0
  4  6  1  0  0  0  0
  4  7  1  0  0  0  0
  7  8  1  0  0  0  0
  7  9  1  0  0  0  0
  7 10  1  0  0  0  0
 10 11  1  0  0  0  0
 10 12  1  0  0  0  0
 10 13  1  0  0  0  0
 13 14  1  0  0  0  0
 13 15  1  0  0  0  0
 15 16  1  0  0  0  0
 15 17  1  0  0  0  0
 15 18  1  0  0  0  0
 18 19  1  0  0  0  0
 18 20  1  0  0  0  0
  1 21  1  0  0  0  0
 18 21  1  0  0  0  0
 21 22  1  0  0  0  0
 21 23  1  0  0  0  0
 13 24  1  0  0  0  0
 24 25  1  0  0  0  0
M  END
> <VConfSearch Rank>
152

> <Conf_Id>
115

> <Delta U+W>
0.038

> <U+W>
10.952

> <U>
12.526

> <W>
-1.575

> <W(PB)>
-3.698

> <W(SA)>
2.123

> <Valence>
19.016

> <Coulomb>
-9.226

> <VdW>
2.737

> <VdW6>
-12.612

> <VdW12>
15.349

> <Bond>
0.421

> <Angle>
4.883

> <Pdih>
13.711

> <Idih>
0.000

> <Tether>
0.000

$$$$
VeraChem MOL file


 25 25  0  0  0  0  0  0  0  0999 V2000     
   19.1555   19.8530   24.3441 C   0  0  0  0  0  0  0  0  0  0  0  0
   18.7872   19.7515   25.3742 H   0  0  0  0  0  0  0  0  0  0  0  0
   18.8489   20.8565   24.0197 H   0  0  0  0  0  0  0  0  0  0  0  0
   18.4416   18.7781   23.4918 C   0  0  0  0  0  0  0  0  0  0  0  0
   18.6519   17.7775   23.8933 H   0  0  0  0  0  0  0  0  0  0  0  0
   17.3601   18.9248   23.6169 H   0  0  0  0  0  0  0  0  0  0  0  0
   18.7562   18.8233   21.9785 C   0  0  0  0  0  0  0  0  0  0  0  0
   18.7751   19.8625   21.6239 H   0  0  0  0  0  0  0  0  0  0  0  0
   17.9140   18.3517   21.4536 H   0  0  0  0  0  0  0  0  0  0  0  0
   20.0454   18.0606   21.5708 C   0  0  0  0  0  0  0  0  0  0  0  0
   20.3997   17.4137   22.3832 H   0  0  0  0  0  0  0  0  0  0  0  0
   19.7777   17.3802   20.7511 H   0  0  0  0  0  0  0  0  0  0  0  0
   21.1954   18.9675   21.0780 C   0  0  0  0  0  0  0  0  0  0  0  0
   20.7680   19.8107   20.5167 H   0  0  0  0  0  0  0  0  0  0  0  0
   22.1055   19.5196   22.1974 C   0  0  0  0  0  0  0  0  0  0  0  0
   22.5898   18.6901   22.7296 H   0  0  0  0  0  0  0  0  0  0  0  0
   22.9177   20.0809   21.7171 H   0  0  0  0  0  0  0  0  0  0  0  0
   21.4155   20.4693   23.2067 C   0  0  0  0  0  0  0  0  0  0  0  0
   20.7374   21.1566   22.6833 H   0  0  0  0  0  0  0  0  0  0  0  0
   22.1970   21.1074   23.6418 H   0  0  0  0  0  0  0  0  0  0  0  0
   20.6985   19.7503   24.3793 C   0  0  0  0  0  0  0  0  0  0  0  0
   21.0359   20.2250   25.3109 H   0  0  0  0  0  0  0  0  0  0  0  0
   21.0110   18.7006   24.4590 H   0  0  0  0  0  0  0  0  0  0  0  0
   22.0134   18.2031   20.2003 O   0  0  0  0  0  0  0  0  0  0  0  0
   22.7034   18.8085   19.8571 H   0  0  0  0  0  0  0  0  0  0  0  0
  1  2  1  0  0  0  0
  1  3  1  0  0  0  0
  1  4  1  0  0  0  0
  4  5  1  0  0  0  0
  4  6  1  0  0  0  0
  4  7  1  0  0  0  0
  7  8  1  0  0  0  0
  7  9  1  0  0  0  0
  7 10  1  0  0  0  0
 10 11  1  0  0  0  0
 10 12  1  0  0  0  0
 10 13  1  0  0  0  0
 13 14  1  0  0  0  0
 13 15  1  0  0  0  0
 15 16  1  0  0  0  0
 15 17  1  0  0  0  0
 15 18  1  0  0  0  0
 18 19  1  0  0  0  0
 18 20  1  0  0  0  0
  1 21  1  0  0  0  0
 18 21  1  0  0  0  0
 21 22  1  0  0  0  0
 21 23  1  0  0  0  0
 13 24  1  0  0  0  0
 24 25  1  0  0  0  0
M  END
> <VConfSearch Rank>
153

> <Conf_Id>
30

> <Delta U+W>
0.000

> <U+W>
10.913

> <U>
13.140

> <W>
-2.227

> <W(PB)>
-4.367

> <W(SA)>
2.140

> <Valence>
19.155

> <Coulomb>
-8.157

> <VdW>
2.142

> <VdW6>
-11.576

> <VdW12>
13.718

> <Bond>
0.294

> <Angle>
3.547

> <Pdih>
15.314

> <Idih>
0.000

> <Tether>
0.000

$$$$
VeraChem MOL file


 25 25  0  0  0  0  0  0  0  0999 V2000     
   18.9598   17.7839   21.8492 C   0  0  0  0  0  0  0  0  0  0  0  0
   17.8974   17.5641   22.0219 H   0  0  0  0  0  0  0  0  0  0  0  0
   19.3139   17.0099   21.1547 H   0  0  0  0  0  0  0  0  0  0  0  0
   19.7196   17.6181   23.1884 C   0  0  0  0  0  0  0  0  0  0  0  0
   19.3576   16.7000   23.6712 H   0  0  0  0  0  0  0  0  0  0  0  0
   20.7801   17.4260   22.9886 H   0  0  0  0  0  0  0  0  0  0  0  0
   19.5426   18.7993   24.1759 C   0  0  0  0  0  0  0  0  0  0  0  0
   19.1618   18.4081   25.1292 H   0  0  0  0  0  0  0  0  0  0  0  0
   18.7665   19.4906   23.8275 H   0  0  0  0  0  0  0  0  0  0  0  0
   20.8481   19.5823   24.4654 C   0  0  0  0  0  0  0  0  0  0  0  0
   20.5891   20.4976   25.0139 H   0  0  0  0  0  0  0  0  0  0  0  0
   21.4664   18.9861   25.1491 H   0  0  0  0  0  0  0  0  0  0  0  0
   21.7252   19.9563   23.2443 C   0  0  0  0  0  0  0  0  0  0  0  0
   22.1969   19.0480   22.8462 H   0  0  0  0  0  0  0  0  0  0  0  0
   20.9777   20.6712   22.0922 C   0  0  0  0  0  0  0  0  0  0  0  0
   20.1532   21.2766   22.4901 H   0  0  0  0  0  0  0  0  0  0  0  0
   21.6685   21.3895   21.6309 H   0  0  0  0  0  0  0  0  0  0  0  0
   20.4796   19.7360   20.9541 C   0  0  0  0  0  0  0  0  0  0  0  0
   21.1984   18.9287   20.7594 H   0  0  0  0  0  0  0  0  0  0  0  0
   20.4595   20.3363   20.0340 H   0  0  0  0  0  0  0  0  0  0  0  0
   19.0528   19.1662   21.1497 C   0  0  0  0  0  0  0  0  0  0  0  0
   18.5959   19.0531   20.1570 H   0  0  0  0  0  0  0  0  0  0  0  0
   18.4224   19.9025   21.6643 H   0  0  0  0  0  0  0  0  0  0  0  0
   22.7546   20.8183   23.7149 O   0  0  0  0  0  0  0  0  0  0  0  0
   23.3511   20.9865   22.9557 H   0  0  0  0  0  0  0  0  0  0  0  0
  1  2  1  0  0  0  0
  1  3  1  0  0  0  0
  1  4  1  0  0  0  0
  4  5  1  0  0  0  0
  4  6  1  0  0  0  0
  4  7  1  0  0  0  0
  7  8  1  0  0  0  0
  7  9  1  0  0  0  0
  7 10  1  0  0  0  0
 10 11  1  0  0  0  0
 10 12  1  0  0  0  0
 10 13  1  0  0  0  0
 13 14  1  0  0  0  0
 13 15  1  0  0  0  0
 15 16  1  0  0  0  0
 15 17  1  0  0  0  0
 15 18  1  0  0  0  0
 18 19  1  0  0  0  0
 18 20  1  0  0  0  0
  1 21  1  0  0  0  0
 18 21  1  0  0  0  0
 21 22  1  0  0  0  0
 21 23  1  0  0  0  0
 13 24  1  0  0  0  0
 24 25  1  0  0  0  0
M  END
> <VConfSearch Rank>
154

> <Conf_Id>
162

> <Delta U+W>
0.219

> <U+W>
11.132

> <U>
13.296

> <W>
-2.164

> <W(PB)>
-4.311

> <W(SA)>
2.148

> <Valence>
18.607

> <Coulomb>
-8.339

> <VdW>
3.028

> <VdW6>
-12.271

> <VdW12>
15.299

> <Bond>
0.423

> <Angle>
4.488

> <Pdih>
13.696

> <Idih>
0.000

> <Tether>
0.000

$$$$
VeraChem MOL file


 25 25  0  0  0  0  0  0  0  0999 V2000     
   19.1949   20.1587   21.3248 C   0  0  0  0  0  0  0  0  0  0  0  0
   20.1054   20.6333   20.9376 H   0  0  0  0  0  0  0  0  0  0  0  0
   18.3920   20.5134   20.6640 H   0  0  0  0  0  0  0  0  0  0  0  0
   19.2950   18.6204   21.1725 C   0  0  0  0  0  0  0  0  0  0  0  0
   18.5931   18.1152   21.8496 H   0  0  0  0  0  0  0  0  0  0  0  0
   18.9468   18.3774   20.1591 H   0  0  0  0  0  0  0  0  0  0  0  0
   20.7277   18.0336   21.3088 C   0  0  0  0  0  0  0  0  0  0  0  0
   21.4749   18.7029   20.8618 H   0  0  0  0  0  0  0  0  0  0  0  0
   20.7554   17.1197   20.6996 H   0  0  0  0  0  0  0  0  0  0  0  0
   21.1417   17.6264   22.7469 C   0  0  0  0  0  0  0  0  0  0  0  0
   20.2675   17.2584   23.2980 H   0  0  0  0  0  0  0  0  0  0  0  0
   21.8124   16.7607   22.6702 H   0  0  0  0  0  0  0  0  0  0  0  0
   21.8963   18.6971   23.5748 C   0  0  0  0  0  0  0  0  0  0  0  0
   22.9006   18.8112   23.1417 H   0  0  0  0  0  0  0  0  0  0  0  0
   21.2540   20.1040   23.6232 C   0  0  0  0  0  0  0  0  0  0  0  0
   21.7607   20.6930   24.3986 H   0  0  0  0  0  0  0  0  0  0  0  0
   21.4801   20.6304   22.6898 H   0  0  0  0  0  0  0  0  0  0  0  0
   19.7287   20.1125   23.9079 C   0  0  0  0  0  0  0  0  0  0  0  0
   19.5402   20.7186   24.8042 H   0  0  0  0  0  0  0  0  0  0  0  0
   19.3739   19.1088   24.1703 H   0  0  0  0  0  0  0  0  0  0  0  0
   18.8711   20.6788   22.7505 C   0  0  0  0  0  0  0  0  0  0  0  0
   18.9662   21.7732   22.7446 H   0  0  0  0  0  0  0  0  0  0  0  0
   17.8153   20.4721   22.9725 H   0  0  0  0  0  0  0  0  0  0  0  0
   22.0204   18.2096   24.9056 O   0  0  0  0  0  0  0  0  0  0  0  0
   22.4962   18.8979   25.4145 H   0  0  0  0  0  0  0  0  0  0  0  0
  1  2  1  0  0  0  0
  1  3  1  0  0  0  0
  1  4  1  0  0  0  0
  4  5  1  0  0  0  0
  4  6  1  0  0  0  0
  4  7  1  0  0  0  0
  7  8  1  0  0  0  0
  7  9  1  0  0  0  0
  7 10  1  0  0  0  0
 10 11  1  0  0  0  0
 10 12  1  0  0  0  0
 10 13  1  0  0  0  0
 13 14  1  0  0  0  0
 13 15  1  0  0  0  0
 15 16  1  0  0  0  0
 15 17  1  0  0  0  0
 15 18  1  0  0  0  0
 18 19  1  0  0  0  0
 18 20  1  0  0  0  0
  1 21  1  0  0  0  0
 18 21  1  0  0  0  0
 21 22  1  0  0  0  0
 21 23  1  0  0  0  0
 13 24  1  0  0  0  0
 24 25  1  0  0  0  0
M  END
> <VConfSearch Rank>
155

> <Conf_Id>
155

> <Delta U+W>
0.339

> <U+W>
11.252

> <U>
13.420

> <W>
-2.167

> <W(PB)>
-4.325

> <W(SA)>
2.157

> <Valence>
18.609

> <Coulomb>
-8.052

> <VdW>
2.863

> <VdW6>
-12.524

> <VdW12>
15.387

> <Bond>
0.430

> <Angle>
4.724

> <Pdih>
13.455

> <Idih>
0.000

> <Tether>
0.000

$$$$
VeraChem MOL file


 25 25  0  0  0  0  0  0  0  0999 V2000     
   21.2443   19.0209   24.4616 C   0  0  0  0  0  0  0  0  0  0  0  0
   21.7811   19.9156   24.8047 H   0  0  0  0  0  0  0  0  0  0  0  0
   21.3698   18.2796   25.2625 H   0  0  0  0  0  0  0  0  0  0  0  0
   19.7280   19.3370   24.3735 C   0  0  0  0  0  0  0  0  0  0  0  0
   19.1797   18.4175   24.1456 H   0  0  0  0  0  0  0  0  0  0  0  0
   19.3841   19.5974   25.3838 H   0  0  0  0  0  0  0  0  0  0  0  0
   19.2873   20.4930   23.4286 C   0  0  0  0  0  0  0  0  0  0  0  0
   19.3574   21.4290   23.9991 H   0  0  0  0  0  0  0  0  0  0  0  0
   18.2214   20.3724   23.1918 H   0  0  0  0  0  0  0  0  0  0  0  0
   20.0803   20.7046   22.1102 C   0  0  0  0  0  0  0  0  0  0  0  0
   19.7198   21.6373   21.6568 H   0  0  0  0  0  0  0  0  0  0  0  0
   21.1226   20.9322   22.3504 H   0  0  0  0  0  0  0  0  0  0  0  0
   20.0068   19.5889   21.0267 C   0  0  0  0  0  0  0  0  0  0  0  0
   20.9002   19.6788   20.3922 H   0  0  0  0  0  0  0  0  0  0  0  0
   19.9128   18.1201   21.5109 C   0  0  0  0  0  0  0  0  0  0  0  0
   18.9954   17.9940   22.0931 H   0  0  0  0  0  0  0  0  0  0  0  0
   19.7466   17.4912   20.6264 H   0  0  0  0  0  0  0  0  0  0  0  0
   21.1367   17.5229   22.2684 C   0  0  0  0  0  0  0  0  0  0  0  0
   21.8321   17.1322   21.5131 H   0  0  0  0  0  0  0  0  0  0  0  0
   20.8059   16.6469   22.8425 H   0  0  0  0  0  0  0  0  0  0  0  0
   21.9549   18.4607   23.1946 C   0  0  0  0  0  0  0  0  0  0  0  0
   22.3874   19.2716   22.6001 H   0  0  0  0  0  0  0  0  0  0  0  0
   22.8340   17.8999   23.5403 H   0  0  0  0  0  0  0  0  0  0  0  0
   18.8566   19.8347   20.2250 O   0  0  0  0  0  0  0  0  0  0  0  0
   18.9434   20.7463   19.8776 H   0  0  0  0  0  0  0  0  0  0  0  0
  1  2  1  0  0  0  0
  1  3  1  0  0  0  0
  1  4  1  0  0  0  0
  4  5  1  0  0  0  0
  4  6  1  0  0  0  0
  4  7  1  0  0  0  0
  7  8  1  0  0  0  0
  7  9  1  0  0  0  0
  7 10  1  0  0  0  0
 10 11  1  0  0  0  0
 10 12  1  0  0  0  0
 10 13  1  0  0  0  0
 13 14  1  0  0  0  0
 13 15  1  0  0  0  0
 15 16  1  0  0  0  0
 15 17  1  0  0  0  0
 15 18  1  0  0  0  0
 18 19  1  0  0  0  0
 18 20  1  0  0  0  0
  1 21  1  0  0  0  0
 18 21  1  0  0  0  0
 21 22  1  0  0  0  0
 21 23  1  0  0  0  0
 13 24  1  0  0  0  0
 24 25  1  0  0  0  0
M  END
> <VConfSearch Rank>
156

> <Conf_Id>
146

> <Delta U+W>
2.553

> <U+W>
13.466

> <U>
15.643

> <W>
-2.176

> <W(PB)>
-4.307

> <W(SA)>
2.131

> <Valence>
18.916

> <Coulomb>
-7.506

> <VdW>
4.232

> <VdW6>
-13.632

> <VdW12>
17.864

> <Bond>
0.735

> <Angle>
9.140

> <Pdih>
9.042

> <Idih>
0.000

> <Tether>
0.000

$$$$
VeraChem MOL file


 25 25  0  0  0  0  0  0  0  0999 V2000     
   18.6913   19.1047   21.3854 C   0  0  0  0  0  0  0  0  0  0  0  0
   17.8495   18.4246   21.5734 H   0  0  0  0  0  0  0  0  0  0  0  0
   18.4530   19.6176   20.4435 H   0  0  0  0  0  0  0  0  0  0  0  0
   19.9768   18.2736   21.1467 C   0  0  0  0  0  0  0  0  0  0  0  0
   19.7978   17.6426   20.2655 H   0  0  0  0  0  0  0  0  0  0  0  0
   20.8051   18.9284   20.8531 H   0  0  0  0  0  0  0  0  0  0  0  0
   20.4078   17.3365   22.3028 C   0  0  0  0  0  0  0  0  0  0  0  0
   21.2545   16.7357   21.9433 H   0  0  0  0  0  0  0  0  0  0  0  0
   19.6012   16.6203   22.5099 H   0  0  0  0  0  0  0  0  0  0  0  0
   20.8358   18.0111   23.6323 C   0  0  0  0  0  0  0  0  0  0  0  0
   19.9550   18.2698   24.2283 H   0  0  0  0  0  0  0  0  0  0  0  0
   21.3557   17.2487   24.2282 H   0  0  0  0  0  0  0  0  0  0  0  0
   21.7584   19.2474   23.4759 C   0  0  0  0  0  0  0  0  0  0  0  0
   22.2371   19.2270   22.4877 H   0  0  0  0  0  0  0  0  0  0  0  0
   21.0366   20.6052   23.6686 C   0  0  0  0  0  0  0  0  0  0  0  0
   20.5314   20.6098   24.6435 H   0  0  0  0  0  0  0  0  0  0  0  0
   21.8017   21.3904   23.7274 H   0  0  0  0  0  0  0  0  0  0  0  0
   20.0274   21.0264   22.5660 C   0  0  0  0  0  0  0  0  0  0  0  0
   20.5173   21.0682   21.5846 H   0  0  0  0  0  0  0  0  0  0  0  0
   19.7305   22.0619   22.7820 H   0  0  0  0  0  0  0  0  0  0  0  0
   18.7335   20.1738   22.5077 C   0  0  0  0  0  0  0  0  0  0  0  0
   17.8853   20.8515   22.3393 H   0  0  0  0  0  0  0  0  0  0  0  0
   18.5285   19.7183   23.4831 H   0  0  0  0  0  0  0  0  0  0  0  0
   22.7779   19.1661   24.4655 O   0  0  0  0  0  0  0  0  0  0  0  0
   23.3821   19.9222   24.3125 H   0  0  0  0  0  0  0  0  0  0  0  0
  1  2  1  0  0  0  0
  1  3  1  0  0  0  0
  1  4  1  0  0  0  0
  4  5  1  0  0  0  0
  4  6  1  0  0  0  0
  4  7  1  0  0  0  0
  7  8  1  0  0  0  0
  7  9  1  0  0  0  0
  7 10  1  0  0  0  0
 10 11  1  0  0  0  0
 10 12  1  0  0  0  0
 10 13  1  0  0  0  0
 13 14  1  0  0  0  0
 13 15  1  0  0  0  0
 15 16  1  0  0  0  0
 15 17  1  0  0  0  0
 15 18  1  0  0  0  0
 18 19  1  0  0  0  0
 18 20  1  0  0  0  0
  1 21  1  0  0  0  0
 18 21  1  0  0  0  0
 21 22  1  0  0  0  0
 21 23  1  0  0  0  0
 13 24  1  0  0  0  0
 24 25  1  0  0  0  0
M  END
> <VConfSearch Rank>
157

> <Conf_Id>
62

> <Delta U+W>
-1.779

> <U+W>
9.134

> <U>
11.364

> <W>
-2.230

> <W(PB)>
-4.359

> <W(SA)>
2.129

> <Valence>
16.582

> <Coulomb>
-8.150

> <VdW>
2.933

> <VdW6>
-12.531

> <VdW12>
15.464

> <Bond>
0.439

> <Angle>
5.099

> <Pdih>
11.044

> <Idih>
0.000

> <Tether>
0.000

$$$$
VeraChem MOL file


 25 25  0  0  0  0  0  0  0  0999 V2000     
   19.1701   18.4405   21.4529 C   0  0  0  0  0  0  0  0  0  0  0  0
   18.6757   19.3633   21.7771 H   0  0  0  0  0  0  0  0  0  0  0  0
   18.4625   17.9799   20.7502 H   0  0  0  0  0  0  0  0  0  0  0  0
   19.3328   17.4668   22.6466 C   0  0  0  0  0  0  0  0  0  0  0  0
   18.3272   17.2436   23.0284 H   0  0  0  0  0  0  0  0  0  0  0  0
   19.7313   16.5101   22.2827 H   0  0  0  0  0  0  0  0  0  0  0  0
   20.1961   17.9500   23.8399 C   0  0  0  0  0  0  0  0  0  0  0  0
   21.2598   17.7788   23.6395 H   0  0  0  0  0  0  0  0  0  0  0  0
   19.9681   17.2936   24.6909 H   0  0  0  0  0  0  0  0  0  0  0  0
   19.9544   19.4182   24.2817 C   0  0  0  0  0  0  0  0  0  0  0  0
   18.9542   19.7592   23.9875 H   0  0  0  0  0  0  0  0  0  0  0  0
   19.9528   19.4303   25.3795 H   0  0  0  0  0  0  0  0  0  0  0  0
   21.0322   20.4271   23.8108 C   0  0  0  0  0  0  0  0  0  0  0  0
   22.0175   20.0468   24.1169 H   0  0  0  0  0  0  0  0  0  0  0  0
   21.0815   20.7228   22.2909 C   0  0  0  0  0  0  0  0  0  0  0  0
   20.1140   21.1030   21.9416 H   0  0  0  0  0  0  0  0  0  0  0  0
   21.7856   21.5535   22.1495 H   0  0  0  0  0  0  0  0  0  0  0  0
   21.5728   19.5439   21.4086 C   0  0  0  0  0  0  0  0  0  0  0  0
   22.1918   18.8564   21.9960 H   0  0  0  0  0  0  0  0  0  0  0  0
   22.2556   19.9465   20.6479 H   0  0  0  0  0  0  0  0  0  0  0  0
   20.4592   18.7688   20.6590 C   0  0  0  0  0  0  0  0  0  0  0  0
   20.8824   17.8398   20.2536 H   0  0  0  0  0  0  0  0  0  0  0  0
   20.1640   19.3665   19.7857 H   0  0  0  0  0  0  0  0  0  0  0  0
   20.7908   21.6593   24.4785 O   0  0  0  0  0  0  0  0  0  0  0  0
   20.8296   21.4728   25.4397 H   0  0  0  0  0  0  0  0  0  0  0  0
  1  2  1  0  0  0  0
  1  3  1  0  0  0  0
  1  4  1  0  0  0  0
  4  5  1  0  0  0  0
  4  6  1  0  0  0  0
  4  7  1  0  0  0  0
  7  8  1  0  0  0  0
  7  9  1  0  0  0  0
  7 10  1  0  0  0  0
 10 11  1  0  0  0  0
 10 12  1  0  0  0  0
 10 13  1  0  0  0  0
 13 14  1  0  0  0  0
 13 15  1  0  0  0  0
 15 16  1  0  0  0  0
 15 17  1  0  0  0  0
 15 18  1  0  0  0  0
 18 19  1  0  0  0  0
 18 20  1  0  0  0  0
  1 21  1  0  0  0  0
 18 21  1  0  0  0  0
 21 22  1  0  0  0  0
 21 23  1  0  0  0  0
 13 24  1  0  0  0  0
 24 25  1  0  0  0  0
M  END
> <VConfSearch Rank>
158

> <Conf_Id>
121

> <Delta U+W>
-1.283

> <U+W>
9.630

> <U>
11.876

> <W>
-2.246

> <W(PB)>
-4.376

> <W(SA)>
2.130

> <Valence>
17.153

> <Coulomb>
-7.966

> <VdW>
2.689

> <VdW6>
-12.458

> <VdW12>
15.147

> <Bond>
0.421

> <Angle>
5.258

> <Pdih>
11.475

> <Idih>
0.000

> <Tether>
0.000

$$$$
VeraChem MOL file


 25 25  0  0  0  0  0  0  0  0999 V2000     
   19.1160   20.4874   23.3510 C   0  0  0  0  0  0  0  0  0  0  0  0
   18.8934   19.5591   23.8893 H   0  0  0  0  0  0  0  0  0  0  0  0
   18.4086   21.2211   23.7610 H   0  0  0  0  0  0  0  0  0  0  0  0
   18.7927   20.3288   21.8444 C   0  0  0  0  0  0  0  0  0  0  0  0
   17.7236   20.0904   21.7609 H   0  0  0  0  0  0  0  0  0  0  0  0
   18.9211   21.2969   21.3416 H   0  0  0  0  0  0  0  0  0  0  0  0
   19.5813   19.2472   21.0625 C   0  0  0  0  0  0  0  0  0  0  0  0
   20.5545   19.6364   20.7424 H   0  0  0  0  0  0  0  0  0  0  0  0
   19.0375   19.0637   20.1257 H   0  0  0  0  0  0  0  0  0  0  0  0
   19.7525   17.8905   21.7969 C   0  0  0  0  0  0  0  0  0  0  0  0
   18.9626   17.7411   22.5429 H   0  0  0  0  0  0  0  0  0  0  0  0
   19.6023   17.0950   21.0550 H   0  0  0  0  0  0  0  0  0  0  0  0
   21.1477   17.6596   22.4295 C   0  0  0  0  0  0  0  0  0  0  0  0
   21.9069   17.8220   21.6508 H   0  0  0  0  0  0  0  0  0  0  0  0
   21.5061   18.5455   23.6494 C   0  0  0  0  0  0  0  0  0  0  0  0
   20.7653   18.4173   24.4482 H   0  0  0  0  0  0  0  0  0  0  0  0
   22.4482   18.1642   24.0647 H   0  0  0  0  0  0  0  0  0  0  0  0
   21.7231   20.0478   23.3250 C   0  0  0  0  0  0  0  0  0  0  0  0
   22.0018   20.1778   22.2731 H   0  0  0  0  0  0  0  0  0  0  0  0
   22.6005   20.3969   23.8865 H   0  0  0  0  0  0  0  0  0  0  0  0
   20.5430   20.9823   23.6948 C   0  0  0  0  0  0  0  0  0  0  0  0
   20.7077   21.9647   23.2318 H   0  0  0  0  0  0  0  0  0  0  0  0
   20.5788   21.1553   24.7791 H   0  0  0  0  0  0  0  0  0  0  0  0
   21.2076   16.3023   22.8495 O   0  0  0  0  0  0  0  0  0  0  0  0
   22.1155   16.1494   23.1848 H   0  0  0  0  0  0  0  0  0  0  0  0
  1  2  1  0  0  0  0
  1  3  1  0  0  0  0
  1  4  1  0  0  0  0
  4  5  1  0  0  0  0
  4  6  1  0  0  0  0
  4  7  1  0  0  0  0
  7  8  1  0  0  0  0
  7  9  1  0  0  0  0
  7 10  1  0  0  0  0
 10 11  1  0  0  0  0
 10 12  1  0  0  0  0
 10 13  1  0  0  0  0
 13 14  1  0  0  0  0
 13 15  1  0  0  0  0
 15 16  1  0  0  0  0
 15 17  1  0  0  0  0
 15 18  1  0  0  0  0
 18 19  1  0  0  0  0
 18 20  1  0  0  0  0
  1 21  1  0  0  0  0
 18 21  1  0  0  0  0
 21 22  1  0  0  0  0
 21 23  1  0  0  0  0
 13 24  1  0  0  0  0
 24 25  1  0  0  0  0
M  END
> <VConfSearch Rank>
159

> <Conf_Id>
24

> <Delta U+W>
-1.236

> <U+W>
9.678

> <U>
11.876

> <W>
-2.199

> <W(PB)>
-4.335

> <W(SA)>
2.137

> <Valence>
17.153

> <Coulomb>
-7.966

> <VdW>
2.689

> <VdW6>
-12.458

> <VdW12>
15.147

> <Bond>
0.421

> <Angle>
5.258

> <Pdih>
11.475

> <Idih>
0.000

> <Tether>
0.000

$$$$
VeraChem MOL file


 25 25  0  0  0  0  0  0  0  0999 V2000     
   20.3739   18.9922   24.7827 C   0  0  0  0  0  0  0  0  0  0  0  0
   21.0608   18.2972   25.2844 H   0  0  0  0  0  0  0  0  0  0  0  0
   19.7797   19.4527   25.5838 H   0  0  0  0  0  0  0  0  0  0  0  0
   21.2032   20.1120   24.0996 C   0  0  0  0  0  0  0  0  0  0  0  0
   20.5705   20.9806   23.8772 H   0  0  0  0  0  0  0  0  0  0  0  0
   21.9241   20.4754   24.8448 H   0  0  0  0  0  0  0  0  0  0  0  0
   21.9949   19.6962   22.8351 C   0  0  0  0  0  0  0  0  0  0  0  0
   22.3572   18.6631   22.9238 H   0  0  0  0  0  0  0  0  0  0  0  0
   22.8989   20.3200   22.8056 H   0  0  0  0  0  0  0  0  0  0  0  0
   21.2507   19.9167   21.4877 C   0  0  0  0  0  0  0  0  0  0  0  0
   20.6440   20.8307   21.5217 H   0  0  0  0  0  0  0  0  0  0  0  0
   22.0238   20.1045   20.7300 H   0  0  0  0  0  0  0  0  0  0  0  0
   20.3989   18.7166   21.0067 C   0  0  0  0  0  0  0  0  0  0  0  0
   20.8473   17.7927   21.3952 H   0  0  0  0  0  0  0  0  0  0  0  0
   18.9012   18.7645   21.4020 C   0  0  0  0  0  0  0  0  0  0  0  0
   18.3917   19.5336   20.8068 H   0  0  0  0  0  0  0  0  0  0  0  0
   18.4494   17.8076   21.1090 H   0  0  0  0  0  0  0  0  0  0  0  0
   18.5799   19.0181   22.8964 C   0  0  0  0  0  0  0  0  0  0  0  0
   17.5172   18.7922   23.0594 H   0  0  0  0  0  0  0  0  0  0  0  0
   18.6754   20.0873   23.1188 H   0  0  0  0  0  0  0  0  0  0  0  0
   19.4251   18.1680   23.8782 C   0  0  0  0  0  0  0  0  0  0  0  0
   19.9991   17.4018   23.3442 H   0  0  0  0  0  0  0  0  0  0  0  0
   18.7442   17.6020   24.5285 H   0  0  0  0  0  0  0  0  0  0  0  0
   20.4585   18.6665   19.5870 O   0  0  0  0  0  0  0  0  0  0  0  0
   20.0733   19.5067   19.2637 H   0  0  0  0  0  0  0  0  0  0  0  0
  1  2  1  0  0  0  0
  1  3  1  0  0  0  0
  1  4  1  0  0  0  0
  4  5  1  0  0  0  0
  4  6  1  0  0  0  0
  4  7  1  0  0  0  0
  7  8  1  0  0  0  0
  7  9  1  0  0  0  0
  7 10  1  0  0  0  0
 10 11  1  0  0  0  0
 10 12  1  0  0  0  0
 10 13  1  0  0  0  0
 13 14  1  0  0  0  0
 13 15  1  0  0  0  0
 15 16  1  0  0  0  0
 15 17  1  0  0  0  0
 15 18  1  0  0  0  0
 18 19  1  0  0  0  0
 18 20  1  0  0  0  0
  1 21  1  0  0  0  0
 18 21  1  0  0  0  0
 21 22  1  0  0  0  0
 21 23  1  0  0  0  0
 13 24  1  0  0  0  0
 24 25  1  0  0  0  0
M  END
> <VConfSearch Rank>
160

> <Conf_Id>
167

> <Delta U+W>
0.388

> <U+W>
11.301

> <U>
13.202

> <W>
-1.901

> <W(PB)>
-4.065

> <W(SA)>
2.163

> <Valence>
18.957

> <Coulomb>
-8.753

> <VdW>
2.998

> <VdW6>
-12.294

> <VdW12>
15.292

> <Bond>
0.419

> <Angle>
4.543

> <Pdih>
13.996

> <Idih>
0.000

> <Tether>
0.000

$$$$
VeraChem MOL file


 25 25  0  0  0  0  0  0  0  0999 V2000     
   21.4291   20.9619   22.8137 C   0  0  0  0  0  0  0  0  0  0  0  0
   22.4968   20.9750   22.5561 H   0  0  0  0  0  0  0  0  0  0  0  0
   21.1815   21.9928   23.1016 H   0  0  0  0  0  0  0  0  0  0  0  0
   21.2243   20.0621   24.0602 C   0  0  0  0  0  0  0  0  0  0  0  0
   21.8452   19.1617   23.9931 H   0  0  0  0  0  0  0  0  0  0  0  0
   21.6301   20.6092   24.9222 H   0  0  0  0  0  0  0  0  0  0  0  0
   19.7535   19.6867   24.3773 C   0  0  0  0  0  0  0  0  0  0  0  0
   19.0595   20.4362   23.9757 H   0  0  0  0  0  0  0  0  0  0  0  0
   19.6281   19.7351   25.4677 H   0  0  0  0  0  0  0  0  0  0  0  0
   19.3358   18.2571   23.9367 C   0  0  0  0  0  0  0  0  0  0  0  0
   20.0193   17.5232   24.3833 H   0  0  0  0  0  0  0  0  0  0  0  0
   18.3512   18.0505   24.3765 H   0  0  0  0  0  0  0  0  0  0  0  0
   19.2331   17.9966   22.4132 C   0  0  0  0  0  0  0  0  0  0  0  0
   18.5749   18.7519   21.9632 H   0  0  0  0  0  0  0  0  0  0  0  0
   20.5991   17.9863   21.6791 C   0  0  0  0  0  0  0  0  0  0  0  0
   21.4063   17.7789   22.3888 H   0  0  0  0  0  0  0  0  0  0  0  0
   20.6312   17.1427   20.9769 H   0  0  0  0  0  0  0  0  0  0  0  0
   20.9163   19.2689   20.8672 C   0  0  0  0  0  0  0  0  0  0  0  0
   20.3420   19.2269   19.9316 H   0  0  0  0  0  0  0  0  0  0  0  0
   21.9732   19.2494   20.5688 H   0  0  0  0  0  0  0  0  0  0  0  0
   20.6018   20.6249   21.5477 C   0  0  0  0  0  0  0  0  0  0  0  0
   19.5299   20.7104   21.7595 H   0  0  0  0  0  0  0  0  0  0  0  0
   20.8009   21.4135   20.8093 H   0  0  0  0  0  0  0  0  0  0  0  0
   18.6262   16.7213   22.2418 O   0  0  0  0  0  0  0  0  0  0  0  0
   18.5028   16.5965   21.2776 H   0  0  0  0  0  0  0  0  0  0  0  0
  1  2  1  0  0  0  0
  1  3  1  0  0  0  0
  1  4  1  0  0  0  0
  4  5  1  0  0  0  0
  4  6  1  0  0  0  0
  4  7  1  0  0  0  0
  7  8  1  0  0  0  0
  7  9  1  0  0  0  0
  7 10  1  0  0  0  0
 10 11  1  0  0  0  0
 10 12  1  0  0  0  0
 10 13  1  0  0  0  0
 13 14  1  0  0  0  0
 13 15  1  0  0  0  0
 15 16  1  0  0  0  0
 15 17  1  0  0  0  0
 15 18  1  0  0  0  0
 18 19  1  0  0  0  0
 18 20  1  0  0  0  0
  1 21  1  0  0  0  0
 18 21  1  0  0  0  0
 21 22  1  0  0  0  0
 21 23  1  0  0  0  0
 13 24  1  0  0  0  0
 24 25  1  0  0  0  0
M  END
> <VConfSearch Rank>
161

> <Conf_Id>
60

> <Delta U+W>
-1.838

> <U+W>
9.075

> <U>
11.150

> <W>
-2.074

> <W(PB)>
-4.196

> <W(SA)>
2.121

> <Valence>
16.582

> <Coulomb>
-8.361

> <VdW>
2.928

> <VdW6>
-12.539

> <VdW12>
15.467

> <Bond>
0.441

> <Angle>
5.093

> <Pdih>
11.049

> <Idih>
0.000

> <Tether>
0.000

$$$$
VeraChem MOL file


 25 25  0  0  0  0  0  0  0  0999 V2000     
   18.7686   20.3198   23.4059 C   0  0  0  0  0  0  0  0  0  0  0  0
   18.8095   20.7475   24.4168 H   0  0  0  0  0  0  0  0  0  0  0  0
   17.7886   20.6084   23.0020 H   0  0  0  0  0  0  0  0  0  0  0  0
   18.7903   18.7736   23.5037 C   0  0  0  0  0  0  0  0  0  0  0  0
   17.9029   18.4711   24.0762 H   0  0  0  0  0  0  0  0  0  0  0  0
   18.6441   18.3275   22.5134 H   0  0  0  0  0  0  0  0  0  0  0  0
   20.0235   18.1508   24.2053 C   0  0  0  0  0  0  0  0  0  0  0  0
   19.8404   17.0717   24.3005 H   0  0  0  0  0  0  0  0  0  0  0  0
   20.0878   18.5336   25.2328 H   0  0  0  0  0  0  0  0  0  0  0  0
   21.3966   18.3417   23.5104 C   0  0  0  0  0  0  0  0  0  0  0  0
   21.8047   19.3300   23.7447 H   0  0  0  0  0  0  0  0  0  0  0  0
   22.0977   17.6396   23.9809 H   0  0  0  0  0  0  0  0  0  0  0  0
   21.3913   18.1170   21.9760 C   0  0  0  0  0  0  0  0  0  0  0  0
   20.5082   17.5305   21.6891 H   0  0  0  0  0  0  0  0  0  0  0  0
   21.4231   19.4241   21.1453 C   0  0  0  0  0  0  0  0  0  0  0  0
   22.2870   20.0271   21.4538 H   0  0  0  0  0  0  0  0  0  0  0  0
   21.6125   19.1489   20.0993 H   0  0  0  0  0  0  0  0  0  0  0  0
   20.1433   20.3037   21.1724 C   0  0  0  0  0  0  0  0  0  0  0  0
   19.2712   19.7328   20.8282 H   0  0  0  0  0  0  0  0  0  0  0  0
   20.2823   21.0944   20.4226 H   0  0  0  0  0  0  0  0  0  0  0  0
   19.8567   20.9947   22.5307 C   0  0  0  0  0  0  0  0  0  0  0  0
   19.5161   22.0192   22.3271 H   0  0  0  0  0  0  0  0  0  0  0  0
   20.7844   21.1247   23.0994 H   0  0  0  0  0  0  0  0  0  0  0  0
   22.5512   17.3685   21.6318 O   0  0  0  0  0  0  0  0  0  0  0  0
   22.4865   16.5151   22.1093 H   0  0  0  0  0  0  0  0  0  0  0  0
  1  2  1  0  0  0  0
  1  3  1  0  0  0  0
  1  4  1  0  0  0  0
  4  5  1  0  0  0  0
  4  6  1  0  0  0  0
  4  7  1  0  0  0  0
  7  8  1  0  0  0  0
  7  9  1  0  0  0  0
  7 10  1  0  0  0  0
 10 11  1  0  0  0  0
 10 12  1  0  0  0  0
 10 13  1  0  0  0  0
 13 14  1  0  0  0  0
 13 15  1  0  0  0  0
 15 16  1  0  0  0  0
 15 17  1  0  0  0  0
 15 18  1  0  0  0  0
 18 19  1  0  0  0  0
 18 20  1  0  0  0  0
  1 21  1  0  0  0  0
 18 21  1  0  0  0  0
 21 22  1  0  0  0  0
 21 23  1  0  0  0  0
 13 24  1  0  0  0  0
 24 25  1  0  0  0  0
M  END
> <VConfSearch Rank>
162

> <Conf_Id>
129

> <Delta U+W>
-1.846

> <U+W>
9.067

> <U>
11.150

> <W>
-2.083

> <W(PB)>
-4.217

> <W(SA)>
2.134

> <Valence>
16.583

> <Coulomb>
-8.361

> <VdW>
2.928

> <VdW6>
-12.539

> <VdW12>
15.467

> <Bond>
0.441

> <Angle>
5.093

> <Pdih>
11.049

> <Idih>
0.000

> <Tether>
0.000

$$$$
VeraChem MOL file


 25 25  0  0  0  0  0  0  0  0999 V2000     
   22.1739   19.9346   22.3454 C   0  0  0  0  0  0  0  0  0  0  0  0
   22.7206   20.4403   23.1528 H   0  0  0  0  0  0  0  0  0  0  0  0
   22.8562   19.9284   21.4844 H   0  0  0  0  0  0  0  0  0  0  0  0
   20.9407   20.7858   21.9516 C   0  0  0  0  0  0  0  0  0  0  0  0
   21.3143   21.7575   21.6011 H   0  0  0  0  0  0  0  0  0  0  0  0
   20.4409   20.3516   21.0782 H   0  0  0  0  0  0  0  0  0  0  0  0
   19.9169   21.0672   23.0799 C   0  0  0  0  0  0  0  0  0  0  0  0
   19.1717   21.7696   22.6820 H   0  0  0  0  0  0  0  0  0  0  0  0
   20.4180   21.5980   23.9006 H   0  0  0  0  0  0  0  0  0  0  0  0
   19.1560   19.8465   23.6597 C   0  0  0  0  0  0  0  0  0  0  0  0
   19.7744   19.3350   24.4044 H   0  0  0  0  0  0  0  0  0  0  0  0
   18.3052   20.2422   24.2308 H   0  0  0  0  0  0  0  0  0  0  0  0
   18.6375   18.8348   22.6051 C   0  0  0  0  0  0  0  0  0  0  0  0
   18.5824   19.3208   21.6219 H   0  0  0  0  0  0  0  0  0  0  0  0
   19.4865   17.5438   22.4899 C   0  0  0  0  0  0  0  0  0  0  0  0
   19.5691   17.0713   23.4774 H   0  0  0  0  0  0  0  0  0  0  0  0
   18.9292   16.8329   21.8651 H   0  0  0  0  0  0  0  0  0  0  0  0
   20.9045   17.6898   21.8744 C   0  0  0  0  0  0  0  0  0  0  0  0
   20.8493   18.1210   20.8665 H   0  0  0  0  0  0  0  0  0  0  0  0
   21.2976   16.6741   21.7301 H   0  0  0  0  0  0  0  0  0  0  0  0
   21.9197   18.4613   22.7568 C   0  0  0  0  0  0  0  0  0  0  0  0
   22.8854   17.9402   22.7015 H   0  0  0  0  0  0  0  0  0  0  0  0
   21.6369   18.3987   23.8137 H   0  0  0  0  0  0  0  0  0  0  0  0
   17.3214   18.4430   22.9749 O   0  0  0  0  0  0  0  0  0  0  0  0
   17.3973   18.0099   23.8499 H   0  0  0  0  0  0  0  0  0  0  0  0
  1  2  1  0  0  0  0
  1  3  1  0  0  0  0
  1  4  1  0  0  0  0
  4  5  1  0  0  0  0
  4  6  1  0  0  0  0
  4  7  1  0  0  0  0
  7  8  1  0  0  0  0
  7  9  1  0  0  0  0
  7 10  1  0  0  0  0
 10 11  1  0  0  0  0
 10 12  1  0  0  0  0
 10 13  1  0  0  0  0
 13 14  1  0  0  0  0
 13 15  1  0  0  0  0
 15 16  1  0  0  0  0
 15 17  1  0  0  0  0
 15 18  1  0  0  0  0
 18 19  1  0  0  0  0
 18 20  1  0  0  0  0
  1 21  1  0  0  0  0
 18 21  1  0  0  0  0
 21 22  1  0  0  0  0
 21 23  1  0  0  0  0
 13 24  1  0  0  0  0
 24 25  1  0  0  0  0
M  END
> <VConfSearch Rank>
163

> <Conf_Id>
140

> <Delta U+W>
-1.702

> <U+W>
9.211

> <U>
11.181

> <W>
-1.969

> <W(PB)>
-4.093

> <W(SA)>
2.124

> <Valence>
16.954

> <Coulomb>
-8.661

> <VdW>
2.887

> <VdW6>
-12.561

> <VdW12>
15.448

> <Bond>
0.433

> <Angle>
5.120

> <Pdih>
11.401

> <Idih>
0.000

> <Tether>
0.000

$$$$
VeraChem MOL file


 25 25  0  0  0  0  0  0  0  0999 V2000     
   21.8293   20.5385   22.7233 C   0  0  0  0  0  0  0  0  0  0  0  0
   21.9804   21.2669   21.9151 H   0  0  0  0  0  0  0  0  0  0  0  0
   22.6327   20.7295   23.4479 H   0  0  0  0  0  0  0  0  0  0  0  0
   22.0345   19.1097   22.1568 C   0  0  0  0  0  0  0  0  0  0  0  0
   21.5789   19.0186   21.1643 H   0  0  0  0  0  0  0  0  0  0  0  0
   23.1110   18.9867   21.9751 H   0  0  0  0  0  0  0  0  0  0  0  0
   21.5664   17.9547   23.0794 C   0  0  0  0  0  0  0  0  0  0  0  0
   21.5729   18.2629   24.1328 H   0  0  0  0  0  0  0  0  0  0  0  0
   22.3149   17.1534   23.0109 H   0  0  0  0  0  0  0  0  0  0  0  0
   20.1974   17.3299   22.6965 C   0  0  0  0  0  0  0  0  0  0  0  0
   20.2348   16.9923   21.6525 H   0  0  0  0  0  0  0  0  0  0  0  0
   20.0716   16.4205   23.2993 H   0  0  0  0  0  0  0  0  0  0  0  0
   18.9417   18.2125   22.9087 C   0  0  0  0  0  0  0  0  0  0  0  0
   18.9239   18.5731   23.9458 H   0  0  0  0  0  0  0  0  0  0  0  0
   18.8361   19.4150   21.9353 C   0  0  0  0  0  0  0  0  0  0  0  0
   19.4261   19.2256   21.0328 H   0  0  0  0  0  0  0  0  0  0  0  0
   17.8013   19.5008   21.5769 H   0  0  0  0  0  0  0  0  0  0  0  0
   19.2175   20.7889   22.5454 C   0  0  0  0  0  0  0  0  0  0  0  0
   18.3719   21.1310   23.1577 H   0  0  0  0  0  0  0  0  0  0  0  0
   19.3152   21.5242   21.7353 H   0  0  0  0  0  0  0  0  0  0  0  0
   20.4854   20.8352   23.4346 C   0  0  0  0  0  0  0  0  0  0  0  0
   20.3655   20.1861   24.3095 H   0  0  0  0  0  0  0  0  0  0  0  0
   20.5542   21.8495   23.8509 H   0  0  0  0  0  0  0  0  0  0  0  0
   17.8041   17.3818   22.7137 O   0  0  0  0  0  0  0  0  0  0  0  0
   17.8447   17.0704   21.7862 H   0  0  0  0  0  0  0  0  0  0  0  0
  1  2  1  0  0  0  0
  1  3  1  0  0  0  0
  1  4  1  0  0  0  0
  4  5  1  0  0  0  0
  4  6  1  0  0  0  0
  4  7  1  0  0  0  0
  7  8  1  0  0  0  0
  7  9  1  0  0  0  0
  7 10  1  0  0  0  0
 10 11  1  0  0  0  0
 10 12  1  0  0  0  0
 10 13  1  0  0  0  0
 13 14  1  0  0  0  0
 13 15  1  0  0  0  0
 15 16  1  0  0  0  0
 15 17  1  0  0  0  0
 15 18  1  0  0  0  0
 18 19  1  0  0  0  0
 18 20  1  0  0  0  0
  1 21  1  0  0  0  0
 18 21  1  0  0  0  0
 21 22  1  0  0  0  0
 21 23  1  0  0  0  0
 13 24  1  0  0  0  0
 24 25  1  0  0  0  0
M  END
> <VConfSearch Rank>
164

> <Conf_Id>
68

> <Delta U+W>
-1.765

> <U+W>
9.148

> <U>
11.181

> <W>
-2.032

> <W(PB)>
-4.147

> <W(SA)>
2.114

> <Valence>
16.955

> <Coulomb>
-8.661

> <VdW>
2.887

> <VdW6>
-12.561

> <VdW12>
15.448

> <Bond>
0.433

> <Angle>
5.121

> <Pdih>
11.402

> <Idih>
0.000

> <Tether>
0.000

$$$$
VeraChem MOL file


 25 25  0  0  0  0  0  0  0  0999 V2000     
   21.4892   17.9224   22.0963 C   0  0  0  0  0  0  0  0  0  0  0  0
   22.1367   17.0941   21.7774 H   0  0  0  0  0  0  0  0  0  0  0  0
   22.1845   18.7385   22.3230 H   0  0  0  0  0  0  0  0  0  0  0  0
   20.7344   17.4775   23.3760 C   0  0  0  0  0  0  0  0  0  0  0  0
   19.7443   17.0723   23.1307 H   0  0  0  0  0  0  0  0  0  0  0  0
   21.2887   16.6339   23.8096 H   0  0  0  0  0  0  0  0  0  0  0  0
   20.6271   18.5630   24.4791 C   0  0  0  0  0  0  0  0  0  0  0  0
   21.6336   18.9177   24.7403 H   0  0  0  0  0  0  0  0  0  0  0  0
   20.2409   18.0792   25.3867 H   0  0  0  0  0  0  0  0  0  0  0  0
   19.7178   19.7823   24.1707 C   0  0  0  0  0  0  0  0  0  0  0  0
   18.6995   19.4493   23.9365 H   0  0  0  0  0  0  0  0  0  0  0  0
   19.6268   20.3529   25.1049 H   0  0  0  0  0  0  0  0  0  0  0  0
   20.2603   20.7256   23.0659 C   0  0  0  0  0  0  0  0  0  0  0  0
   21.3371   20.5570   22.9490 H   0  0  0  0  0  0  0  0  0  0  0  0
   19.5702   20.5750   21.6878 C   0  0  0  0  0  0  0  0  0  0  0  0
   18.5955   21.0788   21.7292 H   0  0  0  0  0  0  0  0  0  0  0  0
   20.1607   21.1240   20.9428 H   0  0  0  0  0  0  0  0  0  0  0  0
   19.3241   19.1333   21.1728 C   0  0  0  0  0  0  0  0  0  0  0  0
   18.7646   19.2137   20.2309 H   0  0  0  0  0  0  0  0  0  0  0  0
   18.6508   18.5943   21.8491 H   0  0  0  0  0  0  0  0  0  0  0  0
   20.5900   18.2873   20.8865 C   0  0  0  0  0  0  0  0  0  0  0  0
   21.2017   18.7938   20.1277 H   0  0  0  0  0  0  0  0  0  0  0  0
   20.2584   17.3489   20.4213 H   0  0  0  0  0  0  0  0  0  0  0  0
   20.0789   22.0710   23.4899 O   0  0  0  0  0  0  0  0  0  0  0  0
   19.1148   22.1973   23.6058 H   0  0  0  0  0  0  0  0  0  0  0  0
  1  2  1  0  0  0  0
  1  3  1  0  0  0  0
  1  4  1  0  0  0  0
  4  5  1  0  0  0  0
  4  6  1  0  0  0  0
  4  7  1  0  0  0  0
  7  8  1  0  0  0  0
  7  9  1  0  0  0  0
  7 10  1  0  0  0  0
 10 11  1  0  0  0  0
 10 12  1  0  0  0  0
 10 13  1  0  0  0  0
 13 14  1  0  0  0  0
 13 15  1  0  0  0  0
 15 16  1  0  0  0  0
 15 17  1  0  0  0  0
 15 18  1  0  0  0  0
 18 19  1  0  0  0  0
 18 20  1  0  0  0  0
  1 21  1  0  0  0  0
 18 21  1  0  0  0  0
 21 22  1  0  0  0  0
 21 23  1  0  0  0  0
 13 24  1  0  0  0  0
 24 25  1  0  0  0  0
M  END
> <VConfSearch Rank>
165

> <Conf_Id>
165

> <Delta U+W>
-1.999

> <U+W>
8.915

> <U>
10.935

> <W>
-2.020

> <W(PB)>
-4.135

> <W(SA)>
2.115

> <Valence>
16.757

> <Coulomb>
-8.731

> <VdW>
2.908

> <VdW6>
-12.597

> <VdW12>
15.506

> <Bond>
0.434

> <Angle>
5.069

> <Pdih>
11.254

> <Idih>
0.000

> <Tether>
0.000

$$$$
VeraChem MOL file


 25 25  0  0  0  0  0  0  0  0999 V2000     
   19.8462   20.9371   22.8970 C   0  0  0  0  0  0  0  0  0  0  0  0
   19.6311   22.0116   22.9772 H   0  0  0  0  0  0  0  0  0  0  0  0
   19.0665   20.4589   23.5005 H   0  0  0  0  0  0  0  0  0  0  0  0
   21.2457   20.7066   23.5244 C   0  0  0  0  0  0  0  0  0  0  0  0
   21.8992   21.5253   23.1932 H   0  0  0  0  0  0  0  0  0  0  0  0
   21.1694   20.8118   24.6151 H   0  0  0  0  0  0  0  0  0  0  0  0
   21.9650   19.3766   23.1864 C   0  0  0  0  0  0  0  0  0  0  0  0
   22.9692   19.4258   23.6290 H   0  0  0  0  0  0  0  0  0  0  0  0
   22.1422   19.3030   22.1073 H   0  0  0  0  0  0  0  0  0  0  0  0
   21.2908   18.0840   23.7143 C   0  0  0  0  0  0  0  0  0  0  0  0
   21.9666   17.2469   23.4928 H   0  0  0  0  0  0  0  0  0  0  0  0
   21.2261   18.1394   24.8085 H   0  0  0  0  0  0  0  0  0  0  0  0
   19.8905   17.7368   23.1518 C   0  0  0  0  0  0  0  0  0  0  0  0
   19.1376   18.3638   23.6436 H   0  0  0  0  0  0  0  0  0  0  0  0
   19.7532   17.8965   21.6157 C   0  0  0  0  0  0  0  0  0  0  0  0
   20.7337   17.8400   21.1282 H   0  0  0  0  0  0  0  0  0  0  0  0
   19.1908   17.0370   21.2265 H   0  0  0  0  0  0  0  0  0  0  0  0
   18.9949   19.1736   21.1652 C   0  0  0  0  0  0  0  0  0  0  0  0
   18.0045   19.1939   21.6402 H   0  0  0  0  0  0  0  0  0  0  0  0
   18.8025   19.0851   20.0873 H   0  0  0  0  0  0  0  0  0  0  0  0
   19.7093   20.5294   21.4068 C   0  0  0  0  0  0  0  0  0  0  0  0
   19.1083   21.3015   20.9072 H   0  0  0  0  0  0  0  0  0  0  0  0
   20.6823   20.5525   20.8995 H   0  0  0  0  0  0  0  0  0  0  0  0
   19.6192   16.3815   23.4913 O   0  0  0  0  0  0  0  0  0  0  0  0
   19.6687   16.3199   24.4681 H   0  0  0  0  0  0  0  0  0  0  0  0
  1  2  1  0  0  0  0
  1  3  1  0  0  0  0
  1  4  1  0  0  0  0
  4  5  1  0  0  0  0
  4  6  1  0  0  0  0
  4  7  1  0  0  0  0
  7  8  1  0  0  0  0
  7  9  1  0  0  0  0
  7 10  1  0  0  0  0
 10 11  1  0  0  0  0
 10 12  1  0  0  0  0
 10 13  1  0  0  0  0
 13 14  1  0  0  0  0
 13 15  1  0  0  0  0
 15 16  1  0  0  0  0
 15 17  1  0  0  0  0
 15 18  1  0  0  0  0
 18 19  1  0  0  0  0
 18 20  1  0  0  0  0
  1 21  1  0  0  0  0
 18 21  1  0  0  0  0
 21 22  1  0  0  0  0
 21 23  1  0  0  0  0
 13 24  1  0  0  0  0
 24 25  1  0  0  0  0
M  END
> <VConfSearch Rank>
166

> <Conf_Id>
133

> <Delta U+W>
-2.139

> <U+W>
8.774

> <U>
10.905

> <W>
-2.131

> <W(PB)>
-4.281

> <W(SA)>
2.150

> <Valence>
16.378

> <Coulomb>
-8.448

> <VdW>
2.976

> <VdW6>
-12.570

> <VdW12>
15.545

> <Bond>
0.439

> <Angle>
5.049

> <Pdih>
10.889

> <Idih>
0.000

> <Tether>
0.000

$$$$
VeraChem MOL file


 25 25  0  0  0  0  0  0  0  0999 V2000     
   21.0329   19.6551   21.0354 C   0  0  0  0  0  0  0  0  0  0  0  0
   21.5438   19.8470   20.0819 H   0  0  0  0  0  0  0  0  0  0  0  0
   20.2437   20.4141   21.0776 H   0  0  0  0  0  0  0  0  0  0  0  0
   22.0567   19.8685   22.1808 C   0  0  0  0  0  0  0  0  0  0  0  0
   22.5234   18.9200   22.4760 H   0  0  0  0  0  0  0  0  0  0  0  0
   22.8780   20.4784   21.7800 H   0  0  0  0  0  0  0  0  0  0  0  0
   21.5007   20.6174   23.4205 C   0  0  0  0  0  0  0  0  0  0  0  0
   21.0842   21.5841   23.1058 H   0  0  0  0  0  0  0  0  0  0  0  0
   22.3508   20.8614   24.0721 H   0  0  0  0  0  0  0  0  0  0  0  0
   20.4507   19.8617   24.2780 C   0  0  0  0  0  0  0  0  0  0  0  0
   20.8577   18.9062   24.6295 H   0  0  0  0  0  0  0  0  0  0  0  0
   20.2929   20.4568   25.1876 H   0  0  0  0  0  0  0  0  0  0  0  0
   19.0796   19.6557   23.5837 C   0  0  0  0  0  0  0  0  0  0  0  0
   18.9861   20.3736   22.7604 H   0  0  0  0  0  0  0  0  0  0  0  0
   18.8382   18.2247   23.0436 C   0  0  0  0  0  0  0  0  0  0  0  0
   18.5885   17.5750   23.8934 H   0  0  0  0  0  0  0  0  0  0  0  0
   17.9488   18.2373   22.4006 H   0  0  0  0  0  0  0  0  0  0  0  0
   20.0039   17.5531   22.2729 C   0  0  0  0  0  0  0  0  0  0  0  0
   19.6891   16.5287   22.0318 H   0  0  0  0  0  0  0  0  0  0  0  0
   20.8740   17.4278   22.9274 H   0  0  0  0  0  0  0  0  0  0  0  0
   20.4226   18.2321   20.9447 C   0  0  0  0  0  0  0  0  0  0  0  0
   19.5629   18.2556   20.2614 H   0  0  0  0  0  0  0  0  0  0  0  0
   21.1649   17.5803   20.4639 H   0  0  0  0  0  0  0  0  0  0  0  0
   18.0497   19.9350   24.5254 O   0  0  0  0  0  0  0  0  0  0  0  0
   17.1985   19.8411   24.0489 H   0  0  0  0  0  0  0  0  0  0  0  0
  1  2  1  0  0  0  0
  1  3  1  0  0  0  0
  1  4  1  0  0  0  0
  4  5  1  0  0  0  0
  4  6  1  0  0  0  0
  4  7  1  0  0  0  0
  7  8  1  0  0  0  0
  7  9  1  0  0  0  0
  7 10  1  0  0  0  0
 10 11  1  0  0  0  0
 10 12  1  0  0  0  0
 10 13  1  0  0  0  0
 13 14  1  0  0  0  0
 13 15  1  0  0  0  0
 15 16  1  0  0  0  0
 15 17  1  0  0  0  0
 15 18  1  0  0  0  0
 18 19  1  0  0  0  0
 18 20  1  0  0  0  0
  1 21  1  0  0  0  0
 18 21  1  0  0  0  0
 21 22  1  0  0  0  0
 21 23  1  0  0  0  0
 13 24  1  0  0  0  0
 24 25  1  0  0  0  0
M  END
> <VConfSearch Rank>
167

> <Conf_Id>
95

> <Delta U+W>
-2.190

> <U+W>
8.723

> <U>
10.905

> <W>
-2.182

> <W(PB)>
-4.296

> <W(SA)>
2.114

> <Valence>
16.377

> <Coulomb>
-8.448

> <VdW>
2.976

> <VdW6>
-12.570

> <VdW12>
15.546

> <Bond>
0.439

> <Angle>
5.049

> <Pdih>
10.889

> <Idih>
0.000

> <Tether>
0.000

$$$$
VeraChem MOL file


 25 25  0  0  0  0  0  0  0  0999 V2000     
   18.8078   18.1264   22.8378 C   0  0  0  0  0  0  0  0  0  0  0  0
   17.9760   17.4104   22.8872 H   0  0  0  0  0  0  0  0  0  0  0  0
   18.3211   19.0927   23.0040 H   0  0  0  0  0  0  0  0  0  0  0  0
   19.3982   18.0398   21.3997 C   0  0  0  0  0  0  0  0  0  0  0  0
   19.3193   16.9930   21.0756 H   0  0  0  0  0  0  0  0  0  0  0  0
   18.7531   18.6066   20.7149 H   0  0  0  0  0  0  0  0  0  0  0  0
   20.8738   18.4679   21.1858 C   0  0  0  0  0  0  0  0  0  0  0  0
   21.1428   18.2269   20.1483 H   0  0  0  0  0  0  0  0  0  0  0  0
   21.5277   17.8189   21.7769 H   0  0  0  0  0  0  0  0  0  0  0  0
   21.2264   19.9678   21.4149 C   0  0  0  0  0  0  0  0  0  0  0  0
   22.3066   20.0554   21.5906 H   0  0  0  0  0  0  0  0  0  0  0  0
   21.0362   20.4905   20.4684 H   0  0  0  0  0  0  0  0  0  0  0  0
   20.4684   20.7383   22.5255 C   0  0  0  0  0  0  0  0  0  0  0  0
   19.3969   20.6789   22.3088 H   0  0  0  0  0  0  0  0  0  0  0  0
   20.7276   20.2944   23.9939 C   0  0  0  0  0  0  0  0  0  0  0  0
   21.6199   20.8237   24.3545 H   0  0  0  0  0  0  0  0  0  0  0  0
   19.8986   20.6570   24.6148 H   0  0  0  0  0  0  0  0  0  0  0  0
   20.9513   18.7853   24.2832 C   0  0  0  0  0  0  0  0  0  0  0  0
   21.2221   18.6874   25.3433 H   0  0  0  0  0  0  0  0  0  0  0  0
   21.8493   18.4457   23.7576 H   0  0  0  0  0  0  0  0  0  0  0  0
   19.7590   17.8185   24.0243 C   0  0  0  0  0  0  0  0  0  0  0  0
   19.1427   17.8060   24.9336 H   0  0  0  0  0  0  0  0  0  0  0  0
   20.1469   16.7962   23.9202 H   0  0  0  0  0  0  0  0  0  0  0  0
   20.8440   22.1071   22.4252 O   0  0  0  0  0  0  0  0  0  0  0  0
   20.6173   22.3969   21.5171 H   0  0  0  0  0  0  0  0  0  0  0  0
  1  2  1  0  0  0  0
  1  3  1  0  0  0  0
  1  4  1  0  0  0  0
  4  5  1  0  0  0  0
  4  6  1  0  0  0  0
  4  7  1  0  0  0  0
  7  8  1  0  0  0  0
  7  9  1  0  0  0  0
  7 10  1  0  0  0  0
 10 11  1  0  0  0  0
 10 12  1  0  0  0  0
 10 13  1  0  0  0  0
 13 14  1  0  0  0  0
 13 15  1  0  0  0  0
 15 16  1  0  0  0  0
 15 17  1  0  0  0  0
 15 18  1  0  0  0  0
 18 19  1  0  0  0  0
 18 20  1  0  0  0  0
  1 21  1  0  0  0  0
 18 21  1  0  0  0  0
 21 22  1  0  0  0  0
 21 23  1  0  0  0  0
 13 24  1  0  0  0  0
 24 25  1  0  0  0  0
M  END
> <VConfSearch Rank>
168

> <Conf_Id>
161

> <Delta U+W>
2.120

> <U+W>
13.033

> <U>
15.076

> <W>
-2.043

> <W(PB)>
-4.186

> <W(SA)>
2.143

> <Valence>
18.884

> <Coulomb>
-8.074

> <VdW>
4.266

> <VdW6>
-13.486

> <VdW12>
17.752

> <Bond>
0.713

> <Angle>
8.955

> <Pdih>
9.215

> <Idih>
0.000

> <Tether>
0.000

$$$$
VeraChem MOL file


 25 25  0  0  0  0  0  0  0  0999 V2000     
   21.1959   17.5163   23.1731 C   0  0  0  0  0  0  0  0  0  0  0  0
   21.5514   16.6201   23.6997 H   0  0  0  0  0  0  0  0  0  0  0  0
   21.8446   17.5984   22.2918 H   0  0  0  0  0  0  0  0  0  0  0  0
   21.4122   18.7355   24.1039 C   0  0  0  0  0  0  0  0  0  0  0  0
   20.5566   18.8674   24.7797 H   0  0  0  0  0  0  0  0  0  0  0  0
   22.2621   18.4912   24.7560 H   0  0  0  0  0  0  0  0  0  0  0  0
   21.7678   20.0646   23.3811 C   0  0  0  0  0  0  0  0  0  0  0  0
   22.4204   19.8833   22.5165 H   0  0  0  0  0  0  0  0  0  0  0  0
   22.3731   20.6550   24.0827 H   0  0  0  0  0  0  0  0  0  0  0  0
   20.5563   20.9464   22.9819 C   0  0  0  0  0  0  0  0  0  0  0  0
   19.7609   20.8469   23.7304 H   0  0  0  0  0  0  0  0  0  0  0  0
   20.8731   21.9959   23.0436 H   0  0  0  0  0  0  0  0  0  0  0  0
   19.9997   20.7382   21.5506 C   0  0  0  0  0  0  0  0  0  0  0  0
   20.7397   21.1335   20.8400 H   0  0  0  0  0  0  0  0  0  0  0  0
   19.6930   19.2803   21.1367 C   0  0  0  0  0  0  0  0  0  0  0  0
   19.1019   19.3023   20.2115 H   0  0  0  0  0  0  0  0  0  0  0  0
   20.6284   18.7872   20.8509 H   0  0  0  0  0  0  0  0  0  0  0  0
   18.9289   18.4458   22.1992 C   0  0  0  0  0  0  0  0  0  0  0  0
   18.0017   18.0651   21.7496 H   0  0  0  0  0  0  0  0  0  0  0  0
   18.5994   19.0731   23.0354 H   0  0  0  0  0  0  0  0  0  0  0  0
   19.7291   17.2406   22.7485 C   0  0  0  0  0  0  0  0  0  0  0  0
   19.7365   16.4466   21.9893 H   0  0  0  0  0  0  0  0  0  0  0  0
   19.1826   16.8275   23.6073 H   0  0  0  0  0  0  0  0  0  0  0  0
   18.8024   21.4937   21.4317 O   0  0  0  0  0  0  0  0  0  0  0  0
   18.1352   21.0253   21.9733 H   0  0  0  0  0  0  0  0  0  0  0  0
  1  2  1  0  0  0  0
  1  3  1  0  0  0  0
  1  4  1  0  0  0  0
  4  5  1  0  0  0  0
  4  6  1  0  0  0  0
  4  7  1  0  0  0  0
  7  8  1  0  0  0  0
  7  9  1  0  0  0  0
  7 10  1  0  0  0  0
 10 11  1  0  0  0  0
 10 12  1  0  0  0  0
 10 13  1  0  0  0  0
 13 14  1  0  0  0  0
 13 15  1  0  0  0  0
 15 16  1  0  0  0  0
 15 17  1  0  0  0  0
 15 18  1  0  0  0  0
 18 19  1  0  0  0  0
 18 20  1  0  0  0  0
  1 21  1  0  0  0  0
 18 21  1  0  0  0  0
 21 22  1  0  0  0  0
 21 23  1  0  0  0  0
 13 24  1  0  0  0  0
 24 25  1  0  0  0  0
M  END
> <VConfSearch Rank>
169

> <Conf_Id>
164

> <Delta U+W>
0.008

> <U+W>
10.922

> <U>
12.433

> <W>
-1.511

> <W(PB)>
-3.669

> <W(SA)>
2.157

> <Valence>
19.007

> <Coulomb>
-9.373

> <VdW>
2.799

> <VdW6>
-12.597

> <VdW12>
15.396

> <Bond>
0.425

> <Angle>
4.784

> <Pdih>
13.799

> <Idih>
0.000

> <Tether>
0.000

$$$$
VeraChem MOL file


 25 25  0  0  0  0  0  0  0  0999 V2000     
   19.5553   17.6209   22.1840 C   0  0  0  0  0  0  0  0  0  0  0  0
   19.5732   17.6272   23.2797 H   0  0  0  0  0  0  0  0  0  0  0  0
   19.0973   16.6578   21.9207 H   0  0  0  0  0  0  0  0  0  0  0  0
   20.9980   17.6134   21.6198 C   0  0  0  0  0  0  0  0  0  0  0  0
   21.4931   16.7074   21.9951 H   0  0  0  0  0  0  0  0  0  0  0  0
   20.9600   17.5002   20.5279 H   0  0  0  0  0  0  0  0  0  0  0  0
   21.8997   18.8250   21.9687 C   0  0  0  0  0  0  0  0  0  0  0  0
   21.7074   19.6581   21.2831 H   0  0  0  0  0  0  0  0  0  0  0  0
   22.9363   18.5289   21.7570 H   0  0  0  0  0  0  0  0  0  0  0  0
   21.8241   19.3046   23.4428 C   0  0  0  0  0  0  0  0  0  0  0  0
   21.4978   18.4924   24.1036 H   0  0  0  0  0  0  0  0  0  0  0  0
   22.8477   19.5440   23.7608 H   0  0  0  0  0  0  0  0  0  0  0  0
   20.9703   20.5771   23.6714 C   0  0  0  0  0  0  0  0  0  0  0  0
   21.3295   21.3582   22.9861 H   0  0  0  0  0  0  0  0  0  0  0  0
   19.4405   20.4292   23.4752 C   0  0  0  0  0  0  0  0  0  0  0  0
   19.0359   19.6540   24.1371 H   0  0  0  0  0  0  0  0  0  0  0  0
   18.9817   21.3680   23.8133 H   0  0  0  0  0  0  0  0  0  0  0  0
   18.9896   20.1980   22.0082 C   0  0  0  0  0  0  0  0  0  0  0  0
   19.7394   20.5866   21.3098 H   0  0  0  0  0  0  0  0  0  0  0  0
   18.0975   20.8118   21.8228 H   0  0  0  0  0  0  0  0  0  0  0  0
   18.6200   18.7353   21.6521 C   0  0  0  0  0  0  0  0  0  0  0  0
   18.5325   18.6455   20.5609 H   0  0  0  0  0  0  0  0  0  0  0  0
   17.6145   18.5373   22.0478 H   0  0  0  0  0  0  0  0  0  0  0  0
   21.1934   21.0116   25.0058 O   0  0  0  0  0  0  0  0  0  0  0  0
   20.8640   20.2964   25.5878 H   0  0  0  0  0  0  0  0  0  0  0  0
  1  2  1  0  0  0  0
  1  3  1  0  0  0  0
  1  4  1  0  0  0  0
  4  5  1  0  0  0  0
  4  6  1  0  0  0  0
  4  7  1  0  0  0  0
  7  8  1  0  0  0  0
  7  9  1  0  0  0  0
  7 10  1  0  0  0  0
 10 11  1  0  0  0  0
 10 12  1  0  0  0  0
 10 13  1  0  0  0  0
 13 14  1  0  0  0  0
 13 15  1  0  0  0  0
 15 16  1  0  0  0  0
 15 17  1  0  0  0  0
 15 18  1  0  0  0  0
 18 19  1  0  0  0  0
 18 20  1  0  0  0  0
  1 21  1  0  0  0  0
 18 21  1  0  0  0  0
 21 22  1  0  0  0  0
 21 23  1  0  0  0  0
 13 24  1  0  0  0  0
 24 25  1  0  0  0  0
M  END
> <VConfSearch Rank>
170

> <Conf_Id>
15

> <Delta U+W>
-1.271

> <U+W>
9.643

> <U>
11.413

> <W>
-1.770

> <W(PB)>
-3.908

> <W(SA)>
2.138

> <Valence>
17.496

> <Coulomb>
-8.736

> <VdW>
2.653

> <VdW6>
-12.485

> <VdW12>
15.138

> <Bond>
0.414

> <Angle>
5.295

> <Pdih>
11.787

> <Idih>
0.000

> <Tether>
0.000

$$$$
VeraChem MOL file


 25 25  0  0  0  0  0  0  0  0999 V2000     
   18.5234   18.9682   23.2063 C   0  0  0  0  0  0  0  0  0  0  0  0
   17.4394   18.8413   23.3323 H   0  0  0  0  0  0  0  0  0  0  0  0
   18.8673   19.3952   24.1569 H   0  0  0  0  0  0  0  0  0  0  0  0
   19.1233   17.5534   22.9934 C   0  0  0  0  0  0  0  0  0  0  0  0
   18.9989   16.9865   23.9261 H   0  0  0  0  0  0  0  0  0  0  0  0
   18.5249   17.0233   22.2399 H   0  0  0  0  0  0  0  0  0  0  0  0
   20.6097   17.4865   22.5672 C   0  0  0  0  0  0  0  0  0  0  0  0
   20.6941   17.7027   21.4958 H   0  0  0  0  0  0  0  0  0  0  0  0
   20.9474   16.4463   22.6709 H   0  0  0  0  0  0  0  0  0  0  0  0
   21.5488   18.4004   23.3968 C   0  0  0  0  0  0  0  0  0  0  0  0
   21.0208   18.8252   24.2577 H   0  0  0  0  0  0  0  0  0  0  0  0
   22.3427   17.7790   23.8313 H   0  0  0  0  0  0  0  0  0  0  0  0
   22.2300   19.5257   22.5845 C   0  0  0  0  0  0  0  0  0  0  0  0
   23.0119   19.0623   21.9658 H   0  0  0  0  0  0  0  0  0  0  0  0
   21.3187   20.3420   21.6318 C   0  0  0  0  0  0  0  0  0  0  0  0
   21.9124   21.1927   21.2711 H   0  0  0  0  0  0  0  0  0  0  0  0
   21.1011   19.7584   20.7293 H   0  0  0  0  0  0  0  0  0  0  0  0
   19.9974   20.8979   22.2272 C   0  0  0  0  0  0  0  0  0  0  0  0
   19.7768   21.8310   21.6908 H   0  0  0  0  0  0  0  0  0  0  0  0
   20.1280   21.1925   23.2764 H   0  0  0  0  0  0  0  0  0  0  0  0
   18.7559   19.9795   22.0567 C   0  0  0  0  0  0  0  0  0  0  0  0
   18.7695   19.4691   21.0844 H   0  0  0  0  0  0  0  0  0  0  0  0
   17.8758   20.6366   22.0275 H   0  0  0  0  0  0  0  0  0  0  0  0
   22.8445   20.4230   23.4987 O   0  0  0  0  0  0  0  0  0  0  0  0
   22.1118   20.8798   23.9588 H   0  0  0  0  0  0  0  0  0  0  0  0
  1  2  1  0  0  0  0
  1  3  1  0  0  0  0
  1  4  1  0  0  0  0
  4  5  1  0  0  0  0
  4  6  1  0  0  0  0
  4  7  1  0  0  0  0
  7  8  1  0  0  0  0
  7  9  1  0  0  0  0
  7 10  1  0  0  0  0
 10 11  1  0  0  0  0
 10 12  1  0  0  0  0
 10 13  1  0  0  0  0
 13 14  1  0  0  0  0
 13 15  1  0  0  0  0
 15 16  1  0  0  0  0
 15 17  1  0  0  0  0
 15 18  1  0  0  0  0
 18 19  1  0  0  0  0
 18 20  1  0  0  0  0
  1 21  1  0  0  0  0
 18 21  1  0  0  0  0
 21 22  1  0  0  0  0
 21 23  1  0  0  0  0
 13 24  1  0  0  0  0
 24 25  1  0  0  0  0
M  END
> <VConfSearch Rank>
171

> <Conf_Id>
115

> <Delta U+W>
0.038

> <U+W>
10.952

> <U>
12.526

> <W>
-1.575

> <W(PB)>
-3.698

> <W(SA)>
2.123

> <Valence>
19.016

> <Coulomb>
-9.226

> <VdW>
2.737

> <VdW6>
-12.612

> <VdW12>
15.349

> <Bond>
0.421

> <Angle>
4.883

> <Pdih>
13.711

> <Idih>
0.000

> <Tether>
0.000

$$$$
VeraChem MOL file


 25 25  0  0  0  0  0  0  0  0999 V2000     
   20.4114   18.4311   24.6345 C   0  0  0  0  0  0  0  0  0  0  0  0
   20.9077   17.9115   25.4656 H   0  0  0  0  0  0  0  0  0  0  0  0
   19.4982   18.8658   25.0628 H   0  0  0  0  0  0  0  0  0  0  0  0
   20.0459   17.3638   23.5767 C   0  0  0  0  0  0  0  0  0  0  0  0
   20.9519   16.8436   23.2372 H   0  0  0  0  0  0  0  0  0  0  0  0
   19.4373   16.5991   24.0785 H   0  0  0  0  0  0  0  0  0  0  0  0
   19.2448   17.8887   22.3628 C   0  0  0  0  0  0  0  0  0  0  0  0
   18.4769   18.6013   22.6920 H   0  0  0  0  0  0  0  0  0  0  0  0
   18.6914   17.0380   21.9417 H   0  0  0  0  0  0  0  0  0  0  0  0
   20.1211   18.4825   21.2273 C   0  0  0  0  0  0  0  0  0  0  0  0
   21.1783   18.2216   21.3616 H   0  0  0  0  0  0  0  0  0  0  0  0
   19.8169   17.9960   20.2906 H   0  0  0  0  0  0  0  0  0  0  0  0
   19.9737   20.0091   21.0384 C   0  0  0  0  0  0  0  0  0  0  0  0
   18.9288   20.2921   21.2301 H   0  0  0  0  0  0  0  0  0  0  0  0
   20.8974   20.8615   21.9365 C   0  0  0  0  0  0  0  0  0  0  0  0
   21.9486   20.6357   21.7139 H   0  0  0  0  0  0  0  0  0  0  0  0
   20.7522   21.9133   21.6569 H   0  0  0  0  0  0  0  0  0  0  0  0
   20.6380   20.7433   23.4582 C   0  0  0  0  0  0  0  0  0  0  0  0
   19.5590   20.7308   23.6626 H   0  0  0  0  0  0  0  0  0  0  0  0
   21.0117   21.6645   23.9259 H   0  0  0  0  0  0  0  0  0  0  0  0
   21.3575   19.5515   24.1423 C   0  0  0  0  0  0  0  0  0  0  0  0
   21.8814   19.9466   25.0236 H   0  0  0  0  0  0  0  0  0  0  0  0
   22.1443   19.1341   23.5001 H   0  0  0  0  0  0  0  0  0  0  0  0
   20.2892   20.3178   19.6861 O   0  0  0  0  0  0  0  0  0  0  0  0
   20.1382   21.2793   19.5724 H   0  0  0  0  0  0  0  0  0  0  0  0
  1  2  1  0  0  0  0
  1  3  1  0  0  0  0
  1  4  1  0  0  0  0
  4  5  1  0  0  0  0
  4  6  1  0  0  0  0
  4  7  1  0  0  0  0
  7  8  1  0  0  0  0
  7  9  1  0  0  0  0
  7 10  1  0  0  0  0
 10 11  1  0  0  0  0
 10 12  1  0  0  0  0
 10 13  1  0  0  0  0
 13 14  1  0  0  0  0
 13 15  1  0  0  0  0
 15 16  1  0  0  0  0
 15 17  1  0  0  0  0
 15 18  1  0  0  0  0
 18 19  1  0  0  0  0
 18 20  1  0  0  0  0
  1 21  1  0  0  0  0
 18 21  1  0  0  0  0
 21 22  1  0  0  0  0
 21 23  1  0  0  0  0
 13 24  1  0  0  0  0
 24 25  1  0  0  0  0
M  END
> <VConfSearch Rank>
172

> <Conf_Id>
30

> <Delta U+W>
0.000

> <U+W>
10.913

> <U>
13.140

> <W>
-2.227

> <W(PB)>
-4.367

> <W(SA)>
2.140

> <Valence>
19.155

> <Coulomb>
-8.157

> <VdW>
2.142

> <VdW6>
-11.576

> <VdW12>
13.718

> <Bond>
0.294

> <Angle>
3.547

> <Pdih>
15.314

> <Idih>
0.000

> <Tether>
0.000

$$$$
VeraChem MOL file


 25 25  0  0  0  0  0  0  0  0999 V2000     
   21.7043   18.7922   21.1080 C   0  0  0  0  0  0  0  0  0  0  0  0
   22.4402   17.9873   20.9763 H   0  0  0  0  0  0  0  0  0  0  0  0
   21.8427   19.4641   20.2500 H   0  0  0  0  0  0  0  0  0  0  0  0
   22.0570   19.5738   22.3976 C   0  0  0  0  0  0  0  0  0  0  0  0
   23.1438   19.7334   22.4098 H   0  0  0  0  0  0  0  0  0  0  0  0
   21.6298   20.5819   22.3456 H   0  0  0  0  0  0  0  0  0  0  0  0
   21.6469   18.8609   23.7111 C   0  0  0  0  0  0  0  0  0  0  0  0
   22.5359   18.7556   24.3477 H   0  0  0  0  0  0  0  0  0  0  0  0
   21.3198   17.8331   23.5155 H   0  0  0  0  0  0  0  0  0  0  0  0
   20.5602   19.6092   24.5238 C   0  0  0  0  0  0  0  0  0  0  0  0
   20.2057   18.9447   25.3229 H   0  0  0  0  0  0  0  0  0  0  0  0
   21.0305   20.4631   25.0287 H   0  0  0  0  0  0  0  0  0  0  0  0
   19.3400   20.1447   23.7336 C   0  0  0  0  0  0  0  0  0  0  0  0
   19.6554   20.9945   23.1136 H   0  0  0  0  0  0  0  0  0  0  0  0
   18.6362   19.1054   22.8271 C   0  0  0  0  0  0  0  0  0  0  0  0
   18.7187   18.1014   23.2627 H   0  0  0  0  0  0  0  0  0  0  0  0
   17.5614   19.3309   22.8200 H   0  0  0  0  0  0  0  0  0  0  0  0
   19.1029   19.1063   21.3439 C   0  0  0  0  0  0  0  0  0  0  0  0
   19.3131   20.1258   20.9936 H   0  0  0  0  0  0  0  0  0  0  0  0
   18.2513   18.7611   20.7415 H   0  0  0  0  0  0  0  0  0  0  0  0
   20.2887   18.1613   21.0281 C   0  0  0  0  0  0  0  0  0  0  0  0
   20.1612   17.7918   20.0013 H   0  0  0  0  0  0  0  0  0  0  0  0
   20.2300   17.2635   21.6565 H   0  0  0  0  0  0  0  0  0  0  0  0
   18.3975   20.6201   24.6876 O   0  0  0  0  0  0  0  0  0  0  0  0
   17.6651   21.0294   24.1812 H   0  0  0  0  0  0  0  0  0  0  0  0
  1  2  1  0  0  0  0
  1  3  1  0  0  0  0
  1  4  1  0  0  0  0
  4  5  1  0  0  0  0
  4  6  1  0  0  0  0
  4  7  1  0  0  0  0
  7  8  1  0  0  0  0
  7  9  1  0  0  0  0
  7 10  1  0  0  0  0
 10 11  1  0  0  0  0
 10 12  1  0  0  0  0
 10 13  1  0  0  0  0
 13 14  1  0  0  0  0
 13 15  1  0  0  0  0
 15 16  1  0  0  0  0
 15 17  1  0  0  0  0
 15 18  1  0  0  0  0
 18 19  1  0  0  0  0
 18 20  1  0  0  0  0
  1 21  1  0  0  0  0
 18 21  1  0  0  0  0
 21 22  1  0  0  0  0
 21 23  1  0  0  0  0
 13 24  1  0  0  0  0
 24 25  1  0  0  0  0
M  END
> <VConfSearch Rank>
173

> <Conf_Id>
162

> <Delta U+W>
0.219

> <U+W>
11.132

> <U>
13.296

> <W>
-2.164

> <W(PB)>
-4.311

> <W(SA)>
2.148

> <Valence>
18.607

> <Coulomb>
-8.339

> <VdW>
3.028

> <VdW6>
-12.271

> <VdW12>
15.299

> <Bond>
0.423

> <Angle>
4.488

> <Pdih>
13.696

> <Idih>
0.000

> <Tether>
0.000

$$$$
VeraChem MOL file


 25 25  0  0  0  0  0  0  0  0999 V2000     
   19.8256   17.6017   23.7068 C   0  0  0  0  0  0  0  0  0  0  0  0
   20.7757   17.1520   23.3917 H   0  0  0  0  0  0  0  0  0  0  0  0
   19.3634   16.8494   24.3606 H   0  0  0  0  0  0  0  0  0  0  0  0
   20.0963   18.8699   24.5541 C   0  0  0  0  0  0  0  0  0  0  0  0
   19.2106   19.5190   24.5783 H   0  0  0  0  0  0  0  0  0  0  0  0
   20.2399   18.5356   25.5908 H   0  0  0  0  0  0  0  0  0  0  0  0
   21.3686   19.6705   24.1593 C   0  0  0  0  0  0  0  0  0  0  0  0
   22.1833   18.9981   23.8587 H   0  0  0  0  0  0  0  0  0  0  0  0
   21.7252   20.1691   25.0711 H   0  0  0  0  0  0  0  0  0  0  0  0
   21.1492   20.7801   23.0982 C   0  0  0  0  0  0  0  0  0  0  0  0
   20.1529   21.2227   23.2199 H   0  0  0  0  0  0  0  0  0  0  0  0
   21.8497   21.5965   23.3170 H   0  0  0  0  0  0  0  0  0  0  0  0
   21.3892   20.3769   21.6213 C   0  0  0  0  0  0  0  0  0  0  0  0
   22.4704   20.2308   21.4838 H   0  0  0  0  0  0  0  0  0  0  0  0
   20.6859   19.0852   21.1408 C   0  0  0  0  0  0  0  0  0  0  0  0
   20.7620   19.0320   20.0470 H   0  0  0  0  0  0  0  0  0  0  0  0
   21.2534   18.2183   21.4957 H   0  0  0  0  0  0  0  0  0  0  0  0
   19.1917   18.9708   21.5427 C   0  0  0  0  0  0  0  0  0  0  0  0
   18.5893   18.8499   20.6322 H   0  0  0  0  0  0  0  0  0  0  0  0
   18.8343   19.9052   21.9914 H   0  0  0  0  0  0  0  0  0  0  0  0
   18.8792   17.7882   22.4912 C   0  0  0  0  0  0  0  0  0  0  0  0
   18.8855   16.8576   21.9076 H   0  0  0  0  0  0  0  0  0  0  0  0
   17.8500   17.9042   22.8572 H   0  0  0  0  0  0  0  0  0  0  0  0
   20.9617   21.4577   20.8008 O   0  0  0  0  0  0  0  0  0  0  0  0
   21.1177   21.1858   19.8729 H   0  0  0  0  0  0  0  0  0  0  0  0
  1  2  1  0  0  0  0
  1  3  1  0  0  0  0
  1  4  1  0  0  0  0
  4  5  1  0  0  0  0
  4  6  1  0  0  0  0
  4  7  1  0  0  0  0
  7  8  1  0  0  0  0
  7  9  1  0  0  0  0
  7 10  1  0  0  0  0
 10 11  1  0  0  0  0
 10 12  1  0  0  0  0
 10 13  1  0  0  0  0
 13 14  1  0  0  0  0
 13 15  1  0  0  0  0
 15 16  1  0  0  0  0
 15 17  1  0  0  0  0
 15 18  1  0  0  0  0
 18 19  1  0  0  0  0
 18 20  1  0  0  0  0
  1 21  1  0  0  0  0
 18 21  1  0  0  0  0
 21 22  1  0  0  0  0
 21 23  1  0  0  0  0
 13 24  1  0  0  0  0
 24 25  1  0  0  0  0
M  END
> <VConfSearch Rank>
174

> <Conf_Id>
155

> <Delta U+W>
0.339

> <U+W>
11.252

> <U>
13.420

> <W>
-2.167

> <W(PB)>
-4.325

> <W(SA)>
2.157

> <Valence>
18.609

> <Coulomb>
-8.052

> <VdW>
2.863

> <VdW6>
-12.524

> <VdW12>
15.387

> <Bond>
0.430

> <Angle>
4.724

> <Pdih>
13.455

> <Idih>
0.000

> <Tether>
0.000

$$$$
VeraChem MOL file


 25 25  0  0  0  0  0  0  0  0999 V2000     
   21.8142   18.0544   23.4017 C   0  0  0  0  0  0  0  0  0  0  0  0
   21.9190   18.0836   24.4947 H   0  0  0  0  0  0  0  0  0  0  0  0
   22.5776   17.3451   23.0538 H   0  0  0  0  0  0  0  0  0  0  0  0
   20.4344   17.4465   23.0367 C   0  0  0  0  0  0  0  0  0  0  0  0
   20.3756   17.3084   21.9524 H   0  0  0  0  0  0  0  0  0  0  0  0
   20.4099   16.4203   23.4279 H   0  0  0  0  0  0  0  0  0  0  0  0
   19.1644   18.1701   23.5722 C   0  0  0  0  0  0  0  0  0  0  0  0
   18.9666   17.7839   24.5812 H   0  0  0  0  0  0  0  0  0  0  0  0
   18.2997   17.8664   22.9666 H   0  0  0  0  0  0  0  0  0  0  0  0
   19.1929   19.7194   23.6768 C   0  0  0  0  0  0  0  0  0  0  0  0
   18.2790   20.0296   24.2001 H   0  0  0  0  0  0  0  0  0  0  0  0
   19.9873   20.0184   24.3662 H   0  0  0  0  0  0  0  0  0  0  0  0
   19.2870   20.5388   22.3562 C   0  0  0  0  0  0  0  0  0  0  0  0
   19.7084   21.5239   22.6026 H   0  0  0  0  0  0  0  0  0  0  0  0
   20.1215   19.9409   21.1958 C   0  0  0  0  0  0  0  0  0  0  0  0
   19.6799   18.9873   20.8926 H   0  0  0  0  0  0  0  0  0  0  0  0
   19.9750   20.5846   20.3184 H   0  0  0  0  0  0  0  0  0  0  0  0
   21.6596   19.7989   21.4022 C   0  0  0  0  0  0  0  0  0  0  0  0
   22.1192   20.7551   21.1171 H   0  0  0  0  0  0  0  0  0  0  0  0
   22.0475   19.0627   20.6855 H   0  0  0  0  0  0  0  0  0  0  0  0
   22.1801   19.4522   22.8219 C   0  0  0  0  0  0  0  0  0  0  0  0
   21.8969   20.2485   23.5173 H   0  0  0  0  0  0  0  0  0  0  0  0
   23.2767   19.5130   22.7964 H   0  0  0  0  0  0  0  0  0  0  0  0
   17.9647   20.7236   21.8626 O   0  0  0  0  0  0  0  0  0  0  0  0
   17.4517   21.1492   22.5802 H   0  0  0  0  0  0  0  0  0  0  0  0
  1  2  1  0  0  0  0
  1  3  1  0  0  0  0
  1  4  1  0  0  0  0
  4  5  1  0  0  0  0
  4  6  1  0  0  0  0
  4  7  1  0  0  0  0
  7  8  1  0  0  0  0
  7  9  1  0  0  0  0
  7 10  1  0  0  0  0
 10 11  1  0  0  0  0
 10 12  1  0  0  0  0
 10 13  1  0  0  0  0
 13 14  1  0  0  0  0
 13 15  1  0  0  0  0
 15 16  1  0  0  0  0
 15 17  1  0  0  0  0
 15 18  1  0  0  0  0
 18 19  1  0  0  0  0
 18 20  1  0  0  0  0
  1 21  1  0  0  0  0
 18 21  1  0  0  0  0
 21 22  1  0  0  0  0
 21 23  1  0  0  0  0
 13 24  1  0  0  0  0
 24 25  1  0  0  0  0
M  END
> <VConfSearch Rank>
175

> <Conf_Id>
146

> <Delta U+W>
2.553

> <U+W>
13.466

> <U>
15.643

> <W>
-2.176

> <W(PB)>
-4.307

> <W(SA)>
2.131

> <Valence>
18.916

> <Coulomb>
-7.506

> <VdW>
4.232

> <VdW6>
-13.632

> <VdW12>
17.864

> <Bond>
0.735

> <Angle>
9.140

> <Pdih>
9.042

> <Idih>
0.000

> <Tether>
0.000

$$$$
VeraChem MOL file


 25 25  0  0  0  0  0  0  0  0999 V2000     
   19.0277   20.0251   24.0883 C   0  0  0  0  0  0  0  0  0  0  0  0
   17.9914   20.3080   23.8590 H   0  0  0  0  0  0  0  0  0  0  0  0
   19.1654   20.2450   25.1558 H   0  0  0  0  0  0  0  0  0  0  0  0
   19.9948   20.9423   23.2988 C   0  0  0  0  0  0  0  0  0  0  0  0
   19.8047   21.9739   23.6251 H   0  0  0  0  0  0  0  0  0  0  0  0
   21.0320   20.7467   23.5940 H   0  0  0  0  0  0  0  0  0  0  0  0
   19.8542   20.9151   21.7561 C   0  0  0  0  0  0  0  0  0  0  0  0
   20.5151   21.6931   21.3500 H   0  0  0  0  0  0  0  0  0  0  0  0
   18.8348   21.2160   21.4789 H   0  0  0  0  0  0  0  0  0  0  0  0
   20.1972   19.5815   21.0422 C   0  0  0  0  0  0  0  0  0  0  0  0
   19.3457   18.8953   21.0886 H   0  0  0  0  0  0  0  0  0  0  0  0
   20.3093   19.8073   19.9731 H   0  0  0  0  0  0  0  0  0  0  0  0
   21.4817   18.8756   21.5479 C   0  0  0  0  0  0  0  0  0  0  0  0
   22.1188   19.6010   22.0715 H   0  0  0  0  0  0  0  0  0  0  0  0
   21.2153   17.6631   22.4757 C   0  0  0  0  0  0  0  0  0  0  0  0
   20.5514   16.9552   21.9620 H   0  0  0  0  0  0  0  0  0  0  0  0
   22.1644   17.1299   22.6176 H   0  0  0  0  0  0  0  0  0  0  0  0
   20.6438   17.9710   23.8864 C   0  0  0  0  0  0  0  0  0  0  0  0
   21.3099   18.6473   24.4377 H   0  0  0  0  0  0  0  0  0  0  0  0
   20.6607   17.0290   24.4515 H   0  0  0  0  0  0  0  0  0  0  0  0
   19.1842   18.4942   23.8976 C   0  0  0  0  0  0  0  0  0  0  0  0
   18.6542   18.0100   24.7293 H   0  0  0  0  0  0  0  0  0  0  0  0
   18.6485   18.1597   23.0020 H   0  0  0  0  0  0  0  0  0  0  0  0
   22.1958   18.3929   20.4155 O   0  0  0  0  0  0  0  0  0  0  0  0
   23.0301   18.0038   20.7513 H   0  0  0  0  0  0  0  0  0  0  0  0
  1  2  1  0  0  0  0
  1  3  1  0  0  0  0
  1  4  1  0  0  0  0
  4  5  1  0  0  0  0
  4  6  1  0  0  0  0
  4  7  1  0  0  0  0
  7  8  1  0  0  0  0
  7  9  1  0  0  0  0
  7 10  1  0  0  0  0
 10 11  1  0  0  0  0
 10 12  1  0  0  0  0
 10 13  1  0  0  0  0
 13 14  1  0  0  0  0
 13 15  1  0  0  0  0
 15 16  1  0  0  0  0
 15 17  1  0  0  0  0
 15 18  1  0  0  0  0
 18 19  1  0  0  0  0
 18 20  1  0  0  0  0
  1 21  1  0  0  0  0
 18 21  1  0  0  0  0
 21 22  1  0  0  0  0
 21 23  1  0  0  0  0
 13 24  1  0  0  0  0
 24 25  1  0  0  0  0
M  END
> <VConfSearch Rank>
176

> <Conf_Id>
62

> <Delta U+W>
-1.779

> <U+W>
9.134

> <U>
11.364

> <W>
-2.230

> <W(PB)>
-4.359

> <W(SA)>
2.129

> <Valence>
16.582

> <Coulomb>
-8.150

> <VdW>
2.933

> <VdW6>
-12.531

> <VdW12>
15.464

> <Bond>
0.439

> <Angle>
5.099

> <Pdih>
11.044

> <Idih>
0.000

> <Tether>
0.000

$$$$
VeraChem MOL file


 25 25  0  0  0  0  0  0  0  0999 V2000     
   19.0404   19.6163   21.4242 C   0  0  0  0  0  0  0  0  0  0  0  0
   18.8501   20.3000   22.2594 H   0  0  0  0  0  0  0  0  0  0  0  0
   18.2513   19.8445   20.6949 H   0  0  0  0  0  0  0  0  0  0  0  0
   18.8413   18.1470   21.8727 C   0  0  0  0  0  0  0  0  0  0  0  0
   17.8026   18.0458   22.2160 H   0  0  0  0  0  0  0  0  0  0  0  0
   18.9313   17.4859   21.0002 H   0  0  0  0  0  0  0  0  0  0  0  0
   19.7661   17.6209   23.0000 C   0  0  0  0  0  0  0  0  0  0  0  0
   20.7284   17.2964   22.5881 H   0  0  0  0  0  0  0  0  0  0  0  0
   19.3100   16.7005   23.3895 H   0  0  0  0  0  0  0  0  0  0  0  0
   19.9830   18.5953   24.1886 C   0  0  0  0  0  0  0  0  0  0  0  0
   19.1536   19.3085   24.2706 H   0  0  0  0  0  0  0  0  0  0  0  0
   19.9428   17.9979   25.1089 H   0  0  0  0  0  0  0  0  0  0  0  0
   21.3414   19.3409   24.1815 C   0  0  0  0  0  0  0  0  0  0  0  0
   22.1438   18.5946   24.0906 H   0  0  0  0  0  0  0  0  0  0  0  0
   21.5402   20.3994   23.0680 C   0  0  0  0  0  0  0  0  0  0  0  0
   20.7563   21.1646   23.1204 H   0  0  0  0  0  0  0  0  0  0  0  0
   22.4753   20.9290   23.2936 H   0  0  0  0  0  0  0  0  0  0  0  0
   21.6682   19.8247   21.6317 C   0  0  0  0  0  0  0  0  0  0  0  0
   22.0156   18.7859   21.6631 H   0  0  0  0  0  0  0  0  0  0  0  0
   22.4720   20.3675   21.1157 H   0  0  0  0  0  0  0  0  0  0  0  0
   20.3968   19.9476   20.7534 C   0  0  0  0  0  0  0  0  0  0  0  0
   20.5207   19.3242   19.8576 H   0  0  0  0  0  0  0  0  0  0  0  0
   20.3393   20.9825   20.3893 H   0  0  0  0  0  0  0  0  0  0  0  0
   21.4755   20.0053   25.4318 O   0  0  0  0  0  0  0  0  0  0  0  0
   21.4162   19.3165   26.1262 H   0  0  0  0  0  0  0  0  0  0  0  0
  1  2  1  0  0  0  0
  1  3  1  0  0  0  0
  1  4  1  0  0  0  0
  4  5  1  0  0  0  0
  4  6  1  0  0  0  0
  4  7  1  0  0  0  0
  7  8  1  0  0  0  0
  7  9  1  0  0  0  0
  7 10  1  0  0  0  0
 10 11  1  0  0  0  0
 10 12  1  0  0  0  0
 10 13  1  0  0  0  0
 13 14  1  0  0  0  0
 13 15  1  0  0  0  0
 15 16  1  0  0  0  0
 15 17  1  0  0  0  0
 15 18  1  0  0  0  0
 18 19  1  0  0  0  0
 18 20  1  0  0  0  0
  1 21  1  0  0  0  0
 18 21  1  0  0  0  0
 21 22  1  0  0  0  0
 21 23  1  0  0  0  0
 13 24  1  0  0  0  0
 24 25  1  0  0  0  0
M  END
> <VConfSearch Rank>
177

> <Conf_Id>
121

> <Delta U+W>
-1.283

> <U+W>
9.630

> <U>
11.876

> <W>
-2.246

> <W(PB)>
-4.376

> <W(SA)>
2.130

> <Valence>
17.153

> <Coulomb>
-7.966

> <VdW>
2.689

> <VdW6>
-12.458

> <VdW12>
15.147

> <Bond>
0.421

> <Angle>
5.258

> <Pdih>
11.475

> <Idih>
0.000

> <Tether>
0.000

$$$$
VeraChem MOL file


 25 25  0  0  0  0  0  0  0  0999 V2000     
   18.8782   20.2163   23.3155 C   0  0  0  0  0  0  0  0  0  0  0  0
   19.3810   19.8531   24.2191 H   0  0  0  0  0  0  0  0  0  0  0  0
   18.0243   20.7976   23.6890 H   0  0  0  0  0  0  0  0  0  0  0  0
   18.3058   19.0288   22.5018 C   0  0  0  0  0  0  0  0  0  0  0  0
   17.5895   18.5028   23.1477 H   0  0  0  0  0  0  0  0  0  0  0  0
   17.7170   19.4163   21.6594 H   0  0  0  0  0  0  0  0  0  0  0  0
   19.3190   17.9836   21.9691 C   0  0  0  0  0  0  0  0  0  0  0  0
   19.7648   18.3244   21.0278 H   0  0  0  0  0  0  0  0  0  0  0  0
   18.7455   17.0882   21.6929 H   0  0  0  0  0  0  0  0  0  0  0  0
   20.4246   17.5600   22.9730 C   0  0  0  0  0  0  0  0  0  0  0  0
   20.1010   17.7178   24.0089 H   0  0  0  0  0  0  0  0  0  0  0  0
   20.5579   16.4745   22.8749 H   0  0  0  0  0  0  0  0  0  0  0  0
   21.8110   18.2082   22.7323 C   0  0  0  0  0  0  0  0  0  0  0  0
   22.0944   18.0295   21.6851 H   0  0  0  0  0  0  0  0  0  0  0  0
   21.9184   19.7286   23.0119 C   0  0  0  0  0  0  0  0  0  0  0  0
   21.6353   19.9497   24.0483 H   0  0  0  0  0  0  0  0  0  0  0  0
   22.9795   20.0004   22.9377 H   0  0  0  0  0  0  0  0  0  0  0  0
   21.1432   20.6326   22.0163 C   0  0  0  0  0  0  0  0  0  0  0  0
   20.9977   20.1160   21.0609 H   0  0  0  0  0  0  0  0  0  0  0  0
   21.7785   21.4940   21.7686 H   0  0  0  0  0  0  0  0  0  0  0  0
   19.7973   21.1941   22.5418 C   0  0  0  0  0  0  0  0  0  0  0  0
   19.2395   21.6279   21.7009 H   0  0  0  0  0  0  0  0  0  0  0  0
   20.0231   22.0340   23.2131 H   0  0  0  0  0  0  0  0  0  0  0  0
   22.7446   17.5471   23.5771 O   0  0  0  0  0  0  0  0  0  0  0  0
   23.6274   17.9172   23.3678 H   0  0  0  0  0  0  0  0  0  0  0  0
  1  2  1  0  0  0  0
  1  3  1  0  0  0  0
  1  4  1  0  0  0  0
  4  5  1  0  0  0  0
  4  6  1  0  0  0  0
  4  7  1  0  0  0  0
  7  8  1  0  0  0  0
  7  9  1  0  0  0  0
  7 10  1  0  0  0  0
 10 11  1  0  0  0  0
 10 12  1  0  0  0  0
 10 13  1  0  0  0  0
 13 14  1  0  0  0  0
 13 15  1  0  0  0  0
 15 16  1  0  0  0  0
 15 17  1  0  0  0  0
 15 18  1  0  0  0  0
 18 19  1  0  0  0  0
 18 20  1  0  0  0  0
  1 21  1  0  0  0  0
 18 21  1  0  0  0  0
 21 22  1  0  0  0  0
 21 23  1  0  0  0  0
 13 24  1  0  0  0  0
 24 25  1  0  0  0  0
M  END
> <VConfSearch Rank>
178

> <Conf_Id>
24

> <Delta U+W>
-1.236

> <U+W>
9.678

> <U>
11.876

> <W>
-2.199

> <W(PB)>
-4.335

> <W(SA)>
2.137

> <Valence>
17.153

> <Coulomb>
-7.966

> <VdW>
2.689

> <VdW6>
-12.458

> <VdW12>
15.147

> <Bond>
0.421

> <Angle>
5.258

> <Pdih>
11.475

> <Idih>
0.000

> <Tether>
0.000

$$$$
VeraChem MOL file


 25 25  0  0  0  0  0  0  0  0999 V2000     
   20.1509   17.7673   21.0401 C   0  0  0  0  0  0  0  0  0  0  0  0
   19.4067   17.8321   20.2346 H   0  0  0  0  0  0  0  0  0  0  0  0
   20.7104   16.8404   20.8536 H   0  0  0  0  0  0  0  0  0  0  0  0
   21.1391   18.9564   20.9070 C   0  0  0  0  0  0  0  0  0  0  0  0
   22.0621   18.7563   21.4659 H   0  0  0  0  0  0  0  0  0  0  0  0
   21.4529   18.9949   19.8548 H   0  0  0  0  0  0  0  0  0  0  0  0
   20.5811   20.3499   21.2884 C   0  0  0  0  0  0  0  0  0  0  0  0
   19.5190   20.4315   21.0204 H   0  0  0  0  0  0  0  0  0  0  0  0
   21.0980   21.0844   20.6555 H   0  0  0  0  0  0  0  0  0  0  0  0
   20.8226   20.7769   22.7639 C   0  0  0  0  0  0  0  0  0  0  0  0
   21.7992   20.4228   23.1181 H   0  0  0  0  0  0  0  0  0  0  0  0
   20.8885   21.8735   22.7658 H   0  0  0  0  0  0  0  0  0  0  0  0
   19.7047   20.3688   23.7544 C   0  0  0  0  0  0  0  0  0  0  0  0
   18.7549   20.3163   23.2060 H   0  0  0  0  0  0  0  0  0  0  0  0
   19.9374   19.0327   24.5045 C   0  0  0  0  0  0  0  0  0  0  0  0
   20.7311   19.1675   25.2511 H   0  0  0  0  0  0  0  0  0  0  0  0
   19.0248   18.8068   25.0717 H   0  0  0  0  0  0  0  0  0  0  0  0
   20.2923   17.7974   23.6394 C   0  0  0  0  0  0  0  0  0  0  0  0
   20.1940   16.9018   24.2679 H   0  0  0  0  0  0  0  0  0  0  0  0
   21.3529   17.8308   23.3646 H   0  0  0  0  0  0  0  0  0  0  0  0
   19.3980   17.6252   22.3856 C   0  0  0  0  0  0  0  0  0  0  0  0
   18.5493   18.3186   22.4075 H   0  0  0  0  0  0  0  0  0  0  0  0
   18.9414   16.6264   22.4144 H   0  0  0  0  0  0  0  0  0  0  0  0
   19.5845   21.3887   24.7378 O   0  0  0  0  0  0  0  0  0  0  0  0
   20.4471   21.4316   25.1993 H   0  0  0  0  0  0  0  0  0  0  0  0
  1  2  1  0  0  0  0
  1  3  1  0  0  0  0
  1  4  1  0  0  0  0
  4  5  1  0  0  0  0
  4  6  1  0  0  0  0
  4  7  1  0  0  0  0
  7  8  1  0  0  0  0
  7  9  1  0  0  0  0
  7 10  1  0  0  0  0
 10 11  1  0  0  0  0
 10 12  1  0  0  0  0
 10 13  1  0  0  0  0
 13 14  1  0  0  0  0
 13 15  1  0  0  0  0
 15 16  1  0  0  0  0
 15 17  1  0  0  0  0
 15 18  1  0  0  0  0
 18 19  1  0  0  0  0
 18 20  1  0  0  0  0
  1 21  1  0  0  0  0
 18 21  1  0  0  0  0
 21 22  1  0  0  0  0
 21 23  1  0  0  0  0
 13 24  1  0  0  0  0
 24 25  1  0  0  0  0
M  END
> <VConfSearch Rank>
179

> <Conf_Id>
167

> <Delta U+W>
0.388

> <U+W>
11.301

> <U>
13.202

> <W>
-1.901

> <W(PB)>
-4.065

> <W(SA)>
2.163

> <Valence>
18.957

> <Coulomb>
-8.753

> <VdW>
2.998

> <VdW6>
-12.294

> <VdW12>
15.292

> <Bond>
0.419

> <Angle>
4.543

> <Pdih>
13.996

> <Idih>
0.000

> <Tether>
0.000

$$$$
VeraChem MOL file


 25 25  0  0  0  0  0  0  0  0999 V2000     
   20.5145   17.8132   24.1351 C   0  0  0  0  0  0  0  0  0  0  0  0
   21.1080   16.9032   23.9735 H   0  0  0  0  0  0  0  0  0  0  0  0
   20.1544   17.7514   25.1712 H   0  0  0  0  0  0  0  0  0  0  0  0
   19.2759   17.7771   23.2024 C   0  0  0  0  0  0  0  0  0  0  0  0
   19.5490   17.3966   22.2117 H   0  0  0  0  0  0  0  0  0  0  0  0
   18.5910   17.0188   23.6062 H   0  0  0  0  0  0  0  0  0  0  0  0
   18.4964   19.1118   23.0770 C   0  0  0  0  0  0  0  0  0  0  0  0
   18.6431   19.7395   23.9654 H   0  0  0  0  0  0  0  0  0  0  0  0
   17.4250   18.8691   23.0712 H   0  0  0  0  0  0  0  0  0  0  0  0
   18.7853   19.9163   21.7803 C   0  0  0  0  0  0  0  0  0  0  0  0
   18.5926   19.2810   20.9060 H   0  0  0  0  0  0  0  0  0  0  0  0
   18.0482   20.7283   21.7243 H   0  0  0  0  0  0  0  0  0  0  0  0
   20.1925   20.5503   21.6492 C   0  0  0  0  0  0  0  0  0  0  0  0
   20.3965   21.1592   22.5401 H   0  0  0  0  0  0  0  0  0  0  0  0
   21.3341   19.5210   21.4441 C   0  0  0  0  0  0  0  0  0  0  0  0
   20.9299   18.5849   21.0458 H   0  0  0  0  0  0  0  0  0  0  0  0
   22.0137   19.8793   20.6594 H   0  0  0  0  0  0  0  0  0  0  0  0
   22.1965   19.2397   22.7018 C   0  0  0  0  0  0  0  0  0  0  0  0
   22.8922   20.0804   22.8292 H   0  0  0  0  0  0  0  0  0  0  0  0
   22.8252   18.3590   22.5131 H   0  0  0  0  0  0  0  0  0  0  0  0
   21.4413   19.0513   24.0416 C   0  0  0  0  0  0  0  0  0  0  0  0
   20.8890   19.9609   24.3039 H   0  0  0  0  0  0  0  0  0  0  0  0
   22.1988   18.9513   24.8309 H   0  0  0  0  0  0  0  0  0  0  0  0
   20.1639   21.4143   20.5192 O   0  0  0  0  0  0  0  0  0  0  0  0
   21.0351   21.8619   20.4860 H   0  0  0  0  0  0  0  0  0  0  0  0
  1  2  1  0  0  0  0
  1  3  1  0  0  0  0
  1  4  1  0  0  0  0
  4  5  1  0  0  0  0
  4  6  1  0  0  0  0
  4  7  1  0  0  0  0
  7  8  1  0  0  0  0
  7  9  1  0  0  0  0
  7 10  1  0  0  0  0
 10 11  1  0  0  0  0
 10 12  1  0  0  0  0
 10 13  1  0  0  0  0
 13 14  1  0  0  0  0
 13 15  1  0  0  0  0
 15 16  1  0  0  0  0
 15 17  1  0  0  0  0
 15 18  1  0  0  0  0
 18 19  1  0  0  0  0
 18 20  1  0  0  0  0
  1 21  1  0  0  0  0
 18 21  1  0  0  0  0
 21 22  1  0  0  0  0
 21 23  1  0  0  0  0
 13 24  1  0  0  0  0
 24 25  1  0  0  0  0
M  END
> <VConfSearch Rank>
180

> <Conf_Id>
60

> <Delta U+W>
-1.838

> <U+W>
9.075

> <U>
11.150

> <W>
-2.074

> <W(PB)>
-4.196

> <W(SA)>
2.121

> <Valence>
16.582

> <Coulomb>
-8.361

> <VdW>
2.928

> <VdW6>
-12.539

> <VdW12>
15.467

> <Bond>
0.441

> <Angle>
5.093

> <Pdih>
11.049

> <Idih>
0.000

> <Tether>
0.000

$$$$
VeraChem MOL file


 25 25  0  0  0  0  0  0  0  0999 V2000     
   19.9021   17.2389   23.1845 C   0  0  0  0  0  0  0  0  0  0  0  0
   19.7060   16.9600   24.2287 H   0  0  0  0  0  0  0  0  0  0  0  0
   19.8460   16.3026   22.6126 H   0  0  0  0  0  0  0  0  0  0  0  0
   21.3527   17.7691   23.0608 C   0  0  0  0  0  0  0  0  0  0  0  0
   22.0241   16.9544   23.3649 H   0  0  0  0  0  0  0  0  0  0  0  0
   21.6023   17.9535   22.0097 H   0  0  0  0  0  0  0  0  0  0  0  0
   21.7055   19.0029   23.9292 C   0  0  0  0  0  0  0  0  0  0  0  0
   22.7837   19.1849   23.8234 H   0  0  0  0  0  0  0  0  0  0  0  0
   21.5474   18.7581   24.9882 H   0  0  0  0  0  0  0  0  0  0  0  0
   20.9645   20.3255   23.6026 C   0  0  0  0  0  0  0  0  0  0  0  0
   19.9720   20.3266   24.0642 H   0  0  0  0  0  0  0  0  0  0  0  0
   21.5036   21.1333   24.1151 H   0  0  0  0  0  0  0  0  0  0  0  0
   20.8506   20.6568   22.0920 C   0  0  0  0  0  0  0  0  0  0  0  0
   21.6029   20.0884   21.5288 H   0  0  0  0  0  0  0  0  0  0  0  0
   19.4510   20.3817   21.4880 C   0  0  0  0  0  0  0  0  0  0  0  0
   18.6937   20.9231   22.0699 H   0  0  0  0  0  0  0  0  0  0  0  0
   19.4281   20.8277   20.4848 H   0  0  0  0  0  0  0  0  0  0  0  0
   19.0278   18.8939   21.3473 C   0  0  0  0  0  0  0  0  0  0  0  0
   19.7501   18.3401   20.7338 H   0  0  0  0  0  0  0  0  0  0  0  0
   18.0924   18.8801   20.7713 H   0  0  0  0  0  0  0  0  0  0  0  0
   18.7599   18.1635   22.6888 C   0  0  0  0  0  0  0  0  0  0  0  0
   17.8683   17.5341   22.5623 H   0  0  0  0  0  0  0  0  0  0  0  0
   18.4778   18.8809   23.4676 H   0  0  0  0  0  0  0  0  0  0  0  0
   21.1213   22.0428   21.9187 O   0  0  0  0  0  0  0  0  0  0  0  0
   22.0348   22.1927   22.2405 H   0  0  0  0  0  0  0  0  0  0  0  0
  1  2  1  0  0  0  0
  1  3  1  0  0  0  0
  1  4  1  0  0  0  0
  4  5  1  0  0  0  0
  4  6  1  0  0  0  0
  4  7  1  0  0  0  0
  7  8  1  0  0  0  0
  7  9  1  0  0  0  0
  7 10  1  0  0  0  0
 10 11  1  0  0  0  0
 10 12  1  0  0  0  0
 10 13  1  0  0  0  0
 13 14  1  0  0  0  0
 13 15  1  0  0  0  0
 15 16  1  0  0  0  0
 15 17  1  0  0  0  0
 15 18  1  0  0  0  0
 18 19  1  0  0  0  0
 18 20  1  0  0  0  0
  1 21  1  0  0  0  0
 18 21  1  0  0  0  0
 21 22  1  0  0  0  0
 21 23  1  0  0  0  0
 13 24  1  0  0  0  0
 24 25  1  0  0  0  0
M  END
> <VConfSearch Rank>
181

> <Conf_Id>
129

> <Delta U+W>
-1.846

> <U+W>
9.067

> <U>
11.150

> <W>
-2.083

> <W(PB)>
-4.217

> <W(SA)>
2.134

> <Valence>
16.583

> <Coulomb>
-8.361

> <VdW>
2.928

> <VdW6>
-12.539

> <VdW12>
15.467

> <Bond>
0.441

> <Angle>
5.093

> <Pdih>
11.049

> <Idih>
0.000

> <Tether>
0.000

$$$$
VeraChem MOL file


 25 25  0  0  0  0  0  0  0  0999 V2000     
   22.3136   19.0591   22.8214 C   0  0  0  0  0  0  0  0  0  0  0  0
   22.8805   19.7521   23.4577 H   0  0  0  0  0  0  0  0  0  0  0  0
   23.0580   18.3736   22.3938 H   0  0  0  0  0  0  0  0  0  0  0  0
   21.6808   19.8454   21.6460 C   0  0  0  0  0  0  0  0  0  0  0  0
   22.5041   20.2935   21.0732 H   0  0  0  0  0  0  0  0  0  0  0  0
   21.1986   19.1572   20.9425 H   0  0  0  0  0  0  0  0  0  0  0  0
   20.7139   20.9921   22.0339 C   0  0  0  0  0  0  0  0  0  0  0  0
   20.4433   21.5226   21.1106 H   0  0  0  0  0  0  0  0  0  0  0  0
   21.2496   21.7251   22.6522 H   0  0  0  0  0  0  0  0  0  0  0  0
   19.3997   20.5911   22.7531 C   0  0  0  0  0  0  0  0  0  0  0  0
   19.5847   20.4407   23.8216 H   0  0  0  0  0  0  0  0  0  0  0  0
   18.7318   21.4620   22.7074 H   0  0  0  0  0  0  0  0  0  0  0  0
   18.6737   19.3585   22.1545 C   0  0  0  0  0  0  0  0  0  0  0  0
   19.0126   19.1942   21.1230 H   0  0  0  0  0  0  0  0  0  0  0  0
   18.8604   18.0527   22.9675 C   0  0  0  0  0  0  0  0  0  0  0  0
   18.5510   18.2219   24.0071 H   0  0  0  0  0  0  0  0  0  0  0  0
   18.1610   17.3071   22.5660 H   0  0  0  0  0  0  0  0  0  0  0  0
   20.2761   17.4150   22.9545 C   0  0  0  0  0  0  0  0  0  0  0  0
   20.5947   17.1945   21.9275 H   0  0  0  0  0  0  0  0  0  0  0  0
   20.1910   16.4354   23.4445 H   0  0  0  0  0  0  0  0  0  0  0  0
   21.3600   18.2233   23.7138 C   0  0  0  0  0  0  0  0  0  0  0  0
   21.9834   17.5144   24.2758 H   0  0  0  0  0  0  0  0  0  0  0  0
   20.9014   18.8529   24.4846 H   0  0  0  0  0  0  0  0  0  0  0  0
   17.2799   19.6378   22.1188 O   0  0  0  0  0  0  0  0  0  0  0  0
   17.0016   19.7759   23.0475 H   0  0  0  0  0  0  0  0  0  0  0  0
  1  2  1  0  0  0  0
  1  3  1  0  0  0  0
  1  4  1  0  0  0  0
  4  5  1  0  0  0  0
  4  6  1  0  0  0  0
  4  7  1  0  0  0  0
  7  8  1  0  0  0  0
  7  9  1  0  0  0  0
  7 10  1  0  0  0  0
 10 11  1  0  0  0  0
 10 12  1  0  0  0  0
 10 13  1  0  0  0  0
 13 14  1  0  0  0  0
 13 15  1  0  0  0  0
 15 16  1  0  0  0  0
 15 17  1  0  0  0  0
 15 18  1  0  0  0  0
 18 19  1  0  0  0  0
 18 20  1  0  0  0  0
  1 21  1  0  0  0  0
 18 21  1  0  0  0  0
 21 22  1  0  0  0  0
 21 23  1  0  0  0  0
 13 24  1  0  0  0  0
 24 25  1  0  0  0  0
M  END
> <VConfSearch Rank>
182

> <Conf_Id>
140

> <Delta U+W>
-1.702

> <U+W>
9.211

> <U>
11.181

> <W>
-1.969

> <W(PB)>
-4.093

> <W(SA)>
2.124

> <Valence>
16.954

> <Coulomb>
-8.661

> <VdW>
2.887

> <VdW6>
-12.561

> <VdW12>
15.448

> <Bond>
0.433

> <Angle>
5.120

> <Pdih>
11.401

> <Idih>
0.000

> <Tether>
0.000

$$$$
VeraChem MOL file


 25 25  0  0  0  0  0  0  0  0999 V2000     
   20.8785   21.0735   22.0950 C   0  0  0  0  0  0  0  0  0  0  0  0
   21.3197   21.7620   22.8284 H   0  0  0  0  0  0  0  0  0  0  0  0
   20.8545   21.6271   21.1464 H   0  0  0  0  0  0  0  0  0  0  0  0
   19.4131   20.7749   22.5044 C   0  0  0  0  0  0  0  0  0  0  0  0
   19.3353   20.6382   23.5889 H   0  0  0  0  0  0  0  0  0  0  0  0
   18.8302   21.6839   22.3016 H   0  0  0  0  0  0  0  0  0  0  0  0
   18.7407   19.5944   21.7568 C   0  0  0  0  0  0  0  0  0  0  0  0
   19.2073   19.4303   20.7769 H   0  0  0  0  0  0  0  0  0  0  0  0
   17.7061   19.8902   21.5354 H   0  0  0  0  0  0  0  0  0  0  0  0
   18.6705   18.2691   22.5627 C   0  0  0  0  0  0  0  0  0  0  0  0
   18.1617   18.4545   23.5176 H   0  0  0  0  0  0  0  0  0  0  0  0
   18.0195   17.5811   22.0068 H   0  0  0  0  0  0  0  0  0  0  0  0
   20.0113   17.5385   22.8260 C   0  0  0  0  0  0  0  0  0  0  0  0
   20.5316   17.3818   21.8717 H   0  0  0  0  0  0  0  0  0  0  0  0
   20.9509   18.2694   23.8196 C   0  0  0  0  0  0  0  0  0  0  0  0
   20.3750   18.9474   24.4577 H   0  0  0  0  0  0  0  0  0  0  0  0
   21.3842   17.5367   24.5139 H   0  0  0  0  0  0  0  0  0  0  0  0
   22.1359   19.0272   23.1662 C   0  0  0  0  0  0  0  0  0  0  0  0
   22.8995   18.2858   22.8937 H   0  0  0  0  0  0  0  0  0  0  0  0
   22.6047   19.6742   23.9199 H   0  0  0  0  0  0  0  0  0  0  0  0
   21.8231   19.8613   21.8986 C   0  0  0  0  0  0  0  0  0  0  0  0
   21.4523   19.2151   21.0948 H   0  0  0  0  0  0  0  0  0  0  0  0
   22.7785   20.2507   21.5211 H   0  0  0  0  0  0  0  0  0  0  0  0
   19.6971   16.2622   23.3687 O   0  0  0  0  0  0  0  0  0  0  0  0
   19.2317   16.4281   24.2141 H   0  0  0  0  0  0  0  0  0  0  0  0
  1  2  1  0  0  0  0
  1  3  1  0  0  0  0
  1  4  1  0  0  0  0
  4  5  1  0  0  0  0
  4  6  1  0  0  0  0
  4  7  1  0  0  0  0
  7  8  1  0  0  0  0
  7  9  1  0  0  0  0
  7 10  1  0  0  0  0
 10 11  1  0  0  0  0
 10 12  1  0  0  0  0
 10 13  1  0  0  0  0
 13 14  1  0  0  0  0
 13 15  1  0  0  0  0
 15 16  1  0  0  0  0
 15 17  1  0  0  0  0
 15 18  1  0  0  0  0
 18 19  1  0  0  0  0
 18 20  1  0  0  0  0
  1 21  1  0  0  0  0
 18 21  1  0  0  0  0
 21 22  1  0  0  0  0
 21 23  1  0  0  0  0
 13 24  1  0  0  0  0
 24 25  1  0  0  0  0
M  END
> <VConfSearch Rank>
183

> <Conf_Id>
68

> <Delta U+W>
-1.765

> <U+W>
9.148

> <U>
11.181

> <W>
-2.032

> <W(PB)>
-4.147

> <W(SA)>
2.114

> <Valence>
16.955

> <Coulomb>
-8.661

> <VdW>
2.887

> <VdW6>
-12.561

> <VdW12>
15.448

> <Bond>
0.433

> <Angle>
5.121

> <Pdih>
11.402

> <Idih>
0.000

> <Tether>
0.000

$$$$
VeraChem MOL file


 25 25  0  0  0  0  0  0  0  0999 V2000     
   19.6189   17.9156   23.8721 C   0  0  0  0  0  0  0  0  0  0  0  0
   19.3615   17.1685   24.6355 H   0  0  0  0  0  0  0  0  0  0  0  0
   18.8264   17.8203   23.1213 H   0  0  0  0  0  0  0  0  0  0  0  0
   20.9935   17.5301   23.2661 C   0  0  0  0  0  0  0  0  0  0  0  0
   21.8107   18.0647   23.7670 H   0  0  0  0  0  0  0  0  0  0  0  0
   21.1670   16.4686   23.4903 H   0  0  0  0  0  0  0  0  0  0  0  0
   21.0939   17.6893   21.7263 C   0  0  0  0  0  0  0  0  0  0  0  0
   20.2950   17.1070   21.2469 H   0  0  0  0  0  0  0  0  0  0  0  0
   22.0337   17.2211   21.4031 H   0  0  0  0  0  0  0  0  0  0  0  0
   21.0742   19.1392   21.1730 C   0  0  0  0  0  0  0  0  0  0  0  0
   21.8847   19.7285   21.6183 H   0  0  0  0  0  0  0  0  0  0  0  0
   21.3195   19.0729   20.1043 H   0  0  0  0  0  0  0  0  0  0  0  0
   19.7128   19.8663   21.3237 C   0  0  0  0  0  0  0  0  0  0  0  0
   18.9237   19.1201   21.4726 H   0  0  0  0  0  0  0  0  0  0  0  0
   19.6547   20.9031   22.4724 C   0  0  0  0  0  0  0  0  0  0  0  0
   20.1774   21.8125   22.1478 H   0  0  0  0  0  0  0  0  0  0  0  0
   18.6073   21.1958   22.6222 H   0  0  0  0  0  0  0  0  0  0  0  0
   20.2606   20.4833   23.8365 C   0  0  0  0  0  0  0  0  0  0  0  0
   20.2029   21.3554   24.5021 H   0  0  0  0  0  0  0  0  0  0  0  0
   21.3335   20.2842   23.7345 H   0  0  0  0  0  0  0  0  0  0  0  0
   19.5606   19.3049   24.5587 C   0  0  0  0  0  0  0  0  0  0  0  0
   18.5103   19.5660   24.7464 H   0  0  0  0  0  0  0  0  0  0  0  0
   20.0232   19.2074   25.5504 H   0  0  0  0  0  0  0  0  0  0  0  0
   19.4306   20.5549   20.1117 O   0  0  0  0  0  0  0  0  0  0  0  0
   20.1537   21.2032   19.9866 H   0  0  0  0  0  0  0  0  0  0  0  0
  1  2  1  0  0  0  0
  1  3  1  0  0  0  0
  1  4  1  0  0  0  0
  4  5  1  0  0  0  0
  4  6  1  0  0  0  0
  4  7  1  0  0  0  0
  7  8  1  0  0  0  0
  7  9  1  0  0  0  0
  7 10  1  0  0  0  0
 10 11  1  0  0  0  0
 10 12  1  0  0  0  0
 10 13  1  0  0  0  0
 13 14  1  0  0  0  0
 13 15  1  0  0  0  0
 15 16  1  0  0  0  0
 15 17  1  0  0  0  0
 15 18  1  0  0  0  0
 18 19  1  0  0  0  0
 18 20  1  0  0  0  0
  1 21  1  0  0  0  0
 18 21  1  0  0  0  0
 21 22  1  0  0  0  0
 21 23  1  0  0  0  0
 13 24  1  0  0  0  0
 24 25  1  0  0  0  0
M  END
> <VConfSearch Rank>
184

> <Conf_Id>
165

> <Delta U+W>
-1.999

> <U+W>
8.915

> <U>
10.935

> <W>
-2.020

> <W(PB)>
-4.135

> <W(SA)>
2.115

> <Valence>
16.757

> <Coulomb>
-8.731

> <VdW>
2.908

> <VdW6>
-12.597

> <VdW12>
15.506

> <Bond>
0.434

> <Angle>
5.069

> <Pdih>
11.254

> <Idih>
0.000

> <Tether>
0.000

$$$$
VeraChem MOL file


 25 25  0  0  0  0  0  0  0  0999 V2000     
   18.7827   18.1925   22.9196 C   0  0  0  0  0  0  0  0  0  0  0  0
   17.9219   17.5306   23.0871 H   0  0  0  0  0  0  0  0  0  0  0  0
   18.3500   19.1990   22.8960 H   0  0  0  0  0  0  0  0  0  0  0  0
   19.3803   17.8187   21.5380 C   0  0  0  0  0  0  0  0  0  0  0  0
   19.3798   16.7229   21.4593 H   0  0  0  0  0  0  0  0  0  0  0  0
   18.7028   18.1722   20.7489 H   0  0  0  0  0  0  0  0  0  0  0  0
   20.8201   18.3026   21.2328 C   0  0  0  0  0  0  0  0  0  0  0  0
   21.1129   17.8700   20.2664 H   0  0  0  0  0  0  0  0  0  0  0  0
   21.5266   17.8738   21.9527 H   0  0  0  0  0  0  0  0  0  0  0  0
   21.0158   19.8372   21.1298 C   0  0  0  0  0  0  0  0  0  0  0  0
   22.0499   20.0156   20.8051 H   0  0  0  0  0  0  0  0  0  0  0  0
   20.3754   20.2231   20.3262 H   0  0  0  0  0  0  0  0  0  0  0  0
   20.7606   20.6699   22.4101 C   0  0  0  0  0  0  0  0  0  0  0  0
   19.6804   20.7891   22.5547 H   0  0  0  0  0  0  0  0  0  0  0  0
   21.3787   20.0751   23.7018 C   0  0  0  0  0  0  0  0  0  0  0  0
   22.2105   19.4021   23.4624 H   0  0  0  0  0  0  0  0  0  0  0  0
   21.8304   20.8934   24.2787 H   0  0  0  0  0  0  0  0  0  0  0  0
   20.3614   19.3702   24.6383 C   0  0  0  0  0  0  0  0  0  0  0  0
   19.5541   20.0715   24.8904 H   0  0  0  0  0  0  0  0  0  0  0  0
   20.8728   19.1570   25.5869 H   0  0  0  0  0  0  0  0  0  0  0  0
   19.7470   18.0414   24.1249 C   0  0  0  0  0  0  0  0  0  0  0  0
   19.1713   17.6124   24.9564 H   0  0  0  0  0  0  0  0  0  0  0  0
   20.5331   17.3055   23.9126 H   0  0  0  0  0  0  0  0  0  0  0  0
   21.3176   21.9619   22.1960 O   0  0  0  0  0  0  0  0  0  0  0  0
   20.8777   22.3309   21.4018 H   0  0  0  0  0  0  0  0  0  0  0  0
  1  2  1  0  0  0  0
  1  3  1  0  0  0  0
  1  4  1  0  0  0  0
  4  5  1  0  0  0  0
  4  6  1  0  0  0  0
  4  7  1  0  0  0  0
  7  8  1  0  0  0  0
  7  9  1  0  0  0  0
  7 10  1  0  0  0  0
 10 11  1  0  0  0  0
 10 12  1  0  0  0  0
 10 13  1  0  0  0  0
 13 14  1  0  0  0  0
 13 15  1  0  0  0  0
 15 16  1  0  0  0  0
 15 17  1  0  0  0  0
 15 18  1  0  0  0  0
 18 19  1  0  0  0  0
 18 20  1  0  0  0  0
  1 21  1  0  0  0  0
 18 21  1  0  0  0  0
 21 22  1  0  0  0  0
 21 23  1  0  0  0  0
 13 24  1  0  0  0  0
 24 25  1  0  0  0  0
M  END
> <VConfSearch Rank>
185

> <Conf_Id>
133

> <Delta U+W>
-2.139

> <U+W>
8.774

> <U>
10.905

> <W>
-2.131

> <W(PB)>
-4.281

> <W(SA)>
2.150

> <Valence>
16.378

> <Coulomb>
-8.448

> <VdW>
2.976

> <VdW6>
-12.570

> <VdW12>
15.545

> <Bond>
0.439

> <Angle>
5.049

> <Pdih>
10.889

> <Idih>
0.000

> <Tether>
0.000

$$$$
VeraChem MOL file


 25 25  0  0  0  0  0  0  0  0999 V2000     
   20.9905   20.9118   22.4050 C   0  0  0  0  0  0  0  0  0  0  0  0
   21.3307   21.9487   22.2777 H   0  0  0  0  0  0  0  0  0  0  0  0
   21.8083   20.3065   21.9980 H   0  0  0  0  0  0  0  0  0  0  0  0
   19.7010   20.7223   21.5644 C   0  0  0  0  0  0  0  0  0  0  0  0
   18.8033   20.8749   22.1772 H   0  0  0  0  0  0  0  0  0  0  0  0
   19.6747   21.5250   20.8147 H   0  0  0  0  0  0  0  0  0  0  0  0
   19.6181   19.3793   20.7921 C   0  0  0  0  0  0  0  0  0  0  0  0
   20.5028   19.2734   20.1494 H   0  0  0  0  0  0  0  0  0  0  0  0
   18.7620   19.4408   20.1065 H   0  0  0  0  0  0  0  0  0  0  0  0
   19.4478   18.0942   21.6455 C   0  0  0  0  0  0  0  0  0  0  0  0
   18.5513   18.1657   22.2727 H   0  0  0  0  0  0  0  0  0  0  0  0
   19.2429   17.2716   20.9471 H   0  0  0  0  0  0  0  0  0  0  0  0
   20.6880   17.7166   22.4962 C   0  0  0  0  0  0  0  0  0  0  0  0
   21.5697   18.2206   22.0833 H   0  0  0  0  0  0  0  0  0  0  0  0
   20.5648   18.0547   24.0023 C   0  0  0  0  0  0  0  0  0  0  0  0
   19.9208   17.2989   24.4719 H   0  0  0  0  0  0  0  0  0  0  0  0
   21.5519   17.9437   24.4692 H   0  0  0  0  0  0  0  0  0  0  0  0
   19.9905   19.4471   24.3704 C   0  0  0  0  0  0  0  0  0  0  0  0
   19.9049   19.4865   25.4648 H   0  0  0  0  0  0  0  0  0  0  0  0
   18.9603   19.5442   24.0091 H   0  0  0  0  0  0  0  0  0  0  0  0
   20.8334   20.6697   23.9289 C   0  0  0  0  0  0  0  0  0  0  0  0
   21.8308   20.6077   24.3849 H   0  0  0  0  0  0  0  0  0  0  0  0
   20.3650   21.5639   24.3626 H   0  0  0  0  0  0  0  0  0  0  0  0
   20.8981   16.3130   22.3905 O   0  0  0  0  0  0  0  0  0  0  0  0
   21.7110   16.1102   22.8990 H   0  0  0  0  0  0  0  0  0  0  0  0
  1  2  1  0  0  0  0
  1  3  1  0  0  0  0
  1  4  1  0  0  0  0
  4  5  1  0  0  0  0
  4  6  1  0  0  0  0
  4  7  1  0  0  0  0
  7  8  1  0  0  0  0
  7  9  1  0  0  0  0
  7 10  1  0  0  0  0
 10 11  1  0  0  0  0
 10 12  1  0  0  0  0
 10 13  1  0  0  0  0
 13 14  1  0  0  0  0
 13 15  1  0  0  0  0
 15 16  1  0  0  0  0
 15 17  1  0  0  0  0
 15 18  1  0  0  0  0
 18 19  1  0  0  0  0
 18 20  1  0  0  0  0
  1 21  1  0  0  0  0
 18 21  1  0  0  0  0
 21 22  1  0  0  0  0
 21 23  1  0  0  0  0
 13 24  1  0  0  0  0
 24 25  1  0  0  0  0
M  END
> <VConfSearch Rank>
186

> <Conf_Id>
95

> <Delta U+W>
-2.190

> <U+W>
8.723

> <U>
10.905

> <W>
-2.182

> <W(PB)>
-4.296

> <W(SA)>
2.114

> <Valence>
16.377

> <Coulomb>
-8.448

> <VdW>
2.976

> <VdW6>
-12.570

> <VdW12>
15.546

> <Bond>
0.439

> <Angle>
5.049

> <Pdih>
10.889

> <Idih>
0.000

> <Tether>
0.000

$$$$
VeraChem MOL file


 25 25  0  0  0  0  0  0  0  0999 V2000     
   21.0204   20.7415   23.2487 C   0  0  0  0  0  0  0  0  0  0  0  0
   21.5606   21.6492   23.5506 H   0  0  0  0  0  0  0  0  0  0  0  0
   20.1603   20.7210   23.9255 H   0  0  0  0  0  0  0  0  0  0  0  0
   21.9694   19.5367   23.5169 C   0  0  0  0  0  0  0  0  0  0  0  0
   22.9944   19.8750   23.3122 H   0  0  0  0  0  0  0  0  0  0  0  0
   21.9492   19.2988   24.5890 H   0  0  0  0  0  0  0  0  0  0  0  0
   21.7524   18.2362   22.6994 C   0  0  0  0  0  0  0  0  0  0  0  0
   22.5789   17.5526   22.9367 H   0  0  0  0  0  0  0  0  0  0  0  0
   21.8949   18.4501   21.6354 H   0  0  0  0  0  0  0  0  0  0  0  0
   20.4267   17.4530   22.9353 C   0  0  0  0  0  0  0  0  0  0  0  0
   20.2411   16.8014   22.0714 H   0  0  0  0  0  0  0  0  0  0  0  0
   20.5989   16.7786   23.7843 H   0  0  0  0  0  0  0  0  0  0  0  0
   19.1416   18.2621   23.2446 C   0  0  0  0  0  0  0  0  0  0  0  0
   19.3301   18.8708   24.1350 H   0  0  0  0  0  0  0  0  0  0  0  0
   18.5855   19.1644   22.1057 C   0  0  0  0  0  0  0  0  0  0  0  0
   17.9396   18.5451   21.4689 H   0  0  0  0  0  0  0  0  0  0  0  0
   17.9239   19.9164   22.5540 H   0  0  0  0  0  0  0  0  0  0  0  0
   19.5949   19.8773   21.1656 C   0  0  0  0  0  0  0  0  0  0  0  0
   19.0174   20.3715   20.3725 H   0  0  0  0  0  0  0  0  0  0  0  0
   20.1792   19.1256   20.6257 H   0  0  0  0  0  0  0  0  0  0  0  0
   20.5253   20.9558   21.7939 C   0  0  0  0  0  0  0  0  0  0  0  0
   19.9802   21.9094   21.7786 H   0  0  0  0  0  0  0  0  0  0  0  0
   21.3920   21.1041   21.1357 H   0  0  0  0  0  0  0  0  0  0  0  0
   18.1219   17.3282   23.5801 O   0  0  0  0  0  0  0  0  0  0  0  0
   18.4542   16.8072   24.3404 H   0  0  0  0  0  0  0  0  0  0  0  0
  1  2  1  0  0  0  0
  1  3  1  0  0  0  0
  1  4  1  0  0  0  0
  4  5  1  0  0  0  0
  4  6  1  0  0  0  0
  4  7  1  0  0  0  0
  7  8  1  0  0  0  0
  7  9  1  0  0  0  0
  7 10  1  0  0  0  0
 10 11  1  0  0  0  0
 10 12  1  0  0  0  0
 10 13  1  0  0  0  0
 13 14  1  0  0  0  0
 13 15  1  0  0  0  0
 15 16  1  0  0  0  0
 15 17  1  0  0  0  0
 15 18  1  0  0  0  0
 18 19  1  0  0  0  0
 18 20  1  0  0  0  0
  1 21  1  0  0  0  0
 18 21  1  0  0  0  0
 21 22  1  0  0  0  0
 21 23  1  0  0  0  0
 13 24  1  0  0  0  0
 24 25  1  0  0  0  0
M  END
> <VConfSearch Rank>
187

> <Conf_Id>
161

> <Delta U+W>
2.120

> <U+W>
13.033

> <U>
15.076

> <W>
-2.043

> <W(PB)>
-4.186

> <W(SA)>
2.143

> <Valence>
18.884

> <Coulomb>
-8.074

> <VdW>
4.266

> <VdW6>
-13.486

> <VdW12>
17.752

> <Bond>
0.713

> <Angle>
8.955

> <Pdih>
9.215

> <Idih>
0.000

> <Tether>
0.000

$$$$
VeraChem MOL file


 25 25  0  0  0  0  0  0  0  0999 V2000     
   21.2186   19.8731   21.0079 C   0  0  0  0  0  0  0  0  0  0  0  0
   21.5610   20.4560   20.1419 H   0  0  0  0  0  0  0  0  0  0  0  0
   21.6394   18.8713   20.8545 H   0  0  0  0  0  0  0  0  0  0  0  0
   19.6716   19.8095   20.9604 C   0  0  0  0  0  0  0  0  0  0  0  0
   19.2295   20.6863   21.4524 H   0  0  0  0  0  0  0  0  0  0  0  0
   19.3820   19.8930   19.9038 H   0  0  0  0  0  0  0  0  0  0  0  0
   19.0471   18.4905   21.4947 C   0  0  0  0  0  0  0  0  0  0  0  0
   19.6629   17.6223   21.2240 H   0  0  0  0  0  0  0  0  0  0  0  0
   18.0972   18.3502   20.9606 H   0  0  0  0  0  0  0  0  0  0  0  0
   18.7157   18.4804   23.0095 C   0  0  0  0  0  0  0  0  0  0  0  0
   18.4039   19.4822   23.3290 H   0  0  0  0  0  0  0  0  0  0  0  0
   17.8288   17.8491   23.1525 H   0  0  0  0  0  0  0  0  0  0  0  0
   19.8132   17.9161   23.9471 C   0  0  0  0  0  0  0  0  0  0  0  0
   19.8755   16.8314   23.7790 H   0  0  0  0  0  0  0  0  0  0  0  0
   21.2357   18.4950   23.7679 C   0  0  0  0  0  0  0  0  0  0  0  0
   21.8440   18.1857   24.6283 H   0  0  0  0  0  0  0  0  0  0  0  0
   21.7118   18.0097   22.9090 H   0  0  0  0  0  0  0  0  0  0  0  0
   21.3014   20.0403   23.6379 C   0  0  0  0  0  0  0  0  0  0  0  0
   21.9613   20.4332   24.4233 H   0  0  0  0  0  0  0  0  0  0  0  0
   20.3252   20.4975   23.8356 H   0  0  0  0  0  0  0  0  0  0  0  0
   21.8305   20.5356   22.2706 C   0  0  0  0  0  0  0  0  0  0  0  0
   22.9189   20.3898   22.2398 H   0  0  0  0  0  0  0  0  0  0  0  0
   21.6729   21.6212   22.2136 H   0  0  0  0  0  0  0  0  0  0  0  0
   19.4059   18.1486   25.2881 O   0  0  0  0  0  0  0  0  0  0  0  0
   19.4985   19.1120   25.4330 H   0  0  0  0  0  0  0  0  0  0  0  0
  1  2  1  0  0  0  0
  1  3  1  0  0  0  0
  1  4  1  0  0  0  0
  4  5  1  0  0  0  0
  4  6  1  0  0  0  0
  4  7  1  0  0  0  0
  7  8  1  0  0  0  0
  7  9  1  0  0  0  0
  7 10  1  0  0  0  0
 10 11  1  0  0  0  0
 10 12  1  0  0  0  0
 10 13  1  0  0  0  0
 13 14  1  0  0  0  0
 13 15  1  0  0  0  0
 15 16  1  0  0  0  0
 15 17  1  0  0  0  0
 15 18  1  0  0  0  0
 18 19  1  0  0  0  0
 18 20  1  0  0  0  0
  1 21  1  0  0  0  0
 18 21  1  0  0  0  0
 21 22  1  0  0  0  0
 21 23  1  0  0  0  0
 13 24  1  0  0  0  0
 24 25  1  0  0  0  0
M  END
> <VConfSearch Rank>
188

> <Conf_Id>
164

> <Delta U+W>
0.008

> <U+W>
10.922

> <U>
12.433

> <W>
-1.511

> <W(PB)>
-3.669

> <W(SA)>
2.157

> <Valence>
19.007

> <Coulomb>
-9.373

> <VdW>
2.799

> <VdW6>
-12.597

> <VdW12>
15.396

> <Bond>
0.425

> <Angle>
4.784

> <Pdih>
13.799

> <Idih>
0.000

> <Tether>
0.000

$$$$
VeraChem MOL file


 25 25  0  0  0  0  0  0  0  0999 V2000     
   22.0168   19.1983   22.0036 C   0  0  0  0  0  0  0  0  0  0  0  0
   21.4898   18.4338   21.4216 H   0  0  0  0  0  0  0  0  0  0  0  0
   23.0439   19.1827   21.6143 H   0  0  0  0  0  0  0  0  0  0  0  0
   22.0847   18.7901   23.4964 C   0  0  0  0  0  0  0  0  0  0  0  0
   22.6238   17.8345   23.5518 H   0  0  0  0  0  0  0  0  0  0  0  0
   22.7057   19.5131   24.0424 H   0  0  0  0  0  0  0  0  0  0  0  0
   20.7378   18.6182   24.2441 C   0  0  0  0  0  0  0  0  0  0  0  0
   20.3659   19.5875   24.5952 H   0  0  0  0  0  0  0  0  0  0  0  0
   20.9476   18.0551   25.1639 H   0  0  0  0  0  0  0  0  0  0  0  0
   19.6336   17.8646   23.4557 C   0  0  0  0  0  0  0  0  0  0  0  0
   20.0731   17.2080   22.6951 H   0  0  0  0  0  0  0  0  0  0  0  0
   19.1289   17.1927   24.1627 H   0  0  0  0  0  0  0  0  0  0  0  0
   18.5413   18.7716   22.8355 C   0  0  0  0  0  0  0  0  0  0  0  0
   18.1357   19.4124   23.6314 H   0  0  0  0  0  0  0  0  0  0  0  0
   18.9810   19.6809   21.6606 C   0  0  0  0  0  0  0  0  0  0  0  0
   19.3989   19.0840   20.8410 H   0  0  0  0  0  0  0  0  0  0  0  0
   18.0703   20.1386   21.2513 H   0  0  0  0  0  0  0  0  0  0  0  0
   19.9410   20.8357   22.0526 C   0  0  0  0  0  0  0  0  0  0  0  0
   19.8271   21.0871   23.1132 H   0  0  0  0  0  0  0  0  0  0  0  0
   19.6226   21.7422   21.5198 H   0  0  0  0  0  0  0  0  0  0  0  0
   21.4336   20.6022   21.7056 C   0  0  0  0  0  0  0  0  0  0  0  0
   22.0410   21.3629   22.2143 H   0  0  0  0  0  0  0  0  0  0  0  0
   21.5617   20.7900   20.6308 H   0  0  0  0  0  0  0  0  0  0  0  0
   17.4998   17.9290   22.3615 O   0  0  0  0  0  0  0  0  0  0  0  0
   17.8927   17.3738   21.6571 H   0  0  0  0  0  0  0  0  0  0  0  0
  1  2  1  0  0  0  0
  1  3  1  0  0  0  0
  1  4  1  0  0  0  0
  4  5  1  0  0  0  0
  4  6  1  0  0  0  0
  4  7  1  0  0  0  0
  7  8  1  0  0  0  0
  7  9  1  0  0  0  0
  7 10  1  0  0  0  0
 10 11  1  0  0  0  0
 10 12  1  0  0  0  0
 10 13  1  0  0  0  0
 13 14  1  0  0  0  0
 13 15  1  0  0  0  0
 15 16  1  0  0  0  0
 15 17  1  0  0  0  0
 15 18  1  0  0  0  0
 18 19  1  0  0  0  0
 18 20  1  0  0  0  0
  1 21  1  0  0  0  0
 18 21  1  0  0  0  0
 21 22  1  0  0  0  0
 21 23  1  0  0  0  0
 13 24  1  0  0  0  0
 24 25  1  0  0  0  0
M  END
> <VConfSearch Rank>
189

> <Conf_Id>
15

> <Delta U+W>
-1.271

> <U+W>
9.643

> <U>
11.413

> <W>
-1.770

> <W(PB)>
-3.908

> <W(SA)>
2.138

> <Valence>
17.496

> <Coulomb>
-8.736

> <VdW>
2.653

> <VdW6>
-12.485

> <VdW12>
15.138

> <Bond>
0.414

> <Angle>
5.295

> <Pdih>
11.787

> <Idih>
0.000

> <Tether>
0.000

$$$$
VeraChem MOL file


 25 25  0  0  0  0  0  0  0  0999 V2000     
   19.1359   18.0728   23.5952 C   0  0  0  0  0  0  0  0  0  0  0  0
   18.5264   17.4984   24.3062 H   0  0  0  0  0  0  0  0  0  0  0  0
   19.2267   17.4228   22.7158 H   0  0  0  0  0  0  0  0  0  0  0  0
   18.3366   19.3560   23.2467 C   0  0  0  0  0  0  0  0  0  0  0  0
   17.4376   19.0570   22.6906 H   0  0  0  0  0  0  0  0  0  0  0  0
   17.9736   19.8124   24.1777 H   0  0  0  0  0  0  0  0  0  0  0  0
   19.0843   20.4404   22.4342 C   0  0  0  0  0  0  0  0  0  0  0  0
   19.7419   21.0101   23.1010 H   0  0  0  0  0  0  0  0  0  0  0  0
   18.3445   21.1707   22.0789 H   0  0  0  0  0  0  0  0  0  0  0  0
   19.8676   19.8906   21.2137 C   0  0  0  0  0  0  0  0  0  0  0  0
   19.6285   18.8359   21.0383 H   0  0  0  0  0  0  0  0  0  0  0  0
   19.5182   20.4127   20.3134 H   0  0  0  0  0  0  0  0  0  0  0  0
   21.3998   20.0802   21.2970 C   0  0  0  0  0  0  0  0  0  0  0  0
   21.6130   21.1443   21.1204 H   0  0  0  0  0  0  0  0  0  0  0  0
   22.0736   19.6967   22.6398 C   0  0  0  0  0  0  0  0  0  0  0  0
   23.1590   19.7273   22.4740 H   0  0  0  0  0  0  0  0  0  0  0  0
   21.8896   20.4769   23.3882 H   0  0  0  0  0  0  0  0  0  0  0  0
   21.7184   18.3073   23.2335 C   0  0  0  0  0  0  0  0  0  0  0  0
   22.6021   17.9659   23.7901 H   0  0  0  0  0  0  0  0  0  0  0  0
   21.5718   17.5627   22.4405 H   0  0  0  0  0  0  0  0  0  0  0  0
   20.5291   18.2982   24.2330 C   0  0  0  0  0  0  0  0  0  0  0  0
   20.5301   19.1998   24.8603 H   0  0  0  0  0  0  0  0  0  0  0  0
   20.7017   17.4626   24.9253 H   0  0  0  0  0  0  0  0  0  0  0  0
   21.9981   19.3172   20.2586 O   0  0  0  0  0  0  0  0  0  0  0  0
   21.8665   18.3797   20.5054 H   0  0  0  0  0  0  0  0  0  0  0  0
  1  2  1  0  0  0  0
  1  3  1  0  0  0  0
  1  4  1  0  0  0  0
  4  5  1  0  0  0  0
  4  6  1  0  0  0  0
  4  7  1  0  0  0  0
  7  8  1  0  0  0  0
  7  9  1  0  0  0  0
  7 10  1  0  0  0  0
 10 11  1  0  0  0  0
 10 12  1  0  0  0  0
 10 13  1  0  0  0  0
 13 14  1  0  0  0  0
 13 15  1  0  0  0  0
 15 16  1  0  0  0  0
 15 17  1  0  0  0  0
 15 18  1  0  0  0  0
 18 19  1  0  0  0  0
 18 20  1  0  0  0  0
  1 21  1  0  0  0  0
 18 21  1  0  0  0  0
 21 22  1  0  0  0  0
 21 23  1  0  0  0  0
 13 24  1  0  0  0  0
 24 25  1  0  0  0  0
M  END
> <VConfSearch Rank>
190

> <Conf_Id>
115

> <Delta U+W>
0.038

> <U+W>
10.952

> <U>
12.526

> <W>
-1.575

> <W(PB)>
-3.698

> <W(SA)>
2.123

> <Valence>
19.016

> <Coulomb>
-9.226

> <VdW>
2.737

> <VdW6>
-12.612

> <VdW12>
15.349

> <Bond>
0.421

> <Angle>
4.883

> <Pdih>
13.711

> <Idih>
0.000

> <Tether>
0.000

$$$$
VeraChem MOL file


 25 25  0  0  0  0  0  0  0  0999 V2000     
   19.1750   20.8240   21.7779 C   0  0  0  0  0  0  0  0  0  0  0  0
   18.7612   21.8411   21.7423 H   0  0  0  0  0  0  0  0  0  0  0  0
   18.9997   20.4001   20.7799 H   0  0  0  0  0  0  0  0  0  0  0  0
   18.3708   20.0363   22.8382 C   0  0  0  0  0  0  0  0  0  0  0  0
   18.4480   20.5323   23.8153 H   0  0  0  0  0  0  0  0  0  0  0  0
   17.3101   20.0986   22.5588 H   0  0  0  0  0  0  0  0  0  0  0  0
   18.7418   18.5408   22.9675 C   0  0  0  0  0  0  0  0  0  0  0  0
   18.8948   18.0986   21.9740 H   0  0  0  0  0  0  0  0  0  0  0  0
   17.8693   18.0209   23.3865 H   0  0  0  0  0  0  0  0  0  0  0  0
   19.9464   18.2602   23.9057 C   0  0  0  0  0  0  0  0  0  0  0  0
   20.1936   19.1409   24.5116 H   0  0  0  0  0  0  0  0  0  0  0  0
   19.6300   17.4912   24.6234 H   0  0  0  0  0  0  0  0  0  0  0  0
   21.2114   17.7436   23.1841 C   0  0  0  0  0  0  0  0  0  0  0  0
   20.9058   17.0923   22.3527 H   0  0  0  0  0  0  0  0  0  0  0  0
   22.1398   18.8514   22.6388 C   0  0  0  0  0  0  0  0  0  0  0  0
   22.5044   19.4750   23.4657 H   0  0  0  0  0  0  0  0  0  0  0  0
   23.0286   18.3618   22.2196 H   0  0  0  0  0  0  0  0  0  0  0  0
   21.5305   19.7418   21.5287 C   0  0  0  0  0  0  0  0  0  0  0  0
   20.9565   19.1304   20.8196 H   0  0  0  0  0  0  0  0  0  0  0  0
   22.3654   20.1552   20.9463 H   0  0  0  0  0  0  0  0  0  0  0  0
   20.6931   20.9384   22.0514 C   0  0  0  0  0  0  0  0  0  0  0  0
   21.0507   21.8398   21.5348 H   0  0  0  0  0  0  0  0  0  0  0  0
   20.8775   21.1231   23.1180 H   0  0  0  0  0  0  0  0  0  0  0  0
   21.9648   16.9738   24.1133 O   0  0  0  0  0  0  0  0  0  0  0  0
   22.7327   16.6114   23.6242 H   0  0  0  0  0  0  0  0  0  0  0  0
  1  2  1  0  0  0  0
  1  3  1  0  0  0  0
  1  4  1  0  0  0  0
  4  5  1  0  0  0  0
  4  6  1  0  0  0  0
  4  7  1  0  0  0  0
  7  8  1  0  0  0  0
  7  9  1  0  0  0  0
  7 10  1  0  0  0  0
 10 11  1  0  0  0  0
 10 12  1  0  0  0  0
 10 13  1  0  0  0  0
 13 14  1  0  0  0  0
 13 15  1  0  0  0  0
 15 16  1  0  0  0  0
 15 17  1  0  0  0  0
 15 18  1  0  0  0  0
 18 19  1  0  0  0  0
 18 20  1  0  0  0  0
  1 21  1  0  0  0  0
 18 21  1  0  0  0  0
 21 22  1  0  0  0  0
 21 23  1  0  0  0  0
 13 24  1  0  0  0  0
 24 25  1  0  0  0  0
M  END
> <VConfSearch Rank>
191

> <Conf_Id>
30

> <Delta U+W>
0.000

> <U+W>
10.913

> <U>
13.140

> <W>
-2.227

> <W(PB)>
-4.367

> <W(SA)>
2.140

> <Valence>
19.155

> <Coulomb>
-8.157

> <VdW>
2.142

> <VdW6>
-11.576

> <VdW12>
13.718

> <Bond>
0.294

> <Angle>
3.547

> <Pdih>
15.314

> <Idih>
0.000

> <Tether>
0.000

$$$$
VeraChem MOL file


 25 25  0  0  0  0  0  0  0  0999 V2000     
   21.7153   18.2012   21.4402 C   0  0  0  0  0  0  0  0  0  0  0  0
   22.5277   17.4990   21.6721 H   0  0  0  0  0  0  0  0  0  0  0  0
   21.7681   18.3682   20.3557 H   0  0  0  0  0  0  0  0  0  0  0  0
   22.0089   19.5445   22.1525 C   0  0  0  0  0  0  0  0  0  0  0  0
   23.0735   19.7762   22.0121 H   0  0  0  0  0  0  0  0  0  0  0  0
   21.4792   20.3562   21.6404 H   0  0  0  0  0  0  0  0  0  0  0  0
   21.6983   19.5458   23.6708 C   0  0  0  0  0  0  0  0  0  0  0  0
   22.6048   19.8418   24.2161 H   0  0  0  0  0  0  0  0  0  0  0  0
   21.4753   18.5336   24.0277 H   0  0  0  0  0  0  0  0  0  0  0  0
   20.5551   20.5082   24.0814 C   0  0  0  0  0  0  0  0  0  0  0  0
   20.2856   20.3008   25.1254 H   0  0  0  0  0  0  0  0  0  0  0  0
   20.9441   21.5347   24.0688 H   0  0  0  0  0  0  0  0  0  0  0  0
   19.2721   20.4814   23.2134 C   0  0  0  0  0  0  0  0  0  0  0  0
   19.4870   20.9346   22.2365 H   0  0  0  0  0  0  0  0  0  0  0  0
   18.6629   19.0766   22.9839 C   0  0  0  0  0  0  0  0  0  0  0  0
   18.8563   18.4308   23.8500 H   0  0  0  0  0  0  0  0  0  0  0  0
   17.5707   19.1816   22.9387 H   0  0  0  0  0  0  0  0  0  0  0  0
   19.1001   18.3801   21.6643 C   0  0  0  0  0  0  0  0  0  0  0  0
   19.1978   19.1052   20.8451 H   0  0  0  0  0  0  0  0  0  0  0  0
   18.2778   17.7145   21.3675 H   0  0  0  0  0  0  0  0  0  0  0  0
   20.3710   17.5019   21.7753 C   0  0  0  0  0  0  0  0  0  0  0  0
   20.2637   16.6633   21.0736 H   0  0  0  0  0  0  0  0  0  0  0  0
   20.4166   17.0321   22.7660 H   0  0  0  0  0  0  0  0  0  0  0  0
   18.3032   21.2893   23.8712 O   0  0  0  0  0  0  0  0  0  0  0  0
   17.5235   21.3334   23.2792 H   0  0  0  0  0  0  0  0  0  0  0  0
  1  2  1  0  0  0  0
  1  3  1  0  0  0  0
  1  4  1  0  0  0  0
  4  5  1  0  0  0  0
  4  6  1  0  0  0  0
  4  7  1  0  0  0  0
  7  8  1  0  0  0  0
  7  9  1  0  0  0  0
  7 10  1  0  0  0  0
 10 11  1  0  0  0  0
 10 12  1  0  0  0  0
 10 13  1  0  0  0  0
 13 14  1  0  0  0  0
 13 15  1  0  0  0  0
 15 16  1  0  0  0  0
 15 17  1  0  0  0  0
 15 18  1  0  0  0  0
 18 19  1  0  0  0  0
 18 20  1  0  0  0  0
  1 21  1  0  0  0  0
 18 21  1  0  0  0  0
 21 22  1  0  0  0  0
 21 23  1  0  0  0  0
 13 24  1  0  0  0  0
 24 25  1  0  0  0  0
M  END
> <VConfSearch Rank>
192

> <Conf_Id>
162

> <Delta U+W>
0.219

> <U+W>
11.132

> <U>
13.296

> <W>
-2.164

> <W(PB)>
-4.311

> <W(SA)>
2.148

> <Valence>
18.607

> <Coulomb>
-8.339

> <VdW>
3.028

> <VdW6>
-12.271

> <VdW12>
15.299

> <Bond>
0.423

> <Angle>
4.488

> <Pdih>
13.696

> <Idih>
0.000

> <Tether>
0.000

$$$$
VeraChem MOL file


 25 25  0  0  0  0  0  0  0  0999 V2000     
   21.7879   17.9892   22.0370 C   0  0  0  0  0  0  0  0  0  0  0  0
   22.2635   18.1122   23.0183 H   0  0  0  0  0  0  0  0  0  0  0  0
   22.4239   17.2674   21.5065 H   0  0  0  0  0  0  0  0  0  0  0  0
   20.3841   17.3562   22.2055 C   0  0  0  0  0  0  0  0  0  0  0  0
   19.7621   17.5460   21.3204 H   0  0  0  0  0  0  0  0  0  0  0  0
   20.5271   16.2671   22.2320 H   0  0  0  0  0  0  0  0  0  0  0  0
   19.6358   17.7437   23.5114 C   0  0  0  0  0  0  0  0  0  0  0  0
   20.3311   17.8279   24.3572 H   0  0  0  0  0  0  0  0  0  0  0  0
   18.9760   16.9013   23.7607 H   0  0  0  0  0  0  0  0  0  0  0  0
   18.7361   19.0028   23.4094 C   0  0  0  0  0  0  0  0  0  0  0  0
   18.3026   19.0727   22.4041 H   0  0  0  0  0  0  0  0  0  0  0  0
   17.8775   18.8564   24.0777 H   0  0  0  0  0  0  0  0  0  0  0  0
   19.3874   20.3487   23.8165 C   0  0  0  0  0  0  0  0  0  0  0  0
   19.5298   20.3375   24.9067 H   0  0  0  0  0  0  0  0  0  0  0  0
   20.7599   20.6668   23.1768 C   0  0  0  0  0  0  0  0  0  0  0  0
   21.0031   21.7185   23.3763 H   0  0  0  0  0  0  0  0  0  0  0  0
   21.5370   20.1028   23.7036 H   0  0  0  0  0  0  0  0  0  0  0  0
   20.8369   20.4189   21.6470 C   0  0  0  0  0  0  0  0  0  0  0  0
   21.1306   21.3544   21.1520 H   0  0  0  0  0  0  0  0  0  0  0  0
   19.8468   20.1858   21.2378 H   0  0  0  0  0  0  0  0  0  0  0  0
   21.8409   19.3158   21.2336 C   0  0  0  0  0  0  0  0  0  0  0  0
   22.8594   19.7203   21.3092 H   0  0  0  0  0  0  0  0  0  0  0  0
   21.6866   19.0925   20.1691 H   0  0  0  0  0  0  0  0  0  0  0  0
   18.4786   21.3905   23.4806 O   0  0  0  0  0  0  0  0  0  0  0  0
   18.9059   22.2321   23.7416 H   0  0  0  0  0  0  0  0  0  0  0  0
  1  2  1  0  0  0  0
  1  3  1  0  0  0  0
  1  4  1  0  0  0  0
  4  5  1  0  0  0  0
  4  6  1  0  0  0  0
  4  7  1  0  0  0  0
  7  8  1  0  0  0  0
  7  9  1  0  0  0  0
  7 10  1  0  0  0  0
 10 11  1  0  0  0  0
 10 12  1  0  0  0  0
 10 13  1  0  0  0  0
 13 14  1  0  0  0  0
 13 15  1  0  0  0  0
 15 16  1  0  0  0  0
 15 17  1  0  0  0  0
 15 18  1  0  0  0  0
 18 19  1  0  0  0  0
 18 20  1  0  0  0  0
  1 21  1  0  0  0  0
 18 21  1  0  0  0  0
 21 22  1  0  0  0  0
 21 23  1  0  0  0  0
 13 24  1  0  0  0  0
 24 25  1  0  0  0  0
M  END
> <VConfSearch Rank>
193

> <Conf_Id>
155

> <Delta U+W>
0.339

> <U+W>
11.252

> <U>
13.420

> <W>
-2.167

> <W(PB)>
-4.325

> <W(SA)>
2.157

> <Valence>
18.609

> <Coulomb>
-8.052

> <VdW>
2.863

> <VdW6>
-12.524

> <VdW12>
15.387

> <Bond>
0.430

> <Angle>
4.724

> <Pdih>
13.455

> <Idih>
0.000

> <Tether>
0.000

$$$$
VeraChem MOL file


 25 25  0  0  0  0  0  0  0  0999 V2000     
   19.8899   19.5537   20.7505 C   0  0  0  0  0  0  0  0  0  0  0  0
   18.8158   19.5082   20.5258 H   0  0  0  0  0  0  0  0  0  0  0  0
   20.3781   19.7946   19.7963 H   0  0  0  0  0  0  0  0  0  0  0  0
   20.1617   20.7430   21.7088 C   0  0  0  0  0  0  0  0  0  0  0  0
   21.2418   20.8617   21.8405 H   0  0  0  0  0  0  0  0  0  0  0  0
   19.8638   21.6634   21.1882 H   0  0  0  0  0  0  0  0  0  0  0  0
   19.4333   20.7400   23.0846 C   0  0  0  0  0  0  0  0  0  0  0  0
   18.4479   21.2021   22.9361 H   0  0  0  0  0  0  0  0  0  0  0  0
   19.9699   21.4072   23.7729 H   0  0  0  0  0  0  0  0  0  0  0  0
   19.1934   19.3743   23.7839 C   0  0  0  0  0  0  0  0  0  0  0  0
   18.5516   19.5602   24.6550 H   0  0  0  0  0  0  0  0  0  0  0  0
   18.5669   18.7477   23.1432 H   0  0  0  0  0  0  0  0  0  0  0  0
   20.4376   18.5748   24.2711 C   0  0  0  0  0  0  0  0  0  0  0  0
   20.1491   17.5162   24.3411 H   0  0  0  0  0  0  0  0  0  0  0  0
   21.7280   18.6610   23.4179 C   0  0  0  0  0  0  0  0  0  0  0  0
   22.0678   19.7003   23.3881 H   0  0  0  0  0  0  0  0  0  0  0  0
   22.5238   18.1442   23.9704 H   0  0  0  0  0  0  0  0  0  0  0  0
   21.6973   18.0464   21.9862 C   0  0  0  0  0  0  0  0  0  0  0  0
   21.9418   16.9797   22.0810 H   0  0  0  0  0  0  0  0  0  0  0  0
   22.5140   18.4823   21.3952 H   0  0  0  0  0  0  0  0  0  0  0  0
   20.3768   18.1377   21.1770 C   0  0  0  0  0  0  0  0  0  0  0  0
   19.5868   17.5980   21.7086 H   0  0  0  0  0  0  0  0  0  0  0  0
   20.5114   17.5530   20.2568 H   0  0  0  0  0  0  0  0  0  0  0  0
   20.7714   19.0394   25.5745 O   0  0  0  0  0  0  0  0  0  0  0  0
   19.9687   18.9358   26.1260 H   0  0  0  0  0  0  0  0  0  0  0  0
  1  2  1  0  0  0  0
  1  3  1  0  0  0  0
  1  4  1  0  0  0  0
  4  5  1  0  0  0  0
  4  6  1  0  0  0  0
  4  7  1  0  0  0  0
  7  8  1  0  0  0  0
  7  9  1  0  0  0  0
  7 10  1  0  0  0  0
 10 11  1  0  0  0  0
 10 12  1  0  0  0  0
 10 13  1  0  0  0  0
 13 14  1  0  0  0  0
 13 15  1  0  0  0  0
 15 16  1  0  0  0  0
 15 17  1  0  0  0  0
 15 18  1  0  0  0  0
 18 19  1  0  0  0  0
 18 20  1  0  0  0  0
  1 21  1  0  0  0  0
 18 21  1  0  0  0  0
 21 22  1  0  0  0  0
 21 23  1  0  0  0  0
 13 24  1  0  0  0  0
 24 25  1  0  0  0  0
M  END
> <VConfSearch Rank>
194

> <Conf_Id>
146

> <Delta U+W>
2.553

> <U+W>
13.466

> <U>
15.643

> <W>
-2.176

> <W(PB)>
-4.307

> <W(SA)>
2.131

> <Valence>
18.916

> <Coulomb>
-7.506

> <VdW>
4.232

> <VdW6>
-13.632

> <VdW12>
17.864

> <Bond>
0.735

> <Angle>
9.140

> <Pdih>
9.042

> <Idih>
0.000

> <Tether>
0.000

$$$$
VeraChem MOL file


 25 25  0  0  0  0  0  0  0  0999 V2000     
   19.5662   19.4251   24.5861 C   0  0  0  0  0  0  0  0  0  0  0  0
   18.6688   20.0132   24.8211 H   0  0  0  0  0  0  0  0  0  0  0  0
   19.9079   19.0104   25.5444 H   0  0  0  0  0  0  0  0  0  0  0  0
   20.6778   20.3726   24.0698 C   0  0  0  0  0  0  0  0  0  0  0  0
   20.8959   21.0879   24.8745 H   0  0  0  0  0  0  0  0  0  0  0  0
   21.6145   19.8210   23.9302 H   0  0  0  0  0  0  0  0  0  0  0  0
   20.3379   21.1965   22.8025 C   0  0  0  0  0  0  0  0  0  0  0  0
   21.1665   21.8972   22.6315 H   0  0  0  0  0  0  0  0  0  0  0  0
   19.4561   21.8207   23.0007 H   0  0  0  0  0  0  0  0  0  0  0  0
   20.1087   20.4038   21.4891 C   0  0  0  0  0  0  0  0  0  0  0  0
   19.0875   20.0112   21.4551 H   0  0  0  0  0  0  0  0  0  0  0  0
   20.1518   21.1273   20.6638 H   0  0  0  0  0  0  0  0  0  0  0  0
   21.1283   19.2672   21.2197 C   0  0  0  0  0  0  0  0  0  0  0  0
   22.0372   19.4399   21.8117 H   0  0  0  0  0  0  0  0  0  0  0  0
   20.5858   17.8458   21.5150 C   0  0  0  0  0  0  0  0  0  0  0  0
   19.6593   17.6884   20.9471 H   0  0  0  0  0  0  0  0  0  0  0  0
   21.3053   17.1188   21.1161 H   0  0  0  0  0  0  0  0  0  0  0  0
   20.3419   17.4832   23.0052 C   0  0  0  0  0  0  0  0  0  0  0  0
   21.2645   17.5944   23.5895 H   0  0  0  0  0  0  0  0  0  0  0  0
   20.1087   16.4102   23.0398 H   0  0  0  0  0  0  0  0  0  0  0  0
   19.1637   18.2372   23.6743 C   0  0  0  0  0  0  0  0  0  0  0  0
   18.6126   17.5225   24.3007 H   0  0  0  0  0  0  0  0  0  0  0  0
   18.4348   18.5578   22.9214 H   0  0  0  0  0  0  0  0  0  0  0  0
   21.4812   19.3075   19.8416 O   0  0  0  0  0  0  0  0  0  0  0  0
   22.1681   18.6222   19.7049 H   0  0  0  0  0  0  0  0  0  0  0  0
  1  2  1  0  0  0  0
  1  3  1  0  0  0  0
  1  4  1  0  0  0  0
  4  5  1  0  0  0  0
  4  6  1  0  0  0  0
  4  7  1  0  0  0  0
  7  8  1  0  0  0  0
  7  9  1  0  0  0  0
  7 10  1  0  0  0  0
 10 11  1  0  0  0  0
 10 12  1  0  0  0  0
 10 13  1  0  0  0  0
 13 14  1  0  0  0  0
 13 15  1  0  0  0  0
 15 16  1  0  0  0  0
 15 17  1  0  0  0  0
 15 18  1  0  0  0  0
 18 19  1  0  0  0  0
 18 20  1  0  0  0  0
  1 21  1  0  0  0  0
 18 21  1  0  0  0  0
 21 22  1  0  0  0  0
 21 23  1  0  0  0  0
 13 24  1  0  0  0  0
 24 25  1  0  0  0  0
M  END
> <VConfSearch Rank>
195

> <Conf_Id>
62

> <Delta U+W>
-1.779

> <U+W>
9.134

> <U>
11.364

> <W>
-2.230

> <W(PB)>
-4.359

> <W(SA)>
2.129

> <Valence>
16.582

> <Coulomb>
-8.150

> <VdW>
2.933

> <VdW6>
-12.531

> <VdW12>
15.464

> <Bond>
0.439

> <Angle>
5.099

> <Pdih>
11.044

> <Idih>
0.000

> <Tether>
0.000

$$$$
VeraChem MOL file


 25 25  0  0  0  0  0  0  0  0999 V2000     
   20.2009   17.9516   24.0494 C   0  0  0  0  0  0  0  0  0  0  0  0
   20.4274   18.8929   24.5631 H   0  0  0  0  0  0  0  0  0  0  0  0
   20.1206   17.2094   24.8552 H   0  0  0  0  0  0  0  0  0  0  0  0
   21.3888   17.5277   23.1500 C   0  0  0  0  0  0  0  0  0  0  0  0
   22.2654   17.4029   23.8003 H   0  0  0  0  0  0  0  0  0  0  0  0
   21.1879   16.5335   22.7285 H   0  0  0  0  0  0  0  0  0  0  0  0
   21.7841   18.4905   22.0014 C   0  0  0  0  0  0  0  0  0  0  0  0
   21.1466   18.3264   21.1252 H   0  0  0  0  0  0  0  0  0  0  0  0
   22.7897   18.2001   21.6675 H   0  0  0  0  0  0  0  0  0  0  0  0
   21.8143   19.9958   22.3788 C   0  0  0  0  0  0  0  0  0  0  0  0
   21.9661   20.1294   23.4569 H   0  0  0  0  0  0  0  0  0  0  0  0
   22.7043   20.4309   21.9054 H   0  0  0  0  0  0  0  0  0  0  0  0
   20.5893   20.8139   21.8977 C   0  0  0  0  0  0  0  0  0  0  0  0
   20.4666   20.6478   20.8177 H   0  0  0  0  0  0  0  0  0  0  0  0
   19.2385   20.5022   22.5890 C   0  0  0  0  0  0  0  0  0  0  0  0
   19.3173   20.6527   23.6725 H   0  0  0  0  0  0  0  0  0  0  0  0
   18.5210   21.2587   22.2445 H   0  0  0  0  0  0  0  0  0  0  0  0
   18.6380   19.1095   22.2582 C   0  0  0  0  0  0  0  0  0  0  0  0
   19.0192   18.7451   21.2976 H   0  0  0  0  0  0  0  0  0  0  0  0
   17.5582   19.2315   22.0966 H   0  0  0  0  0  0  0  0  0  0  0  0
   18.8166   18.0328   23.3589 C   0  0  0  0  0  0  0  0  0  0  0  0
   18.5613   17.0497   22.9408 H   0  0  0  0  0  0  0  0  0  0  0  0
   18.0699   18.2257   24.1413 H   0  0  0  0  0  0  0  0  0  0  0  0
   20.8753   22.1894   22.1185 O   0  0  0  0  0  0  0  0  0  0  0  0
   21.6948   22.3916   21.6208 H   0  0  0  0  0  0  0  0  0  0  0  0
  1  2  1  0  0  0  0
  1  3  1  0  0  0  0
  1  4  1  0  0  0  0
  4  5  1  0  0  0  0
  4  6  1  0  0  0  0
  4  7  1  0  0  0  0
  7  8  1  0  0  0  0
  7  9  1  0  0  0  0
  7 10  1  0  0  0  0
 10 11  1  0  0  0  0
 10 12  1  0  0  0  0
 10 13  1  0  0  0  0
 13 14  1  0  0  0  0
 13 15  1  0  0  0  0
 15 16  1  0  0  0  0
 15 17  1  0  0  0  0
 15 18  1  0  0  0  0
 18 19  1  0  0  0  0
 18 20  1  0  0  0  0
  1 21  1  0  0  0  0
 18 21  1  0  0  0  0
 21 22  1  0  0  0  0
 21 23  1  0  0  0  0
 13 24  1  0  0  0  0
 24 25  1  0  0  0  0
M  END
> <VConfSearch Rank>
196

> <Conf_Id>
121

> <Delta U+W>
-1.283

> <U+W>
9.630

> <U>
11.876

> <W>
-2.246

> <W(PB)>
-4.376

> <W(SA)>
2.130

> <Valence>
17.153

> <Coulomb>
-7.966

> <VdW>
2.689

> <VdW6>
-12.458

> <VdW12>
15.147

> <Bond>
0.421

> <Angle>
5.258

> <Pdih>
11.475

> <Idih>
0.000

> <Tether>
0.000

$$$$
VeraChem MOL file


 25 25  0  0  0  0  0  0  0  0999 V2000     
   20.4676   18.7409   24.4591 C   0  0  0  0  0  0  0  0  0  0  0  0
   19.6605   18.1193   24.0550 H   0  0  0  0  0  0  0  0  0  0  0  0
   20.5586   18.4283   25.5082 H   0  0  0  0  0  0  0  0  0  0  0  0
   20.0522   20.2332   24.4579 C   0  0  0  0  0  0  0  0  0  0  0  0
   19.1546   20.3249   25.0845 H   0  0  0  0  0  0  0  0  0  0  0  0
   20.8276   20.8263   24.9613 H   0  0  0  0  0  0  0  0  0  0  0  0
   19.7382   20.8783   23.0838 C   0  0  0  0  0  0  0  0  0  0  0  0
   20.6613   21.2058   22.5922 H   0  0  0  0  0  0  0  0  0  0  0  0
   19.1872   21.8081   23.2808 H   0  0  0  0  0  0  0  0  0  0  0  0
   18.8885   20.0066   22.1205 C   0  0  0  0  0  0  0  0  0  0  0  0
   18.2888   19.2739   22.6738 H   0  0  0  0  0  0  0  0  0  0  0  0
   18.1590   20.6693   21.6362 H   0  0  0  0  0  0  0  0  0  0  0  0
   19.6871   19.3118   20.9894 C   0  0  0  0  0  0  0  0  0  0  0  0
   20.2741   20.0793   20.4646 H   0  0  0  0  0  0  0  0  0  0  0  0
   20.6488   18.1764   21.4224 C   0  0  0  0  0  0  0  0  0  0  0  0
   20.1005   17.3918   21.9581 H   0  0  0  0  0  0  0  0  0  0  0  0
   21.0206   17.6964   20.5077 H   0  0  0  0  0  0  0  0  0  0  0  0
   21.8886   18.6430   22.2314 C   0  0  0  0  0  0  0  0  0  0  0  0
   22.1148   19.6936   22.0167 H   0  0  0  0  0  0  0  0  0  0  0  0
   22.7655   18.0928   21.8634 H   0  0  0  0  0  0  0  0  0  0  0  0
   21.8091   18.4050   23.7610 C   0  0  0  0  0  0  0  0  0  0  0  0
   22.6215   18.9588   24.2506 H   0  0  0  0  0  0  0  0  0  0  0  0
   22.0197   17.3429   23.9469 H   0  0  0  0  0  0  0  0  0  0  0  0
   18.7453   18.7562   20.0801 O   0  0  0  0  0  0  0  0  0  0  0  0
   19.2589   18.3796   19.3354 H   0  0  0  0  0  0  0  0  0  0  0  0
  1  2  1  0  0  0  0
  1  3  1  0  0  0  0
  1  4  1  0  0  0  0
  4  5  1  0  0  0  0
  4  6  1  0  0  0  0
  4  7  1  0  0  0  0
  7  8  1  0  0  0  0
  7  9  1  0  0  0  0
  7 10  1  0  0  0  0
 10 11  1  0  0  0  0
 10 12  1  0  0  0  0
 10 13  1  0  0  0  0
 13 14  1  0  0  0  0
 13 15  1  0  0  0  0
 15 16  1  0  0  0  0
 15 17  1  0  0  0  0
 15 18  1  0  0  0  0
 18 19  1  0  0  0  0
 18 20  1  0  0  0  0
  1 21  1  0  0  0  0
 18 21  1  0  0  0  0
 21 22  1  0  0  0  0
 21 23  1  0  0  0  0
 13 24  1  0  0  0  0
 24 25  1  0  0  0  0
M  END
> <VConfSearch Rank>
197

> <Conf_Id>
24

> <Delta U+W>
-1.236

> <U+W>
9.678

> <U>
11.876

> <W>
-2.199

> <W(PB)>
-4.335

> <W(SA)>
2.137

> <Valence>
17.153

> <Coulomb>
-7.966

> <VdW>
2.689

> <VdW6>
-12.458

> <VdW12>
15.147

> <Bond>
0.421

> <Angle>
5.258

> <Pdih>
11.475

> <Idih>
0.000

> <Tether>
0.000

$$$$
VeraChem MOL file


 25 25  0  0  0  0  0  0  0  0999 V2000     
   19.1662   20.3991   21.2521 C   0  0  0  0  0  0  0  0  0  0  0  0
   19.4438   21.4345   21.0121 H   0  0  0  0  0  0  0  0  0  0  0  0
   18.2380   20.2043   20.6976 H   0  0  0  0  0  0  0  0  0  0  0  0
   20.2601   19.4458   20.7016 C   0  0  0  0  0  0  0  0  0  0  0  0
   19.8766   18.4204   20.6258 H   0  0  0  0  0  0  0  0  0  0  0  0
   20.4547   19.7485   19.6635 H   0  0  0  0  0  0  0  0  0  0  0  0
   21.6105   19.4511   21.4598 C   0  0  0  0  0  0  0  0  0  0  0  0
   21.8395   20.4552   21.8418 H   0  0  0  0  0  0  0  0  0  0  0  0
   22.3929   19.2363   20.7189 H   0  0  0  0  0  0  0  0  0  0  0  0
   21.7436   18.3803   22.5794 C   0  0  0  0  0  0  0  0  0  0  0  0
   21.2406   17.4486   22.2904 H   0  0  0  0  0  0  0  0  0  0  0  0
   22.8111   18.1296   22.6477 H   0  0  0  0  0  0  0  0  0  0  0  0
   21.2748   18.8385   23.9820 C   0  0  0  0  0  0  0  0  0  0  0  0
   21.4116   19.9253   24.0577 H   0  0  0  0  0  0  0  0  0  0  0  0
   19.8108   18.4803   24.3428 C   0  0  0  0  0  0  0  0  0  0  0  0
   19.7343   17.4004   24.5254 H   0  0  0  0  0  0  0  0  0  0  0  0
   19.5759   18.9656   25.2993 H   0  0  0  0  0  0  0  0  0  0  0  0
   18.7205   18.8751   23.3151 C   0  0  0  0  0  0  0  0  0  0  0  0
   17.7411   18.7763   23.8027 H   0  0  0  0  0  0  0  0  0  0  0  0
   18.7007   18.1445   22.4981 H   0  0  0  0  0  0  0  0  0  0  0  0
   18.8600   20.3181   22.7677 C   0  0  0  0  0  0  0  0  0  0  0  0
   19.6164   20.8812   23.3267 H   0  0  0  0  0  0  0  0  0  0  0  0
   17.9203   20.8561   22.9527 H   0  0  0  0  0  0  0  0  0  0  0  0
   22.1106   18.2252   24.9553 O   0  0  0  0  0  0  0  0  0  0  0  0
   21.9883   17.2587   24.8560 H   0  0  0  0  0  0  0  0  0  0  0  0
  1  2  1  0  0  0  0
  1  3  1  0  0  0  0
  1  4  1  0  0  0  0
  4  5  1  0  0  0  0
  4  6  1  0  0  0  0
  4  7  1  0  0  0  0
  7  8  1  0  0  0  0
  7  9  1  0  0  0  0
  7 10  1  0  0  0  0
 10 11  1  0  0  0  0
 10 12  1  0  0  0  0
 10 13  1  0  0  0  0
 13 14  1  0  0  0  0
 13 15  1  0  0  0  0
 15 16  1  0  0  0  0
 15 17  1  0  0  0  0
 15 18  1  0  0  0  0
 18 19  1  0  0  0  0
 18 20  1  0  0  0  0
  1 21  1  0  0  0  0
 18 21  1  0  0  0  0
 21 22  1  0  0  0  0
 21 23  1  0  0  0  0
 13 24  1  0  0  0  0
 24 25  1  0  0  0  0
M  END
> <VConfSearch Rank>
198

> <Conf_Id>
167

> <Delta U+W>
0.388

> <U+W>
11.301

> <U>
13.202

> <W>
-1.901

> <W(PB)>
-4.065

> <W(SA)>
2.163

> <Valence>
18.957

> <Coulomb>
-8.753

> <VdW>
2.998

> <VdW6>
-12.294

> <VdW12>
15.292

> <Bond>
0.419

> <Angle>
4.543

> <Pdih>
13.996

> <Idih>
0.000

> <Tether>
0.000

$$$$
VeraChem MOL file


 25 25  0  0  0  0  0  0  0  0999 V2000     
   22.3513   19.5135   22.5815 C   0  0  0  0  0  0  0  0  0  0  0  0
   22.9991   18.8369   22.0078 H   0  0  0  0  0  0  0  0  0  0  0  0
   23.0202   20.2755   23.0045 H   0  0  0  0  0  0  0  0  0  0  0  0
   21.7251   18.7275   23.7627 C   0  0  0  0  0  0  0  0  0  0  0  0
   21.4249   17.7233   23.4429 H   0  0  0  0  0  0  0  0  0  0  0  0
   22.5265   18.5524   24.4936 H   0  0  0  0  0  0  0  0  0  0  0  0
   20.5558   19.4388   24.4918 C   0  0  0  0  0  0  0  0  0  0  0  0
   20.6250   20.5285   24.3790 H   0  0  0  0  0  0  0  0  0  0  0  0
   20.6763   19.2538   25.5679 H   0  0  0  0  0  0  0  0  0  0  0  0
   19.1401   18.9334   24.1013 C   0  0  0  0  0  0  0  0  0  0  0  0
   19.0828   17.8487   24.2610 H   0  0  0  0  0  0  0  0  0  0  0  0
   18.4252   19.3748   24.8083 H   0  0  0  0  0  0  0  0  0  0  0  0
   18.6492   19.2642   22.6698 C   0  0  0  0  0  0  0  0  0  0  0  0
   18.7382   20.3457   22.5006 H   0  0  0  0  0  0  0  0  0  0  0  0
   19.3969   18.4944   21.5504 C   0  0  0  0  0  0  0  0  0  0  0  0
   19.8571   17.5890   21.9588 H   0  0  0  0  0  0  0  0  0  0  0  0
   18.6717   18.1224   20.8145 H   0  0  0  0  0  0  0  0  0  0  0  0
   20.4499   19.3267   20.7737 C   0  0  0  0  0  0  0  0  0  0  0  0
   19.9142   19.9688   20.0612 H   0  0  0  0  0  0  0  0  0  0  0  0
   21.0601   18.6481   20.1623 H   0  0  0  0  0  0  0  0  0  0  0  0
   21.3819   20.2366   21.6129 C   0  0  0  0  0  0  0  0  0  0  0  0
   20.7995   20.9928   22.1515 H   0  0  0  0  0  0  0  0  0  0  0  0
   21.9962   20.8125   20.9073 H   0  0  0  0  0  0  0  0  0  0  0  0
   17.2710   18.9175   22.6043 O   0  0  0  0  0  0  0  0  0  0  0  0
   16.9537   19.1941   21.7192 H   0  0  0  0  0  0  0  0  0  0  0  0
  1  2  1  0  0  0  0
  1  3  1  0  0  0  0
  1  4  1  0  0  0  0
  4  5  1  0  0  0  0
  4  6  1  0  0  0  0
  4  7  1  0  0  0  0
  7  8  1  0  0  0  0
  7  9  1  0  0  0  0
  7 10  1  0  0  0  0
 10 11  1  0  0  0  0
 10 12  1  0  0  0  0
 10 13  1  0  0  0  0
 13 14  1  0  0  0  0
 13 15  1  0  0  0  0
 15 16  1  0  0  0  0
 15 17  1  0  0  0  0
 15 18  1  0  0  0  0
 18 19  1  0  0  0  0
 18 20  1  0  0  0  0
  1 21  1  0  0  0  0
 18 21  1  0  0  0  0
 21 22  1  0  0  0  0
 21 23  1  0  0  0  0
 13 24  1  0  0  0  0
 24 25  1  0  0  0  0
M  END
> <VConfSearch Rank>
199

> <Conf_Id>
60

> <Delta U+W>
-1.838

> <U+W>
9.075

> <U>
11.150

> <W>
-2.074

> <W(PB)>
-4.196

> <W(SA)>
2.121

> <Valence>
16.582

> <Coulomb>
-8.361

> <VdW>
2.928

> <VdW6>
-12.539

> <VdW12>
15.467

> <Bond>
0.441

> <Angle>
5.093

> <Pdih>
11.049

> <Idih>
0.000

> <Tether>
0.000

$$$$
VeraChem MOL file


 25 25  0  0  0  0  0  0  0  0999 V2000     
   19.1935   20.9157   22.6766 C   0  0  0  0  0  0  0  0  0  0  0  0
   19.6624   21.9060   22.5995 H   0  0  0  0  0  0  0  0  0  0  0  0
   18.1168   21.1058   22.7844 H   0  0  0  0  0  0  0  0  0  0  0  0
   19.6725   20.2231   23.9771 C   0  0  0  0  0  0  0  0  0  0  0  0
   19.3564   20.8553   24.8181 H   0  0  0  0  0  0  0  0  0  0  0  0
   19.1358   19.2791   24.1256 H   0  0  0  0  0  0  0  0  0  0  0  0
   21.2009   20.0081   24.1135 C   0  0  0  0  0  0  0  0  0  0  0  0
   21.3919   19.6199   25.1233 H   0  0  0  0  0  0  0  0  0  0  0  0
   21.7094   20.9807   24.0674 H   0  0  0  0  0  0  0  0  0  0  0  0
   21.8670   19.0436   23.0982 C   0  0  0  0  0  0  0  0  0  0  0  0
   22.0583   19.5624   22.1535 H   0  0  0  0  0  0  0  0  0  0  0  0
   22.8668   18.8064   23.4854 H   0  0  0  0  0  0  0  0  0  0  0  0
   21.0884   17.7283   22.8362 C   0  0  0  0  0  0  0  0  0  0  0  0
   20.3838   17.5433   23.6581 H   0  0  0  0  0  0  0  0  0  0  0  0
   20.3169   17.7070   21.4932 C   0  0  0  0  0  0  0  0  0  0  0  0
   21.0135   17.9243   20.6730 H   0  0  0  0  0  0  0  0  0  0  0  0
   19.9722   16.6782   21.3239 H   0  0  0  0  0  0  0  0  0  0  0  0
   19.0794   18.6387   21.3801 C   0  0  0  0  0  0  0  0  0  0  0  0
   18.3484   18.4122   22.1669 H   0  0  0  0  0  0  0  0  0  0  0  0
   18.5738   18.3866   20.4379 H   0  0  0  0  0  0  0  0  0  0  0  0
   19.4066   20.1541   21.3425 C   0  0  0  0  0  0  0  0  0  0  0  0
   18.7538   20.6254   20.5950 H   0  0  0  0  0  0  0  0  0  0  0  0
   20.4204   20.3193   20.9607 H   0  0  0  0  0  0  0  0  0  0  0  0
   22.0233   16.6564   22.8044 O   0  0  0  0  0  0  0  0  0  0  0  0
   22.4567   16.6358   23.6832 H   0  0  0  0  0  0  0  0  0  0  0  0
  1  2  1  0  0  0  0
  1  3  1  0  0  0  0
  1  4  1  0  0  0  0
  4  5  1  0  0  0  0
  4  6  1  0  0  0  0
  4  7  1  0  0  0  0
  7  8  1  0  0  0  0
  7  9  1  0  0  0  0
  7 10  1  0  0  0  0
 10 11  1  0  0  0  0
 10 12  1  0  0  0  0
 10 13  1  0  0  0  0
 13 14  1  0  0  0  0
 13 15  1  0  0  0  0
 15 16  1  0  0  0  0
 15 17  1  0  0  0  0
 15 18  1  0  0  0  0
 18 19  1  0  0  0  0
 18 20  1  0  0  0  0
  1 21  1  0  0  0  0
 18 21  1  0  0  0  0
 21 22  1  0  0  0  0
 21 23  1  0  0  0  0
 13 24  1  0  0  0  0
 24 25  1  0  0  0  0
M  END
> <VConfSearch Rank>
200

> <Conf_Id>
129

> <Delta U+W>
-1.846

> <U+W>
9.067

> <U>
11.150

> <W>
-2.083

> <W(PB)>
-4.217

> <W(SA)>
2.134

> <Valence>
16.583

> <Coulomb>
-8.361

> <VdW>
2.928

> <VdW6>
-12.539

> <VdW12>
15.467

> <Bond>
0.441

> <Angle>
5.093

> <Pdih>
11.049

> <Idih>
0.000

> <Tether>
0.000

$$$$
VeraChem MOL file


 25 25  0  0  0  0  0  0  0  0999 V2000     
   21.2834   17.5899   23.4041 C   0  0  0  0  0  0  0  0  0  0  0  0
   22.3789   17.5984   23.4845 H   0  0  0  0  0  0  0  0  0  0  0  0
   20.9654   16.6142   23.7964 H   0  0  0  0  0  0  0  0  0  0  0  0
   20.8799   17.6405   21.9092 C   0  0  0  0  0  0  0  0  0  0  0  0
   21.2989   16.7461   21.4282 H   0  0  0  0  0  0  0  0  0  0  0  0
   19.7949   17.5275   21.8030 H   0  0  0  0  0  0  0  0  0  0  0  0
   21.3795   18.8691   21.1084 C   0  0  0  0  0  0  0  0  0  0  0  0
   21.1173   18.7052   20.0542 H   0  0  0  0  0  0  0  0  0  0  0  0
   22.4770   18.9016   21.1406 H   0  0  0  0  0  0  0  0  0  0  0  0
   20.8221   20.2549   21.5259 C   0  0  0  0  0  0  0  0  0  0  0  0
   21.3772   20.6415   22.3867 H   0  0  0  0  0  0  0  0  0  0  0  0
   21.0554   20.9522   20.7099 H   0  0  0  0  0  0  0  0  0  0  0  0
   19.2979   20.2911   21.8090 C   0  0  0  0  0  0  0  0  0  0  0  0
   18.8120   19.4307   21.3299 H   0  0  0  0  0  0  0  0  0  0  0  0
   18.9301   20.3125   23.3140 C   0  0  0  0  0  0  0  0  0  0  0  0
   19.4386   21.1539   23.8027 H   0  0  0  0  0  0  0  0  0  0  0  0
   17.8559   20.5278   23.3917 H   0  0  0  0  0  0  0  0  0  0  0  0
   19.2027   19.0142   24.1209 C   0  0  0  0  0  0  0  0  0  0  0  0
   18.6704   18.1619   23.6792 H   0  0  0  0  0  0  0  0  0  0  0  0
   18.7498   19.1519   25.1124 H   0  0  0  0  0  0  0  0  0  0  0  0
   20.7028   18.6852   24.3355 C   0  0  0  0  0  0  0  0  0  0  0  0
   20.8304   18.3312   25.3677 H   0  0  0  0  0  0  0  0  0  0  0  0
   21.3082   19.5970   24.2837 H   0  0  0  0  0  0  0  0  0  0  0  0
   18.7661   21.4748   21.2276 O   0  0  0  0  0  0  0  0  0  0  0  0
   19.2104   22.2254   21.6728 H   0  0  0  0  0  0  0  0  0  0  0  0
  1  2  1  0  0  0  0
  1  3  1  0  0  0  0
  1  4  1  0  0  0  0
  4  5  1  0  0  0  0
  4  6  1  0  0  0  0
  4  7  1  0  0  0  0
  7  8  1  0  0  0  0
  7  9  1  0  0  0  0
  7 10  1  0  0  0  0
 10 11  1  0  0  0  0
 10 12  1  0  0  0  0
 10 13  1  0  0  0  0
 13 14  1  0  0  0  0
 13 15  1  0  0  0  0
 15 16  1  0  0  0  0
 15 17  1  0  0  0  0
 15 18  1  0  0  0  0
 18 19  1  0  0  0  0
 18 20  1  0  0  0  0
  1 21  1  0  0  0  0
 18 21  1  0  0  0  0
 21 22  1  0  0  0  0
 21 23  1  0  0  0  0
 13 24  1  0  0  0  0
 24 25  1  0  0  0  0
M  END
> <VConfSearch Rank>
201

> <Conf_Id>
140

> <Delta U+W>
-1.702

> <U+W>
9.211

> <U>
11.181

> <W>
-1.969

> <W(PB)>
-4.093

> <W(SA)>
2.124

> <Valence>
16.954

> <Coulomb>
-8.661

> <VdW>
2.887

> <VdW6>
-12.561

> <VdW12>
15.448

> <Bond>
0.433

> <Angle>
5.120

> <Pdih>
11.401

> <Idih>
0.000

> <Tether>
0.000

$$$$
VeraChem MOL file


 25 25  0  0  0  0  0  0  0  0999 V2000     
   20.6852   17.7559   24.0855 C   0  0  0  0  0  0  0  0  0  0  0  0
   21.5750   17.1162   24.0114 H   0  0  0  0  0  0  0  0  0  0  0  0
   20.1695   17.4407   25.0029 H   0  0  0  0  0  0  0  0  0  0  0  0
   19.7471   17.4522   22.8887 C   0  0  0  0  0  0  0  0  0  0  0  0
   20.3261   17.3218   21.9675 H   0  0  0  0  0  0  0  0  0  0  0  0
   19.3001   16.4655   23.0720 H   0  0  0  0  0  0  0  0  0  0  0  0
   18.5971   18.4692   22.6701 C   0  0  0  0  0  0  0  0  0  0  0  0
   18.3416   18.9839   23.6053 H   0  0  0  0  0  0  0  0  0  0  0  0
   17.6976   17.8979   22.4027 H   0  0  0  0  0  0  0  0  0  0  0  0
   18.8408   19.4915   21.5271 C   0  0  0  0  0  0  0  0  0  0  0  0
   19.0511   18.9483   20.5965 H   0  0  0  0  0  0  0  0  0  0  0  0
   17.8952   20.0228   21.3548 H   0  0  0  0  0  0  0  0  0  0  0  0
   19.9420   20.5557   21.7634 C   0  0  0  0  0  0  0  0  0  0  0  0
   19.7452   21.0761   22.7102 H   0  0  0  0  0  0  0  0  0  0  0  0
   21.3853   19.9889   21.7689 C   0  0  0  0  0  0  0  0  0  0  0  0
   21.4217   19.0382   21.2272 H   0  0  0  0  0  0  0  0  0  0  0  0
   22.0399   20.6596   21.1959 H   0  0  0  0  0  0  0  0  0  0  0  0
   22.0224   19.8287   23.1738 C   0  0  0  0  0  0  0  0  0  0  0  0
   22.3456   20.8230   23.5115 H   0  0  0  0  0  0  0  0  0  0  0  0
   22.9402   19.2321   23.0835 H   0  0  0  0  0  0  0  0  0  0  0  0
   21.1279   19.2269   24.2865 C   0  0  0  0  0  0  0  0  0  0  0  0
   20.2563   19.8662   24.4672 H   0  0  0  0  0  0  0  0  0  0  0  0
   21.7004   19.2696   25.2231 H   0  0  0  0  0  0  0  0  0  0  0  0
   19.8423   21.5071   20.7112 O   0  0  0  0  0  0  0  0  0  0  0  0
   20.0172   21.0196   19.8801 H   0  0  0  0  0  0  0  0  0  0  0  0
  1  2  1  0  0  0  0
  1  3  1  0  0  0  0
  1  4  1  0  0  0  0
  4  5  1  0  0  0  0
  4  6  1  0  0  0  0
  4  7  1  0  0  0  0
  7  8  1  0  0  0  0
  7  9  1  0  0  0  0
  7 10  1  0  0  0  0
 10 11  1  0  0  0  0
 10 12  1  0  0  0  0
 10 13  1  0  0  0  0
 13 14  1  0  0  0  0
 13 15  1  0  0  0  0
 15 16  1  0  0  0  0
 15 17  1  0  0  0  0
 15 18  1  0  0  0  0
 18 19  1  0  0  0  0
 18 20  1  0  0  0  0
  1 21  1  0  0  0  0
 18 21  1  0  0  0  0
 21 22  1  0  0  0  0
 21 23  1  0  0  0  0
 13 24  1  0  0  0  0
 24 25  1  0  0  0  0
M  END
> <VConfSearch Rank>
202

> <Conf_Id>
68

> <Delta U+W>
-1.765

> <U+W>
9.148

> <U>
11.181

> <W>
-2.032

> <W(PB)>
-4.147

> <W(SA)>
2.114

> <Valence>
16.955

> <Coulomb>
-8.661

> <VdW>
2.887

> <VdW6>
-12.561

> <VdW12>
15.448

> <Bond>
0.433

> <Angle>
5.121

> <Pdih>
11.402

> <Idih>
0.000

> <Tether>
0.000

$$$$
VeraChem MOL file


 25 25  0  0  0  0  0  0  0  0999 V2000     
   20.1801   18.7540   20.8458 C   0  0  0  0  0  0  0  0  0  0  0  0
   20.0253   18.4885   19.7910 H   0  0  0  0  0  0  0  0  0  0  0  0
   21.2522   18.5980   21.0102 H   0  0  0  0  0  0  0  0  0  0  0  0
   19.3470   17.7765   21.7151 C   0  0  0  0  0  0  0  0  0  0  0  0
   18.3686   18.2058   21.9661 H   0  0  0  0  0  0  0  0  0  0  0  0
   19.1225   16.8956   21.0981 H   0  0  0  0  0  0  0  0  0  0  0  0
   20.0668   17.2640   22.9902 C   0  0  0  0  0  0  0  0  0  0  0  0
   21.0201   16.7968   22.7075 H   0  0  0  0  0  0  0  0  0  0  0  0
   19.4571   16.4549   23.4149 H   0  0  0  0  0  0  0  0  0  0  0  0
   20.3191   18.3046   24.1136 C   0  0  0  0  0  0  0  0  0  0  0  0
   19.3736   18.7609   24.4304 H   0  0  0  0  0  0  0  0  0  0  0  0
   20.6763   17.7446   24.9885 H   0  0  0  0  0  0  0  0  0  0  0  0
   21.3677   19.3910   23.7600 C   0  0  0  0  0  0  0  0  0  0  0  0
   21.9880   19.0323   22.9304 H   0  0  0  0  0  0  0  0  0  0  0  0
   20.7718   20.7712   23.3887 C   0  0  0  0  0  0  0  0  0  0  0  0
   20.4640   21.2779   24.3129 H   0  0  0  0  0  0  0  0  0  0  0  0
   21.5710   21.3893   22.9592 H   0  0  0  0  0  0  0  0  0  0  0  0
   19.5550   20.7820   22.4279 C   0  0  0  0  0  0  0  0  0  0  0  0
   19.2197   21.8241   22.3365 H   0  0  0  0  0  0  0  0  0  0  0  0
   18.7053   20.2570   22.8793 H   0  0  0  0  0  0  0  0  0  0  0  0
   19.8143   20.2537   20.9948 C   0  0  0  0  0  0  0  0  0  0  0  0
   20.5972   20.8605   20.5199 H   0  0  0  0  0  0  0  0  0  0  0  0
   18.9029   20.4354   20.4088 H   0  0  0  0  0  0  0  0  0  0  0  0
   22.2192   19.5812   24.8831 O   0  0  0  0  0  0  0  0  0  0  0  0
   21.6461   19.8837   25.6172 H   0  0  0  0  0  0  0  0  0  0  0  0
  1  2  1  0  0  0  0
  1  3  1  0  0  0  0
  1  4  1  0  0  0  0
  4  5  1  0  0  0  0
  4  6  1  0  0  0  0
  4  7  1  0  0  0  0
  7  8  1  0  0  0  0
  7  9  1  0  0  0  0
  7 10  1  0  0  0  0
 10 11  1  0  0  0  0
 10 12  1  0  0  0  0
 10 13  1  0  0  0  0
 13 14  1  0  0  0  0
 13 15  1  0  0  0  0
 15 16  1  0  0  0  0
 15 17  1  0  0  0  0
 15 18  1  0  0  0  0
 18 19  1  0  0  0  0
 18 20  1  0  0  0  0
  1 21  1  0  0  0  0
 18 21  1  0  0  0  0
 21 22  1  0  0  0  0
 21 23  1  0  0  0  0
 13 24  1  0  0  0  0
 24 25  1  0  0  0  0
M  END
> <VConfSearch Rank>
203

> <Conf_Id>
165

> <Delta U+W>
-1.999

> <U+W>
8.915

> <U>
10.935

> <W>
-2.020

> <W(PB)>
-4.135

> <W(SA)>
2.115

> <Valence>
16.757

> <Coulomb>
-8.731

> <VdW>
2.908

> <VdW6>
-12.597

> <VdW12>
15.506

> <Bond>
0.434

> <Angle>
5.069

> <Pdih>
11.254

> <Idih>
0.000

> <Tether>
0.000

$$$$
VeraChem MOL file


 25 25  0  0  0  0  0  0  0  0999 V2000     
   19.1902   18.5409   23.9670 C   0  0  0  0  0  0  0  0  0  0  0  0
   18.4682   18.1273   24.6844 H   0  0  0  0  0  0  0  0  0  0  0  0
   20.0278   18.8768   24.5886 H   0  0  0  0  0  0  0  0  0  0  0  0
   18.5021   19.7460   23.2743 C   0  0  0  0  0  0  0  0  0  0  0  0
   17.4643   19.4585   23.0572 H   0  0  0  0  0  0  0  0  0  0  0  0
   18.4352   20.5776   23.9889 H   0  0  0  0  0  0  0  0  0  0  0  0
   19.1262   20.2556   21.9510 C   0  0  0  0  0  0  0  0  0  0  0  0
   18.4627   21.0367   21.5556 H   0  0  0  0  0  0  0  0  0  0  0  0
   19.1062   19.4657   21.1915 H   0  0  0  0  0  0  0  0  0  0  0  0
   20.5466   20.8679   22.0589 C   0  0  0  0  0  0  0  0  0  0  0  0
   20.8037   21.2775   21.0727 H   0  0  0  0  0  0  0  0  0  0  0  0
   20.5120   21.7253   22.7432 H   0  0  0  0  0  0  0  0  0  0  0  0
   21.6911   19.9245   22.5039 C   0  0  0  0  0  0  0  0  0  0  0  0
   21.6400   19.7809   23.5895 H   0  0  0  0  0  0  0  0  0  0  0  0
   21.6906   18.5368   21.8120 C   0  0  0  0  0  0  0  0  0  0  0  0
   21.1509   18.5762   20.8585 H   0  0  0  0  0  0  0  0  0  0  0  0
   22.7251   18.2824   21.5444 H   0  0  0  0  0  0  0  0  0  0  0  0
   21.1539   17.3771   22.6930 C   0  0  0  0  0  0  0  0  0  0  0  0
   21.7287   17.3361   23.6283 H   0  0  0  0  0  0  0  0  0  0  0  0
   21.3710   16.4343   22.1726 H   0  0  0  0  0  0  0  0  0  0  0  0
   19.6377   17.3961   23.0211 C   0  0  0  0  0  0  0  0  0  0  0  0
   19.4064   16.4455   23.5210 H   0  0  0  0  0  0  0  0  0  0  0  0
   19.0401   17.3871   22.1006 H   0  0  0  0  0  0  0  0  0  0  0  0
   22.9206   20.5769   22.2071 O   0  0  0  0  0  0  0  0  0  0  0  0
   22.9123   21.4287   22.6918 H   0  0  0  0  0  0  0  0  0  0  0  0
  1  2  1  0  0  0  0
  1  3  1  0  0  0  0
  1  4  1  0  0  0  0
  4  5  1  0  0  0  0
  4  6  1  0  0  0  0
  4  7  1  0  0  0  0
  7  8  1  0  0  0  0
  7  9  1  0  0  0  0
  7 10  1  0  0  0  0
 10 11  1  0  0  0  0
 10 12  1  0  0  0  0
 10 13  1  0  0  0  0
 13 14  1  0  0  0  0
 13 15  1  0  0  0  0
 15 16  1  0  0  0  0
 15 17  1  0  0  0  0
 15 18  1  0  0  0  0
 18 19  1  0  0  0  0
 18 20  1  0  0  0  0
  1 21  1  0  0  0  0
 18 21  1  0  0  0  0
 21 22  1  0  0  0  0
 21 23  1  0  0  0  0
 13 24  1  0  0  0  0
 24 25  1  0  0  0  0
M  END
> <VConfSearch Rank>
204

> <Conf_Id>
133

> <Delta U+W>
-2.139

> <U+W>
8.774

> <U>
10.905

> <W>
-2.131

> <W(PB)>
-4.281

> <W(SA)>
2.150

> <Valence>
16.378

> <Coulomb>
-8.448

> <VdW>
2.976

> <VdW6>
-12.570

> <VdW12>
15.545

> <Bond>
0.439

> <Angle>
5.049

> <Pdih>
10.889

> <Idih>
0.000

> <Tether>
0.000

$$$$
VeraChem MOL file


 25 25  0  0  0  0  0  0  0  0999 V2000     
   18.9967   18.1067   23.3090 C   0  0  0  0  0  0  0  0  0  0  0  0
   18.1923   17.4999   23.7470 H   0  0  0  0  0  0  0  0  0  0  0  0
   19.6116   17.3853   22.7592 H   0  0  0  0  0  0  0  0  0  0  0  0
   19.8067   18.7409   24.4697 C   0  0  0  0  0  0  0  0  0  0  0  0
   19.4468   19.7527   24.6965 H   0  0  0  0  0  0  0  0  0  0  0  0
   19.5999   18.1546   25.3755 H   0  0  0  0  0  0  0  0  0  0  0  0
   21.3451   18.7362   24.2694 C   0  0  0  0  0  0  0  0  0  0  0  0
   21.6865   17.7069   24.0934 H   0  0  0  0  0  0  0  0  0  0  0  0
   21.8063   19.0410   25.2187 H   0  0  0  0  0  0  0  0  0  0  0  0
   21.9054   19.6595   23.1547 C   0  0  0  0  0  0  0  0  0  0  0  0
   21.6023   20.6988   23.3285 H   0  0  0  0  0  0  0  0  0  0  0  0
   22.9988   19.6596   23.2595 H   0  0  0  0  0  0  0  0  0  0  0  0
   21.5519   19.2152   21.7118 C   0  0  0  0  0  0  0  0  0  0  0  0
   21.2701   18.1559   21.7246 H   0  0  0  0  0  0  0  0  0  0  0  0
   20.4226   20.0363   21.0421 C   0  0  0  0  0  0  0  0  0  0  0  0
   20.8426   20.9993   20.7216 H   0  0  0  0  0  0  0  0  0  0  0  0
   20.1109   19.5214   20.1243 H   0  0  0  0  0  0  0  0  0  0  0  0
   19.1656   20.3399   21.8976 C   0  0  0  0  0  0  0  0  0  0  0  0
   18.5103   20.9861   21.2978 H   0  0  0  0  0  0  0  0  0  0  0  0
   19.4329   20.9497   22.7682 H   0  0  0  0  0  0  0  0  0  0  0  0
   18.3279   19.1127   22.3364 C   0  0  0  0  0  0  0  0  0  0  0  0
   17.9817   18.5713   21.4456 H   0  0  0  0  0  0  0  0  0  0  0  0
   17.4194   19.4937   22.8226 H   0  0  0  0  0  0  0  0  0  0  0  0
   22.7137   19.3482   20.9006 O   0  0  0  0  0  0  0  0  0  0  0  0
   22.4745   19.0192   20.0090 H   0  0  0  0  0  0  0  0  0  0  0  0
  1  2  1  0  0  0  0
  1  3  1  0  0  0  0
  1  4  1  0  0  0  0
  4  5  1  0  0  0  0
  4  6  1  0  0  0  0
  4  7  1  0  0  0  0
  7  8  1  0  0  0  0
  7  9  1  0  0  0  0
  7 10  1  0  0  0  0
 10 11  1  0  0  0  0
 10 12  1  0  0  0  0
 10 13  1  0  0  0  0
 13 14  1  0  0  0  0
 13 15  1  0  0  0  0
 15 16  1  0  0  0  0
 15 17  1  0  0  0  0
 15 18  1  0  0  0  0
 18 19  1  0  0  0  0
 18 20  1  0  0  0  0
  1 21  1  0  0  0  0
 18 21  1  0  0  0  0
 21 22  1  0  0  0  0
 21 23  1  0  0  0  0
 13 24  1  0  0  0  0
 24 25  1  0  0  0  0
M  END
> <VConfSearch Rank>
205

> <Conf_Id>
95

> <Delta U+W>
-2.190

> <U+W>
8.723

> <U>
10.905

> <W>
-2.182

> <W(PB)>
-4.296

> <W(SA)>
2.114

> <Valence>
16.377

> <Coulomb>
-8.448

> <VdW>
2.976

> <VdW6>
-12.570

> <VdW12>
15.546

> <Bond>
0.439

> <Angle>
5.049

> <Pdih>
10.889

> <Idih>
0.000

> <Tether>
0.000

$$$$
VeraChem MOL file


 25 25  0  0  0  0  0  0  0  0999 V2000     
   21.3058   19.9622   23.9590 C   0  0  0  0  0  0  0  0  0  0  0  0
   21.9075   20.5382   24.6753 H   0  0  0  0  0  0  0  0  0  0  0  0
   21.5488   18.9228   24.2014 H   0  0  0  0  0  0  0  0  0  0  0  0
   21.8127   20.3355   22.5349 C   0  0  0  0  0  0  0  0  0  0  0  0
   22.0997   21.3958   22.5568 H   0  0  0  0  0  0  0  0  0  0  0  0
   22.7418   19.7859   22.3319 H   0  0  0  0  0  0  0  0  0  0  0  0
   20.8398   20.1565   21.3400 C   0  0  0  0  0  0  0  0  0  0  0  0
   21.3257   20.5784   20.4496 H   0  0  0  0  0  0  0  0  0  0  0  0
   19.9671   20.8011   21.4847 H   0  0  0  0  0  0  0  0  0  0  0  0
   20.4039   18.7048   20.9806 C   0  0  0  0  0  0  0  0  0  0  0  0
   19.4754   18.7476   20.3963 H   0  0  0  0  0  0  0  0  0  0  0  0
   21.1645   18.3003   20.3001 H   0  0  0  0  0  0  0  0  0  0  0  0
   20.2300   17.6843   22.1338 C   0  0  0  0  0  0  0  0  0  0  0  0
   21.1787   17.6209   22.6767 H   0  0  0  0  0  0  0  0  0  0  0  0
   19.0720   17.9472   23.1391 C   0  0  0  0  0  0  0  0  0  0  0  0
   18.1568   17.5043   22.7236 H   0  0  0  0  0  0  0  0  0  0  0  0
   19.2801   17.3857   24.0588 H   0  0  0  0  0  0  0  0  0  0  0  0
   18.7330   19.4161   23.5111 C   0  0  0  0  0  0  0  0  0  0  0  0
   17.8312   19.3998   24.1382 H   0  0  0  0  0  0  0  0  0  0  0  0
   18.4099   19.9513   22.6126 H   0  0  0  0  0  0  0  0  0  0  0  0
   19.8123   20.2304   24.2828 C   0  0  0  0  0  0  0  0  0  0  0  0
   19.6752   20.0257   25.3534 H   0  0  0  0  0  0  0  0  0  0  0  0
   19.6032   21.3018   24.1611 H   0  0  0  0  0  0  0  0  0  0  0  0
   19.9960   16.4112   21.5430 O   0  0  0  0  0  0  0  0  0  0  0  0
   20.7618   16.2242   20.9612 H   0  0  0  0  0  0  0  0  0  0  0  0
  1  2  1  0  0  0  0
  1  3  1  0  0  0  0
  1  4  1  0  0  0  0
  4  5  1  0  0  0  0
  4  6  1  0  0  0  0
  4  7  1  0  0  0  0
  7  8  1  0  0  0  0
  7  9  1  0  0  0  0
  7 10  1  0  0  0  0
 10 11  1  0  0  0  0
 10 12  1  0  0  0  0
 10 13  1  0  0  0  0
 13 14  1  0  0  0  0
 13 15  1  0  0  0  0
 15 16  1  0  0  0  0
 15 17  1  0  0  0  0
 15 18  1  0  0  0  0
 18 19  1  0  0  0  0
 18 20  1  0  0  0  0
  1 21  1  0  0  0  0
 18 21  1  0  0  0  0
 21 22  1  0  0  0  0
 21 23  1  0  0  0  0
 13 24  1  0  0  0  0
 24 25  1  0  0  0  0
M  END
> <VConfSearch Rank>
206

> <Conf_Id>
161

> <Delta U+W>
2.120

> <U+W>
13.033

> <U>
15.076

> <W>
-2.043

> <W(PB)>
-4.186

> <W(SA)>
2.143

> <Valence>
18.884

> <Coulomb>
-8.074

> <VdW>
4.266

> <VdW6>
-13.486

> <VdW12>
17.752

> <Bond>
0.713

> <Angle>
8.955

> <Pdih>
9.215

> <Idih>
0.000

> <Tether>
0.000

$$$$
VeraChem MOL file


 25 25  0  0  0  0  0  0  0  0999 V2000     
   19.9083   21.0652   22.1042 C   0  0  0  0  0  0  0  0  0  0  0  0
   19.8925   22.0642   21.6475 H   0  0  0  0  0  0  0  0  0  0  0  0
   19.2280   21.1393   22.9621 H   0  0  0  0  0  0  0  0  0  0  0  0
   21.3506   20.7868   22.5960 C   0  0  0  0  0  0  0  0  0  0  0  0
   21.9627   20.3613   21.7894 H   0  0  0  0  0  0  0  0  0  0  0  0
   21.8040   21.7620   22.8207 H   0  0  0  0  0  0  0  0  0  0  0  0
   21.4548   19.9336   23.8908 C   0  0  0  0  0  0  0  0  0  0  0  0
   20.6493   20.1818   24.5949 H   0  0  0  0  0  0  0  0  0  0  0  0
   22.3837   20.2342   24.3948 H   0  0  0  0  0  0  0  0  0  0  0  0
   21.5404   18.4012   23.6694 C   0  0  0  0  0  0  0  0  0  0  0  0
   22.0938   18.1888   22.7465 H   0  0  0  0  0  0  0  0  0  0  0  0
   22.1599   17.9823   24.4734 H   0  0  0  0  0  0  0  0  0  0  0  0
   20.1974   17.6284   23.7007 C   0  0  0  0  0  0  0  0  0  0  0  0
   19.8310   17.6306   24.7372 H   0  0  0  0  0  0  0  0  0  0  0  0
   19.0635   18.1827   22.8074 C   0  0  0  0  0  0  0  0  0  0  0  0
   18.2701   17.4257   22.7492 H   0  0  0  0  0  0  0  0  0  0  0  0
   18.5934   19.0318   23.3151 H   0  0  0  0  0  0  0  0  0  0  0  0
   19.4947   18.5678   21.3669 C   0  0  0  0  0  0  0  0  0  0  0  0
   18.8790   18.0056   20.6517 H   0  0  0  0  0  0  0  0  0  0  0  0
   20.5238   18.2513   21.1622 H   0  0  0  0  0  0  0  0  0  0  0  0
   19.3502   20.0751   21.0478 C   0  0  0  0  0  0  0  0  0  0  0  0
   18.2865   20.3027   20.8943 H   0  0  0  0  0  0  0  0  0  0  0  0
   19.8396   20.2711   20.0841 H   0  0  0  0  0  0  0  0  0  0  0  0
   20.4543   16.2871   23.3092 O   0  0  0  0  0  0  0  0  0  0  0  0
   20.6414   16.3194   22.3491 H   0  0  0  0  0  0  0  0  0  0  0  0
  1  2  1  0  0  0  0
  1  3  1  0  0  0  0
  1  4  1  0  0  0  0
  4  5  1  0  0  0  0
  4  6  1  0  0  0  0
  4  7  1  0  0  0  0
  7  8  1  0  0  0  0
  7  9  1  0  0  0  0
  7 10  1  0  0  0  0
 10 11  1  0  0  0  0
 10 12  1  0  0  0  0
 10 13  1  0  0  0  0
 13 14  1  0  0  0  0
 13 15  1  0  0  0  0
 15 16  1  0  0  0  0
 15 17  1  0  0  0  0
 15 18  1  0  0  0  0
 18 19  1  0  0  0  0
 18 20  1  0  0  0  0
  1 21  1  0  0  0  0
 18 21  1  0  0  0  0
 21 22  1  0  0  0  0
 21 23  1  0  0  0  0
 13 24  1  0  0  0  0
 24 25  1  0  0  0  0
M  END
> <VConfSearch Rank>
207

> <Conf_Id>
164

> <Delta U+W>
0.008

> <U+W>
10.922

> <U>
12.433

> <W>
-1.511

> <W(PB)>
-3.669

> <W(SA)>
2.157

> <Valence>
19.007

> <Coulomb>
-9.373

> <VdW>
2.799

> <VdW6>
-12.597

> <VdW12>
15.396

> <Bond>
0.425

> <Angle>
4.784

> <Pdih>
13.799

> <Idih>
0.000

> <Tether>
0.000

$$$$
VeraChem MOL file


 25 25  0  0  0  0  0  0  0  0999 V2000     
   21.0311   18.7866   24.2524 C   0  0  0  0  0  0  0  0  0  0  0  0
   20.0804   18.2431   24.2109 H   0  0  0  0  0  0  0  0  0  0  0  0
   21.4570   18.5238   25.2303 H   0  0  0  0  0  0  0  0  0  0  0  0
   20.7803   20.3152   24.2560 C   0  0  0  0  0  0  0  0  0  0  0  0
   20.1734   20.5468   25.1420 H   0  0  0  0  0  0  0  0  0  0  0  0
   21.7342   20.8391   24.4046 H   0  0  0  0  0  0  0  0  0  0  0  0
   20.0632   20.9168   23.0204 C   0  0  0  0  0  0  0  0  0  0  0  0
   20.7799   21.1038   22.2126 H   0  0  0  0  0  0  0  0  0  0  0  0
   19.7063   21.9154   23.3074 H   0  0  0  0  0  0  0  0  0  0  0  0
   18.8515   20.1014   22.4953 C   0  0  0  0  0  0  0  0  0  0  0  0
   18.4213   19.4811   23.2908 H   0  0  0  0  0  0  0  0  0  0  0  0
   18.0648   20.8205   22.2304 H   0  0  0  0  0  0  0  0  0  0  0  0
   19.1351   19.2546   21.2292 C   0  0  0  0  0  0  0  0  0  0  0  0
   19.5684   19.9156   20.4651 H   0  0  0  0  0  0  0  0  0  0  0  0
   20.0784   18.0384   21.4065 C   0  0  0  0  0  0  0  0  0  0  0  0
   19.6885   17.3502   22.1662 H   0  0  0  0  0  0  0  0  0  0  0  0
   20.0547   17.4743   20.4644 H   0  0  0  0  0  0  0  0  0  0  0  0
   21.5611   18.3980   21.6911 C   0  0  0  0  0  0  0  0  0  0  0  0
   21.7928   19.4004   21.3136 H   0  0  0  0  0  0  0  0  0  0  0  0
   22.1969   17.7272   21.0971 H   0  0  0  0  0  0  0  0  0  0  0  0
   22.0043   18.2570   23.1698 C   0  0  0  0  0  0  0  0  0  0  0  0
   22.9837   18.7380   23.2957 H   0  0  0  0  0  0  0  0  0  0  0  0
   22.1698   17.1896   23.3703 H   0  0  0  0  0  0  0  0  0  0  0  0
   17.8896   18.7673   20.7491 O   0  0  0  0  0  0  0  0  0  0  0  0
   17.5321   18.1848   21.4503 H   0  0  0  0  0  0  0  0  0  0  0  0
  1  2  1  0  0  0  0
  1  3  1  0  0  0  0
  1  4  1  0  0  0  0
  4  5  1  0  0  0  0
  4  6  1  0  0  0  0
  4  7  1  0  0  0  0
  7  8  1  0  0  0  0
  7  9  1  0  0  0  0
  7 10  1  0  0  0  0
 10 11  1  0  0  0  0
 10 12  1  0  0  0  0
 10 13  1  0  0  0  0
 13 14  1  0  0  0  0
 13 15  1  0  0  0  0
 15 16  1  0  0  0  0
 15 17  1  0  0  0  0
 15 18  1  0  0  0  0
 18 19  1  0  0  0  0
 18 20  1  0  0  0  0
  1 21  1  0  0  0  0
 18 21  1  0  0  0  0
 21 22  1  0  0  0  0
 21 23  1  0  0  0  0
 13 24  1  0  0  0  0
 24 25  1  0  0  0  0
M  END
> <VConfSearch Rank>
208

> <Conf_Id>
15

> <Delta U+W>
-1.271

> <U+W>
9.643

> <U>
11.413

> <W>
-1.770

> <W(PB)>
-3.908

> <W(SA)>
2.138

> <Valence>
17.496

> <Coulomb>
-8.736

> <VdW>
2.653

> <VdW6>
-12.485

> <VdW12>
15.138

> <Bond>
0.414

> <Angle>
5.295

> <Pdih>
11.787

> <Idih>
0.000

> <Tether>
0.000

$$$$
VeraChem MOL file


 25 25  0  0  0  0  0  0  0  0999 V2000     
   18.9831   17.8721   22.5298 C   0  0  0  0  0  0  0  0  0  0  0  0
   18.3597   16.9745   22.4167 H   0  0  0  0  0  0  0  0  0  0  0  0
   18.3155   18.7085   22.2872 H   0  0  0  0  0  0  0  0  0  0  0  0
   19.4208   17.9351   24.0169 C   0  0  0  0  0  0  0  0  0  0  0  0
   18.5264   18.1180   24.6280 H   0  0  0  0  0  0  0  0  0  0  0  0
   19.7924   16.9469   24.3201 H   0  0  0  0  0  0  0  0  0  0  0  0
   20.4937   18.9895   24.3806 C   0  0  0  0  0  0  0  0  0  0  0  0
   21.4838   18.6219   24.0866 H   0  0  0  0  0  0  0  0  0  0  0  0
   20.5374   19.0677   25.4755 H   0  0  0  0  0  0  0  0  0  0  0  0
   20.2237   20.3984   23.7909 C   0  0  0  0  0  0  0  0  0  0  0  0
   19.2255   20.4497   23.3421 H   0  0  0  0  0  0  0  0  0  0  0  0
   20.1992   21.1213   24.6167 H   0  0  0  0  0  0  0  0  0  0  0  0
   21.2861   20.8838   22.7780 C   0  0  0  0  0  0  0  0  0  0  0  0
   22.1890   21.1509   23.3459 H   0  0  0  0  0  0  0  0  0  0  0  0
   21.7171   19.8705   21.6863 C   0  0  0  0  0  0  0  0  0  0  0  0
   22.3337   20.4213   20.9633 H   0  0  0  0  0  0  0  0  0  0  0  0
   22.3980   19.1250   22.1143 H   0  0  0  0  0  0  0  0  0  0  0  0
   20.5835   19.1558   20.9032 C   0  0  0  0  0  0  0  0  0  0  0  0
   20.9743   18.9518   19.8968 H   0  0  0  0  0  0  0  0  0  0  0  0
   19.7256   19.8231   20.7496 H   0  0  0  0  0  0  0  0  0  0  0  0
   20.1297   17.7915   21.4919 C   0  0  0  0  0  0  0  0  0  0  0  0
   20.9826   17.2291   21.8951 H   0  0  0  0  0  0  0  0  0  0  0  0
   19.7569   17.1905   20.6511 H   0  0  0  0  0  0  0  0  0  0  0  0
   20.7885   22.0507   22.1383 O   0  0  0  0  0  0  0  0  0  0  0  0
   20.0485   21.7510   21.5728 H   0  0  0  0  0  0  0  0  0  0  0  0
  1  2  1  0  0  0  0
  1  3  1  0  0  0  0
  1  4  1  0  0  0  0
  4  5  1  0  0  0  0
  4  6  1  0  0  0  0
  4  7  1  0  0  0  0
  7  8  1  0  0  0  0
  7  9  1  0  0  0  0
  7 10  1  0  0  0  0
 10 11  1  0  0  0  0
 10 12  1  0  0  0  0
 10 13  1  0  0  0  0
 13 14  1  0  0  0  0
 13 15  1  0  0  0  0
 15 16  1  0  0  0  0
 15 17  1  0  0  0  0
 15 18  1  0  0  0  0
 18 19  1  0  0  0  0
 18 20  1  0  0  0  0
  1 21  1  0  0  0  0
 18 21  1  0  0  0  0
 21 22  1  0  0  0  0
 21 23  1  0  0  0  0
 13 24  1  0  0  0  0
 24 25  1  0  0  0  0
M  END
> <VConfSearch Rank>
209

> <Conf_Id>
115

> <Delta U+W>
0.038

> <U+W>
10.952

> <U>
12.526

> <W>
-1.575

> <W(PB)>
-3.698

> <W(SA)>
2.123

> <Valence>
19.016

> <Coulomb>
-9.226

> <VdW>
2.737

> <VdW6>
-12.612

> <VdW12>
15.349

> <Bond>
0.421

> <Angle>
4.883

> <Pdih>
13.711

> <Idih>
0.000

> <Tether>
0.000

$$$$
VeraChem MOL file


 25 25  0  0  0  0  0  0  0  0999 V2000     
   19.7062   17.7783   21.2388 C   0  0  0  0  0  0  0  0  0  0  0  0
   19.2475   16.8232   20.9482 H   0  0  0  0  0  0  0  0  0  0  0  0
   19.8140   18.3485   20.3062 H   0  0  0  0  0  0  0  0  0  0  0  0
   21.0990   17.4593   21.8301 C   0  0  0  0  0  0  0  0  0  0  0  0
   20.9974   16.7873   22.6931 H   0  0  0  0  0  0  0  0  0  0  0  0
   21.6534   16.8866   21.0741 H   0  0  0  0  0  0  0  0  0  0  0  0
   21.9498   18.6930   22.2111 C   0  0  0  0  0  0  0  0  0  0  0  0
   21.8603   19.4705   21.4407 H   0  0  0  0  0  0  0  0  0  0  0  0
   23.0039   18.3837   22.1919 H   0  0  0  0  0  0  0  0  0  0  0  0
   21.6560   19.2593   23.6263 C   0  0  0  0  0  0  0  0  0  0  0  0
   21.0621   18.5551   24.2223 H   0  0  0  0  0  0  0  0  0  0  0  0
   22.6176   19.3468   24.1500 H   0  0  0  0  0  0  0  0  0  0  0  0
   20.9853   20.6515   23.6308 C   0  0  0  0  0  0  0  0  0  0  0  0
   21.3872   21.2427   22.7955 H   0  0  0  0  0  0  0  0  0  0  0  0
   19.4440   20.6245   23.5307 C   0  0  0  0  0  0  0  0  0  0  0  0
   19.0221   20.0898   24.3919 H   0  0  0  0  0  0  0  0  0  0  0  0
   19.0884   21.6595   23.6183 H   0  0  0  0  0  0  0  0  0  0  0  0
   18.8740   20.0454   22.2129 C   0  0  0  0  0  0  0  0  0  0  0  0
   19.4579   20.4023   21.3540 H   0  0  0  0  0  0  0  0  0  0  0  0
   17.8693   20.4691   22.0775 H   0  0  0  0  0  0  0  0  0  0  0  0
   18.7313   18.5009   22.1980 C   0  0  0  0  0  0  0  0  0  0  0  0
   17.7112   18.2688   21.8622 H   0  0  0  0  0  0  0  0  0  0  0  0
   18.8066   18.0801   23.2094 H   0  0  0  0  0  0  0  0  0  0  0  0
   21.3229   21.2988   24.8517 O   0  0  0  0  0  0  0  0  0  0  0  0
   20.9346   22.1977   24.8126 H   0  0  0  0  0  0  0  0  0  0  0  0
  1  2  1  0  0  0  0
  1  3  1  0  0  0  0
  1  4  1  0  0  0  0
  4  5  1  0  0  0  0
  4  6  1  0  0  0  0
  4  7  1  0  0  0  0
  7  8  1  0  0  0  0
  7  9  1  0  0  0  0
  7 10  1  0  0  0  0
 10 11  1  0  0  0  0
 10 12  1  0  0  0  0
 10 13  1  0  0  0  0
 13 14  1  0  0  0  0
 13 15  1  0  0  0  0
 15 16  1  0  0  0  0
 15 17  1  0  0  0  0
 15 18  1  0  0  0  0
 18 19  1  0  0  0  0
 18 20  1  0  0  0  0
  1 21  1  0  0  0  0
 18 21  1  0  0  0  0
 21 22  1  0  0  0  0
 21 23  1  0  0  0  0
 13 24  1  0  0  0  0
 24 25  1  0  0  0  0
M  END
> <VConfSearch Rank>
210

> <Conf_Id>
30

> <Delta U+W>
0.000

> <U+W>
10.913

> <U>
13.140

> <W>
-2.227

> <W(PB)>
-4.367

> <W(SA)>
2.140

> <Valence>
19.155

> <Coulomb>
-8.157

> <VdW>
2.142

> <VdW6>
-11.576

> <VdW12>
13.718

> <Bond>
0.294

> <Angle>
3.547

> <Pdih>
15.314

> <Idih>
0.000

> <Tether>
0.000

$$$$
VeraChem MOL file


 25 25  0  0  0  0  0  0  0  0999 V2000     
   20.8993   18.1422   20.9232 C   0  0  0  0  0  0  0  0  0  0  0  0
   20.7779   18.3133   19.8449 H   0  0  0  0  0  0  0  0  0  0  0  0
   21.3881   17.1627   21.0151 H   0  0  0  0  0  0  0  0  0  0  0  0
   19.4938   18.0448   21.5662 C   0  0  0  0  0  0  0  0  0  0  0  0
   18.8672   17.4188   20.9164 H   0  0  0  0  0  0  0  0  0  0  0  0
   19.5578   17.4883   22.5084 H   0  0  0  0  0  0  0  0  0  0  0  0
   18.7869   19.4087   21.7704 C   0  0  0  0  0  0  0  0  0  0  0  0
   17.8104   19.3786   21.2680 H   0  0  0  0  0  0  0  0  0  0  0  0
   19.3347   20.2149   21.2688 H   0  0  0  0  0  0  0  0  0  0  0  0
   18.5513   19.7825   23.2558 C   0  0  0  0  0  0  0  0  0  0  0  0
   18.2253   20.8301   23.3021 H   0  0  0  0  0  0  0  0  0  0  0  0
   17.7096   19.1880   23.6343 H   0  0  0  0  0  0  0  0  0  0  0  0
   19.7425   19.5808   24.2256 C   0  0  0  0  0  0  0  0  0  0  0  0
   19.9048   18.5057   24.3801 H   0  0  0  0  0  0  0  0  0  0  0  0
   21.0764   20.2221   23.7709 C   0  0  0  0  0  0  0  0  0  0  0  0
   20.8830   21.1292   23.1840 H   0  0  0  0  0  0  0  0  0  0  0  0
   21.6129   20.5647   24.6658 H   0  0  0  0  0  0  0  0  0  0  0  0
   22.0387   19.2653   23.0117 C   0  0  0  0  0  0  0  0  0  0  0  0
   22.0019   18.2502   23.4296 H   0  0  0  0  0  0  0  0  0  0  0  0
   23.0600   19.6223   23.2034 H   0  0  0  0  0  0  0  0  0  0  0  0
   21.8551   19.2336   21.4742 C   0  0  0  0  0  0  0  0  0  0  0  0
   22.8396   19.0544   21.0207 H   0  0  0  0  0  0  0  0  0  0  0  0
   21.5579   20.2259   21.1117 H   0  0  0  0  0  0  0  0  0  0  0  0
   19.3703   20.1547   25.4731 O   0  0  0  0  0  0  0  0  0  0  0  0
   20.0934   19.9537   26.1033 H   0  0  0  0  0  0  0  0  0  0  0  0
  1  2  1  0  0  0  0
  1  3  1  0  0  0  0
  1  4  1  0  0  0  0
  4  5  1  0  0  0  0
  4  6  1  0  0  0  0
  4  7  1  0  0  0  0
  7  8  1  0  0  0  0
  7  9  1  0  0  0  0
  7 10  1  0  0  0  0
 10 11  1  0  0  0  0
 10 12  1  0  0  0  0
 10 13  1  0  0  0  0
 13 14  1  0  0  0  0
 13 15  1  0  0  0  0
 15 16  1  0  0  0  0
 15 17  1  0  0  0  0
 15 18  1  0  0  0  0
 18 19  1  0  0  0  0
 18 20  1  0  0  0  0
  1 21  1  0  0  0  0
 18 21  1  0  0  0  0
 21 22  1  0  0  0  0
 21 23  1  0  0  0  0
 13 24  1  0  0  0  0
 24 25  1  0  0  0  0
M  END
> <VConfSearch Rank>
211

> <Conf_Id>
162

> <Delta U+W>
0.219

> <U+W>
11.132

> <U>
13.296

> <W>
-2.164

> <W(PB)>
-4.311

> <W(SA)>
2.148

> <Valence>
18.607

> <Coulomb>
-8.339

> <VdW>
3.028

> <VdW6>
-12.271

> <VdW12>
15.299

> <Bond>
0.423

> <Angle>
4.488

> <Pdih>
13.696

> <Idih>
0.000

> <Tether>
0.000

$$$$
VeraChem MOL file


 25 25  0  0  0  0  0  0  0  0999 V2000     
   21.4839   18.7955   21.0783 C   0  0  0  0  0  0  0  0  0  0  0  0
   21.4881   19.8678   20.8451 H   0  0  0  0  0  0  0  0  0  0  0  0
   22.1210   18.3393   20.3082 H   0  0  0  0  0  0  0  0  0  0  0  0
   22.1496   18.5513   22.4556 C   0  0  0  0  0  0  0  0  0  0  0  0
   21.8500   17.5778   22.8663 H   0  0  0  0  0  0  0  0  0  0  0  0
   23.2307   18.4711   22.2770 H   0  0  0  0  0  0  0  0  0  0  0  0
   21.9488   19.6864   23.4982 C   0  0  0  0  0  0  0  0  0  0  0  0
   21.9708   20.6742   23.0187 H   0  0  0  0  0  0  0  0  0  0  0  0
   22.8244   19.6662   24.1616 H   0  0  0  0  0  0  0  0  0  0  0  0
   20.6976   19.5400   24.4027 C   0  0  0  0  0  0  0  0  0  0  0  0
   20.4986   18.4790   24.5975 H   0  0  0  0  0  0  0  0  0  0  0  0
   20.9418   19.9665   25.3844 H   0  0  0  0  0  0  0  0  0  0  0  0
   19.4111   20.2555   23.9186 C   0  0  0  0  0  0  0  0  0  0  0  0
   19.5666   21.3384   24.0288 H   0  0  0  0  0  0  0  0  0  0  0  0
   18.9948   19.9978   22.4509 C   0  0  0  0  0  0  0  0  0  0  0  0
   17.9766   20.3808   22.3040 H   0  0  0  0  0  0  0  0  0  0  0  0
   19.6155   20.6141   21.7918 H   0  0  0  0  0  0  0  0  0  0  0  0
   19.0347   18.5089   22.0159 C   0  0  0  0  0  0  0  0  0  0  0  0
   18.0382   18.2191   21.6564 H   0  0  0  0  0  0  0  0  0  0  0  0
   19.2221   17.8548   22.8757 H   0  0  0  0  0  0  0  0  0  0  0  0
   20.0612   18.2024   20.8987 C   0  0  0  0  0  0  0  0  0  0  0  0
   19.6591   18.5633   19.9423 H   0  0  0  0  0  0  0  0  0  0  0  0
   20.1417   17.1116   20.7962 H   0  0  0  0  0  0  0  0  0  0  0  0
   18.3440   19.8537   24.7695 O   0  0  0  0  0  0  0  0  0  0  0  0
   17.5401   20.3120   24.4488 H   0  0  0  0  0  0  0  0  0  0  0  0
  1  2  1  0  0  0  0
  1  3  1  0  0  0  0
  1  4  1  0  0  0  0
  4  5  1  0  0  0  0
  4  6  1  0  0  0  0
  4  7  1  0  0  0  0
  7  8  1  0  0  0  0
  7  9  1  0  0  0  0
  7 10  1  0  0  0  0
 10 11  1  0  0  0  0
 10 12  1  0  0  0  0
 10 13  1  0  0  0  0
 13 14  1  0  0  0  0
 13 15  1  0  0  0  0
 15 16  1  0  0  0  0
 15 17  1  0  0  0  0
 15 18  1  0  0  0  0
 18 19  1  0  0  0  0
 18 20  1  0  0  0  0
  1 21  1  0  0  0  0
 18 21  1  0  0  0  0
 21 22  1  0  0  0  0
 21 23  1  0  0  0  0
 13 24  1  0  0  0  0
 24 25  1  0  0  0  0
M  END
> <VConfSearch Rank>
212

> <Conf_Id>
155

> <Delta U+W>
0.339

> <U+W>
11.252

> <U>
13.420

> <W>
-2.167

> <W(PB)>
-4.325

> <W(SA)>
2.157

> <Valence>
18.609

> <Coulomb>
-8.052

> <VdW>
2.863

> <VdW6>
-12.524

> <VdW12>
15.387

> <Bond>
0.430

> <Angle>
4.724

> <Pdih>
13.455

> <Idih>
0.000

> <Tether>
0.000

$$$$
VeraChem MOL file


 25 25  0  0  0  0  0  0  0  0999 V2000     
   20.9506   17.3609   22.2175 C   0  0  0  0  0  0  0  0  0  0  0  0
   21.4057   16.8111   23.0524 H   0  0  0  0  0  0  0  0  0  0  0  0
   20.9623   16.6645   21.3680 H   0  0  0  0  0  0  0  0  0  0  0  0
   19.4615   17.6470   22.5454 C   0  0  0  0  0  0  0  0  0  0  0  0
   18.9770   18.0896   21.6693 H   0  0  0  0  0  0  0  0  0  0  0  0
   18.9545   16.6789   22.6575 H   0  0  0  0  0  0  0  0  0  0  0  0
   19.1527   18.4757   23.8264 C   0  0  0  0  0  0  0  0  0  0  0  0
   19.1099   17.7735   24.6700 H   0  0  0  0  0  0  0  0  0  0  0  0
   18.1415   18.8966   23.7430 H   0  0  0  0  0  0  0  0  0  0  0  0
   20.1419   19.6045   24.2253 C   0  0  0  0  0  0  0  0  0  0  0  0
   19.8384   19.9722   25.2143 H   0  0  0  0  0  0  0  0  0  0  0  0
   21.1270   19.1688   24.4142 H   0  0  0  0  0  0  0  0  0  0  0  0
   20.2675   20.8338   23.2781 C   0  0  0  0  0  0  0  0  0  0  0  0
   21.2488   21.2960   23.4575 H   0  0  0  0  0  0  0  0  0  0  0  0
   20.1293   20.5861   21.7549 C   0  0  0  0  0  0  0  0  0  0  0  0
   19.1334   20.1841   21.5473 H   0  0  0  0  0  0  0  0  0  0  0  0
   20.1208   21.5666   21.2607 H   0  0  0  0  0  0  0  0  0  0  0  0
   21.2288   19.7339   21.0526 C   0  0  0  0  0  0  0  0  0  0  0  0
   22.0447   20.4148   20.7741 H   0  0  0  0  0  0  0  0  0  0  0  0
   20.8296   19.3521   20.1033 H   0  0  0  0  0  0  0  0  0  0  0  0
   21.8672   18.5631   21.8454 C   0  0  0  0  0  0  0  0  0  0  0  0
   22.3716   18.9577   22.7330 H   0  0  0  0  0  0  0  0  0  0  0  0
   22.6916   18.1636   21.2391 H   0  0  0  0  0  0  0  0  0  0  0  0
   19.2555   21.7675   23.6390 O   0  0  0  0  0  0  0  0  0  0  0  0
   19.3769   21.9624   24.5912 H   0  0  0  0  0  0  0  0  0  0  0  0
  1  2  1  0  0  0  0
  1  3  1  0  0  0  0
  1  4  1  0  0  0  0
  4  5  1  0  0  0  0
  4  6  1  0  0  0  0
  4  7  1  0  0  0  0
  7  8  1  0  0  0  0
  7  9  1  0  0  0  0
  7 10  1  0  0  0  0
 10 11  1  0  0  0  0
 10 12  1  0  0  0  0
 10 13  1  0  0  0  0
 13 14  1  0  0  0  0
 13 15  1  0  0  0  0
 15 16  1  0  0  0  0
 15 17  1  0  0  0  0
 15 18  1  0  0  0  0
 18 19  1  0  0  0  0
 18 20  1  0  0  0  0
  1 21  1  0  0  0  0
 18 21  1  0  0  0  0
 21 22  1  0  0  0  0
 21 23  1  0  0  0  0
 13 24  1  0  0  0  0
 24 25  1  0  0  0  0
M  END
> <VConfSearch Rank>
213

> <Conf_Id>
146

> <Delta U+W>
2.553

> <U+W>
13.466

> <U>
15.643

> <W>
-2.176

> <W(PB)>
-4.307

> <W(SA)>
2.131

> <Valence>
18.916

> <Coulomb>
-7.506

> <VdW>
4.232

> <VdW6>
-13.632

> <VdW12>
17.864

> <Bond>
0.735

> <Angle>
9.140

> <Pdih>
9.042

> <Idih>
0.000

> <Tether>
0.000

$$$$
VeraChem MOL file


 25 25  0  0  0  0  0  0  0  0999 V2000     
   22.2047   18.7044   23.3208 C   0  0  0  0  0  0  0  0  0  0  0  0
   22.7845   17.8968   22.8536 H   0  0  0  0  0  0  0  0  0  0  0  0
   22.8342   19.0877   24.1356 H   0  0  0  0  0  0  0  0  0  0  0  0
   20.9268   18.1102   23.9642 C   0  0  0  0  0  0  0  0  0  0  0  0
   21.2511   17.3891   24.7268 H   0  0  0  0  0  0  0  0  0  0  0  0
   20.3887   18.8821   24.5261 H   0  0  0  0  0  0  0  0  0  0  0  0
   19.9642   17.3643   23.0064 C   0  0  0  0  0  0  0  0  0  0  0  0
   19.1774   16.9047   23.6202 H   0  0  0  0  0  0  0  0  0  0  0  0
   20.4980   16.5295   22.5325 H   0  0  0  0  0  0  0  0  0  0  0  0
   19.2731   18.2099   21.9050 C   0  0  0  0  0  0  0  0  0  0  0  0
   19.9458   18.3470   21.0525 H   0  0  0  0  0  0  0  0  0  0  0  0
   18.4455   17.6072   21.5071 H   0  0  0  0  0  0  0  0  0  0  0  0
   18.7206   19.5798   22.3766 C   0  0  0  0  0  0  0  0  0  0  0  0
   18.5949   19.5704   23.4676 H   0  0  0  0  0  0  0  0  0  0  0  0
   19.5987   20.7908   21.9716 C   0  0  0  0  0  0  0  0  0  0  0  0
   19.7500   20.7788   20.8841 H   0  0  0  0  0  0  0  0  0  0  0  0
   19.0309   21.7066   22.1818 H   0  0  0  0  0  0  0  0  0  0  0  0
   20.9742   20.9283   22.6793 C   0  0  0  0  0  0  0  0  0  0  0  0
   20.8485   20.9824   23.7683 H   0  0  0  0  0  0  0  0  0  0  0  0
   21.3872   21.9044   22.3899 H   0  0  0  0  0  0  0  0  0  0  0  0
   22.0169   19.8483   22.2910 C   0  0  0  0  0  0  0  0  0  0  0  0
   22.9920   20.3410   22.1753 H   0  0  0  0  0  0  0  0  0  0  0  0
   21.7979   19.4415   21.2973 H   0  0  0  0  0  0  0  0  0  0  0  0
   17.4407   19.7681   21.7833 O   0  0  0  0  0  0  0  0  0  0  0  0
   17.0845   20.6087   22.1391 H   0  0  0  0  0  0  0  0  0  0  0  0
  1  2  1  0  0  0  0
  1  3  1  0  0  0  0
  1  4  1  0  0  0  0
  4  5  1  0  0  0  0
  4  6  1  0  0  0  0
  4  7  1  0  0  0  0
  7  8  1  0  0  0  0
  7  9  1  0  0  0  0
  7 10  1  0  0  0  0
 10 11  1  0  0  0  0
 10 12  1  0  0  0  0
 10 13  1  0  0  0  0
 13 14  1  0  0  0  0
 13 15  1  0  0  0  0
 15 16  1  0  0  0  0
 15 17  1  0  0  0  0
 15 18  1  0  0  0  0
 18 19  1  0  0  0  0
 18 20  1  0  0  0  0
  1 21  1  0  0  0  0
 18 21  1  0  0  0  0
 21 22  1  0  0  0  0
 21 23  1  0  0  0  0
 13 24  1  0  0  0  0
 24 25  1  0  0  0  0
M  END
> <VConfSearch Rank>
214

> <Conf_Id>
62

> <Delta U+W>
-1.779

> <U+W>
9.134

> <U>
11.364

> <W>
-2.230

> <W(PB)>
-4.359

> <W(SA)>
2.129

> <Valence>
16.582

> <Coulomb>
-8.150

> <VdW>
2.933

> <VdW6>
-12.531

> <VdW12>
15.464

> <Bond>
0.439

> <Angle>
5.099

> <Pdih>
11.044

> <Idih>
0.000

> <Tether>
0.000

$$$$
VeraChem MOL file


 25 25  0  0  0  0  0  0  0  0999 V2000     
   21.3471   19.8312   21.2129 C   0  0  0  0  0  0  0  0  0  0  0  0
   22.1074   19.4430   21.9003 H   0  0  0  0  0  0  0  0  0  0  0  0
   21.9190   20.2230   20.3608 H   0  0  0  0  0  0  0  0  0  0  0  0
   20.5992   21.0268   21.8539 C   0  0  0  0  0  0  0  0  0  0  0  0
   21.3454   21.8033   22.0708 H   0  0  0  0  0  0  0  0  0  0  0  0
   19.9184   21.4679   21.1134 H   0  0  0  0  0  0  0  0  0  0  0  0
   19.8110   20.7492   23.1594 C   0  0  0  0  0  0  0  0  0  0  0  0
   18.8217   20.3367   22.9312 H   0  0  0  0  0  0  0  0  0  0  0  0
   19.6020   21.7225   23.6242 H   0  0  0  0  0  0  0  0  0  0  0  0
   20.5442   19.8620   24.2008 C   0  0  0  0  0  0  0  0  0  0  0  0
   21.6314   19.9084   24.0629 H   0  0  0  0  0  0  0  0  0  0  0  0
   20.3589   20.3021   25.1893 H   0  0  0  0  0  0  0  0  0  0  0  0
   20.0663   18.3888   24.2547 C   0  0  0  0  0  0  0  0  0  0  0  0
   18.9745   18.3853   24.3854 H   0  0  0  0  0  0  0  0  0  0  0  0
   20.4067   17.5089   23.0260 C   0  0  0  0  0  0  0  0  0  0  0  0
   21.4902   17.4871   22.8571 H   0  0  0  0  0  0  0  0  0  0  0  0
   20.1349   16.4774   23.2864 H   0  0  0  0  0  0  0  0  0  0  0  0
   19.6433   17.8749   21.7250 C   0  0  0  0  0  0  0  0  0  0  0  0
   18.7071   18.3930   21.9617 H   0  0  0  0  0  0  0  0  0  0  0  0
   19.3256   16.9418   21.2399 H   0  0  0  0  0  0  0  0  0  0  0  0
   20.4609   18.6774   20.6807 C   0  0  0  0  0  0  0  0  0  0  0  0
   19.7763   19.0686   19.9160 H   0  0  0  0  0  0  0  0  0  0  0  0
   21.1198   17.9719   20.1564 H   0  0  0  0  0  0  0  0  0  0  0  0
   20.6643   17.7827   25.3937 O   0  0  0  0  0  0  0  0  0  0  0  0
   20.3864   18.3080   26.1728 H   0  0  0  0  0  0  0  0  0  0  0  0
  1  2  1  0  0  0  0
  1  3  1  0  0  0  0
  1  4  1  0  0  0  0
  4  5  1  0  0  0  0
  4  6  1  0  0  0  0
  4  7  1  0  0  0  0
  7  8  1  0  0  0  0
  7  9  1  0  0  0  0
  7 10  1  0  0  0  0
 10 11  1  0  0  0  0
 10 12  1  0  0  0  0
 10 13  1  0  0  0  0
 13 14  1  0  0  0  0
 13 15  1  0  0  0  0
 15 16  1  0  0  0  0
 15 17  1  0  0  0  0
 15 18  1  0  0  0  0
 18 19  1  0  0  0  0
 18 20  1  0  0  0  0
  1 21  1  0  0  0  0
 18 21  1  0  0  0  0
 21 22  1  0  0  0  0
 21 23  1  0  0  0  0
 13 24  1  0  0  0  0
 24 25  1  0  0  0  0
M  END
> <VConfSearch Rank>
215

> <Conf_Id>
121

> <Delta U+W>
-1.283

> <U+W>
9.630

> <U>
11.876

> <W>
-2.246

> <W(PB)>
-4.376

> <W(SA)>
2.130

> <Valence>
17.153

> <Coulomb>
-7.966

> <VdW>
2.689

> <VdW6>
-12.458

> <VdW12>
15.147

> <Bond>
0.421

> <Angle>
5.258

> <Pdih>
11.475

> <Idih>
0.000

> <Tether>
0.000

$$$$
VeraChem MOL file


 25 25  0  0  0  0  0  0  0  0999 V2000     
   21.2960   17.6602   22.5080 C   0  0  0  0  0  0  0  0  0  0  0  0
   21.0381   17.7129   23.5719 H   0  0  0  0  0  0  0  0  0  0  0  0
   21.8408   16.7123   22.4022 H   0  0  0  0  0  0  0  0  0  0  0  0
   22.2769   18.7991   22.1333 C   0  0  0  0  0  0  0  0  0  0  0  0
   23.1787   18.6716   22.7477 H   0  0  0  0  0  0  0  0  0  0  0  0
   22.6053   18.6679   21.0933 H   0  0  0  0  0  0  0  0  0  0  0  0
   21.7765   20.2539   22.3232 C   0  0  0  0  0  0  0  0  0  0  0  0
   21.1836   20.5731   21.4586 H   0  0  0  0  0  0  0  0  0  0  0  0
   22.6608   20.9055   22.3053 H   0  0  0  0  0  0  0  0  0  0  0  0
   21.0035   20.5225   23.6422 C   0  0  0  0  0  0  0  0  0  0  0  0
   21.2795   19.7981   24.4180 H   0  0  0  0  0  0  0  0  0  0  0  0
   21.3372   21.4961   24.0252 H   0  0  0  0  0  0  0  0  0  0  0  0
   19.4633   20.5999   23.4946 C   0  0  0  0  0  0  0  0  0  0  0  0
   19.2320   21.3323   22.7078 H   0  0  0  0  0  0  0  0  0  0  0  0
   18.7366   19.2745   23.1532 C   0  0  0  0  0  0  0  0  0  0  0  0
   18.9492   18.5128   23.9134 H   0  0  0  0  0  0  0  0  0  0  0  0
   17.6578   19.4646   23.2281 H   0  0  0  0  0  0  0  0  0  0  0  0
   19.0078   18.7294   21.7254 C   0  0  0  0  0  0  0  0  0  0  0  0
   19.3119   19.5412   21.0551 H   0  0  0  0  0  0  0  0  0  0  0  0
   18.0567   18.3709   21.3085 H   0  0  0  0  0  0  0  0  0  0  0  0
   20.0135   17.5525   21.6460 C   0  0  0  0  0  0  0  0  0  0  0  0
   20.2943   17.3939   20.5960 H   0  0  0  0  0  0  0  0  0  0  0  0
   19.4863   16.6390   21.9535 H   0  0  0  0  0  0  0  0  0  0  0  0
   18.9388   21.0742   24.7284 O   0  0  0  0  0  0  0  0  0  0  0  0
   17.9733   21.1841   24.6021 H   0  0  0  0  0  0  0  0  0  0  0  0
  1  2  1  0  0  0  0
  1  3  1  0  0  0  0
  1  4  1  0  0  0  0
  4  5  1  0  0  0  0
  4  6  1  0  0  0  0
  4  7  1  0  0  0  0
  7  8  1  0  0  0  0
  7  9  1  0  0  0  0
  7 10  1  0  0  0  0
 10 11  1  0  0  0  0
 10 12  1  0  0  0  0
 10 13  1  0  0  0  0
 13 14  1  0  0  0  0
 13 15  1  0  0  0  0
 15 16  1  0  0  0  0
 15 17  1  0  0  0  0
 15 18  1  0  0  0  0
 18 19  1  0  0  0  0
 18 20  1  0  0  0  0
  1 21  1  0  0  0  0
 18 21  1  0  0  0  0
 21 22  1  0  0  0  0
 21 23  1  0  0  0  0
 13 24  1  0  0  0  0
 24 25  1  0  0  0  0
M  END
> <VConfSearch Rank>
216

> <Conf_Id>
24

> <Delta U+W>
-1.236

> <U+W>
9.678

> <U>
11.876

> <W>
-2.199

> <W(PB)>
-4.335

> <W(SA)>
2.137

> <Valence>
17.153

> <Coulomb>
-7.966

> <VdW>
2.689

> <VdW6>
-12.458

> <VdW12>
15.147

> <Bond>
0.421

> <Angle>
5.258

> <Pdih>
11.475

> <Idih>
0.000

> <Tether>
0.000

$$$$
VeraChem MOL file


 25 25  0  0  0  0  0  0  0  0999 V2000     
   19.4128   20.1082   20.9019 C   0  0  0  0  0  0  0  0  0  0  0  0
   19.9086   20.9202   20.3528 H   0  0  0  0  0  0  0  0  0  0  0  0
   18.4419   19.9652   20.4081 H   0  0  0  0  0  0  0  0  0  0  0  0
   20.2362   18.8052   20.7224 C   0  0  0  0  0  0  0  0  0  0  0  0
   19.6263   17.9259   20.9659 H   0  0  0  0  0  0  0  0  0  0  0  0
   20.4503   18.7078   19.6493 H   0  0  0  0  0  0  0  0  0  0  0  0
   21.5833   18.7420   21.4840 C   0  0  0  0  0  0  0  0  0  0  0  0
   22.0511   19.7347   21.5322 H   0  0  0  0  0  0  0  0  0  0  0  0
   22.2639   18.1288   20.8775 H   0  0  0  0  0  0  0  0  0  0  0  0
   21.5163   18.0838   22.8912 C   0  0  0  0  0  0  0  0  0  0  0  0
   20.8024   17.2502   22.8988 H   0  0  0  0  0  0  0  0  0  0  0  0
   22.5005   17.6302   23.0719 H   0  0  0  0  0  0  0  0  0  0  0  0
   21.2243   19.0599   24.0569 C   0  0  0  0  0  0  0  0  0  0  0  0
   21.6083   20.0522   23.7854 H   0  0  0  0  0  0  0  0  0  0  0  0
   19.7339   19.1814   24.4639 C   0  0  0  0  0  0  0  0  0  0  0  0
   19.4212   18.2641   24.9798 H   0  0  0  0  0  0  0  0  0  0  0  0
   19.6567   19.9865   25.2064 H   0  0  0  0  0  0  0  0  0  0  0  0
   18.7196   19.4668   23.3279 C   0  0  0  0  0  0  0  0  0  0  0  0
   17.7651   19.7561   23.7883 H   0  0  0  0  0  0  0  0  0  0  0  0
   18.4991   18.5390   22.7874 H   0  0  0  0  0  0  0  0  0  0  0  0
   19.1609   20.5873   22.3527 C   0  0  0  0  0  0  0  0  0  0  0  0
   20.0488   21.1099   22.7271 H   0  0  0  0  0  0  0  0  0  0  0  0
   18.3772   21.3566   22.3241 H   0  0  0  0  0  0  0  0  0  0  0  0
   21.9390   18.6146   25.2026 O   0  0  0  0  0  0  0  0  0  0  0  0
   21.5955   17.7222   25.4138 H   0  0  0  0  0  0  0  0  0  0  0  0
  1  2  1  0  0  0  0
  1  3  1  0  0  0  0
  1  4  1  0  0  0  0
  4  5  1  0  0  0  0
  4  6  1  0  0  0  0
  4  7  1  0  0  0  0
  7  8  1  0  0  0  0
  7  9  1  0  0  0  0
  7 10  1  0  0  0  0
 10 11  1  0  0  0  0
 10 12  1  0  0  0  0
 10 13  1  0  0  0  0
 13 14  1  0  0  0  0
 13 15  1  0  0  0  0
 15 16  1  0  0  0  0
 15 17  1  0  0  0  0
 15 18  1  0  0  0  0
 18 19  1  0  0  0  0
 18 20  1  0  0  0  0
  1 21  1  0  0  0  0
 18 21  1  0  0  0  0
 21 22  1  0  0  0  0
 21 23  1  0  0  0  0
 13 24  1  0  0  0  0
 24 25  1  0  0  0  0
M  END
> <VConfSearch Rank>
217

> <Conf_Id>
167

> <Delta U+W>
0.388

> <U+W>
11.301

> <U>
13.202

> <W>
-1.901

> <W(PB)>
-4.065

> <W(SA)>
2.163

> <Valence>
18.957

> <Coulomb>
-8.753

> <VdW>
2.998

> <VdW6>
-12.294

> <VdW12>
15.292

> <Bond>
0.419

> <Angle>
4.543

> <Pdih>
13.996

> <Idih>
0.000

> <Tether>
0.000

$$$$
VeraChem MOL file


 25 25  0  0  0  0  0  0  0  0999 V2000     
   20.6549   20.5843   24.1794 C   0  0  0  0  0  0  0  0  0  0  0  0
   21.2501   20.3093   25.0607 H   0  0  0  0  0  0  0  0  0  0  0  0
   20.3781   21.6373   24.3262 H   0  0  0  0  0  0  0  0  0  0  0  0
   19.3480   19.7492   24.1757 C   0  0  0  0  0  0  0  0  0  0  0  0
   19.5496   18.7146   24.4752 H   0  0  0  0  0  0  0  0  0  0  0  0
   18.7105   20.1458   24.9778 H   0  0  0  0  0  0  0  0  0  0  0  0
   18.5374   19.7852   22.8542 C   0  0  0  0  0  0  0  0  0  0  0  0
   18.7419   20.7046   22.2907 H   0  0  0  0  0  0  0  0  0  0  0  0
   17.4733   19.8432   23.1211 H   0  0  0  0  0  0  0  0  0  0  0  0
   18.7096   18.5347   21.9493 C   0  0  0  0  0  0  0  0  0  0  0  0
   18.4605   17.6322   22.5226 H   0  0  0  0  0  0  0  0  0  0  0  0
   17.9560   18.5969   21.1531 H   0  0  0  0  0  0  0  0  0  0  0  0
   20.0908   18.3444   21.2742 C   0  0  0  0  0  0  0  0  0  0  0  0
   20.3529   19.2606   20.7283 H   0  0  0  0  0  0  0  0  0  0  0  0
   21.2310   17.9752   22.2583 C   0  0  0  0  0  0  0  0  0  0  0  0
   20.8136   17.5394   23.1716 H   0  0  0  0  0  0  0  0  0  0  0  0
   21.8406   17.1700   21.8270 H   0  0  0  0  0  0  0  0  0  0  0  0
   22.1940   19.1382   22.6114 C   0  0  0  0  0  0  0  0  0  0  0  0
   22.8824   19.2751   21.7663 H   0  0  0  0  0  0  0  0  0  0  0  0
   22.8216   18.8358   23.4607 H   0  0  0  0  0  0  0  0  0  0  0  0
   21.5493   20.5139   22.9162 C   0  0  0  0  0  0  0  0  0  0  0  0
   21.0032   20.8858   22.0418 H   0  0  0  0  0  0  0  0  0  0  0  0
   22.3679   21.2330   23.0564 H   0  0  0  0  0  0  0  0  0  0  0  0
   19.9585   17.2885   20.3299 O   0  0  0  0  0  0  0  0  0  0  0  0
   20.8163   17.2226   19.8606 H   0  0  0  0  0  0  0  0  0  0  0  0
  1  2  1  0  0  0  0
  1  3  1  0  0  0  0
  1  4  1  0  0  0  0
  4  5  1  0  0  0  0
  4  6  1  0  0  0  0
  4  7  1  0  0  0  0
  7  8  1  0  0  0  0
  7  9  1  0  0  0  0
  7 10  1  0  0  0  0
 10 11  1  0  0  0  0
 10 12  1  0  0  0  0
 10 13  1  0  0  0  0
 13 14  1  0  0  0  0
 13 15  1  0  0  0  0
 15 16  1  0  0  0  0
 15 17  1  0  0  0  0
 15 18  1  0  0  0  0
 18 19  1  0  0  0  0
 18 20  1  0  0  0  0
  1 21  1  0  0  0  0
 18 21  1  0  0  0  0
 21 22  1  0  0  0  0
 21 23  1  0  0  0  0
 13 24  1  0  0  0  0
 24 25  1  0  0  0  0
M  END
> <VConfSearch Rank>
218

> <Conf_Id>
60

> <Delta U+W>
-1.838

> <U+W>
9.075

> <U>
11.150

> <W>
-2.074

> <W(PB)>
-4.196

> <W(SA)>
2.121

> <Valence>
16.582

> <Coulomb>
-8.361

> <VdW>
2.928

> <VdW6>
-12.539

> <VdW12>
15.467

> <Bond>
0.441

> <Angle>
5.093

> <Pdih>
11.049

> <Idih>
0.000

> <Tether>
0.000

$$$$
VeraChem MOL file


 25 25  0  0  0  0  0  0  0  0999 V2000     
   20.5085   17.2862   21.8774 C   0  0  0  0  0  0  0  0  0  0  0  0
   20.8180   17.1222   20.8363 H   0  0  0  0  0  0  0  0  0  0  0  0
   20.3272   16.2857   22.2932 H   0  0  0  0  0  0  0  0  0  0  0  0
   19.1579   18.0454   21.8957 C   0  0  0  0  0  0  0  0  0  0  0  0
   18.4222   17.4134   21.3797 H   0  0  0  0  0  0  0  0  0  0  0  0
   18.7803   18.1258   22.9214 H   0  0  0  0  0  0  0  0  0  0  0  0
   19.1428   19.4294   21.1993 C   0  0  0  0  0  0  0  0  0  0  0  0
   18.1034   19.7852   21.1923 H   0  0  0  0  0  0  0  0  0  0  0  0
   19.4228   19.3075   20.1442 H   0  0  0  0  0  0  0  0  0  0  0  0
   20.0227   20.5407   21.8282 C   0  0  0  0  0  0  0  0  0  0  0  0
   21.0626   20.4274   21.5055 H   0  0  0  0  0  0  0  0  0  0  0  0
   19.7037   21.4944   21.3871 H   0  0  0  0  0  0  0  0  0  0  0  0
   19.9515   20.6365   23.3743 C   0  0  0  0  0  0  0  0  0  0  0  0
   19.0410   20.1402   23.7360 H   0  0  0  0  0  0  0  0  0  0  0  0
   21.1794   20.0353   24.1024 C   0  0  0  0  0  0  0  0  0  0  0  0
   22.0935   20.5069   23.7186 H   0  0  0  0  0  0  0  0  0  0  0  0
   21.1162   20.3285   25.1587 H   0  0  0  0  0  0  0  0  0  0  0  0
   21.3363   18.4908   24.0551 C   0  0  0  0  0  0  0  0  0  0  0  0
   20.4495   17.9965   24.4723 H   0  0  0  0  0  0  0  0  0  0  0  0
   22.1570   18.2312   24.7377 H   0  0  0  0  0  0  0  0  0  0  0  0
   21.6909   17.9149   22.6596 C   0  0  0  0  0  0  0  0  0  0  0  0
   22.4418   17.1248   22.7975 H   0  0  0  0  0  0  0  0  0  0  0  0
   22.1998   18.6699   22.0499 H   0  0  0  0  0  0  0  0  0  0  0  0
   19.8785   22.0115   23.7322 O   0  0  0  0  0  0  0  0  0  0  0  0
   19.0612   22.3651   23.3230 H   0  0  0  0  0  0  0  0  0  0  0  0
  1  2  1  0  0  0  0
  1  3  1  0  0  0  0
  1  4  1  0  0  0  0
  4  5  1  0  0  0  0
  4  6  1  0  0  0  0
  4  7  1  0  0  0  0
  7  8  1  0  0  0  0
  7  9  1  0  0  0  0
  7 10  1  0  0  0  0
 10 11  1  0  0  0  0
 10 12  1  0  0  0  0
 10 13  1  0  0  0  0
 13 14  1  0  0  0  0
 13 15  1  0  0  0  0
 15 16  1  0  0  0  0
 15 17  1  0  0  0  0
 15 18  1  0  0  0  0
 18 19  1  0  0  0  0
 18 20  1  0  0  0  0
  1 21  1  0  0  0  0
 18 21  1  0  0  0  0
 21 22  1  0  0  0  0
 21 23  1  0  0  0  0
 13 24  1  0  0  0  0
 24 25  1  0  0  0  0
M  END
> <VConfSearch Rank>
219

> <Conf_Id>
129

> <Delta U+W>
-1.846

> <U+W>
9.067

> <U>
11.150

> <W>
-2.083

> <W(PB)>
-4.217

> <W(SA)>
2.134

> <Valence>
16.583

> <Coulomb>
-8.361

> <VdW>
2.928

> <VdW6>
-12.539

> <VdW12>
15.467

> <Bond>
0.441

> <Angle>
5.093

> <Pdih>
11.049

> <Idih>
0.000

> <Tether>
0.000

$$$$
VeraChem MOL file


 25 25  0  0  0  0  0  0  0  0999 V2000     
   21.2441   19.9269   20.9779 C   0  0  0  0  0  0  0  0  0  0  0  0
   21.7975   20.8752   21.0097 H   0  0  0  0  0  0  0  0  0  0  0  0
   21.3692   19.5453   19.9553 H   0  0  0  0  0  0  0  0  0  0  0  0
   19.7347   20.2084   21.1846 C   0  0  0  0  0  0  0  0  0  0  0  0
   19.4096   20.8609   20.3628 H   0  0  0  0  0  0  0  0  0  0  0  0
   19.1536   19.2886   21.0522 H   0  0  0  0  0  0  0  0  0  0  0  0
   19.3465   20.9109   22.5097 C   0  0  0  0  0  0  0  0  0  0  0  0
   18.2742   21.1446   22.4579 H   0  0  0  0  0  0  0  0  0  0  0  0
   19.8598   21.8800   22.5708 H   0  0  0  0  0  0  0  0  0  0  0  0
   19.5975   20.1244   23.8226 C   0  0  0  0  0  0  0  0  0  0  0  0
   20.6450   20.2206   24.1261 H   0  0  0  0  0  0  0  0  0  0  0  0
   19.0318   20.6346   24.6139 H   0  0  0  0  0  0  0  0  0  0  0  0
   19.1849   18.6302   23.7817 C   0  0  0  0  0  0  0  0  0  0  0  0
   18.4672   18.4666   22.9668 H   0  0  0  0  0  0  0  0  0  0  0  0
   20.3712   17.6461   23.6226 C   0  0  0  0  0  0  0  0  0  0  0  0
   21.1056   17.8272   24.4183 H   0  0  0  0  0  0  0  0  0  0  0  0
   19.9882   16.6314   23.7960 H   0  0  0  0  0  0  0  0  0  0  0  0
   21.0977   17.6397   22.2504 C   0  0  0  0  0  0  0  0  0  0  0  0
   20.3937   17.4177   21.4379 H   0  0  0  0  0  0  0  0  0  0  0  0
   21.7976   16.7929   22.2621 H   0  0  0  0  0  0  0  0  0  0  0  0
   21.9188   18.9188   21.9437 C   0  0  0  0  0  0  0  0  0  0  0  0
   22.8666   18.6130   21.4797 H   0  0  0  0  0  0  0  0  0  0  0  0
   22.2188   19.4159   22.8731 H   0  0  0  0  0  0  0  0  0  0  0  0
   18.5362   18.3147   25.0071 O   0  0  0  0  0  0  0  0  0  0  0  0
   19.1955   18.4639   25.7156 H   0  0  0  0  0  0  0  0  0  0  0  0
  1  2  1  0  0  0  0
  1  3  1  0  0  0  0
  1  4  1  0  0  0  0
  4  5  1  0  0  0  0
  4  6  1  0  0  0  0
  4  7  1  0  0  0  0
  7  8  1  0  0  0  0
  7  9  1  0  0  0  0
  7 10  1  0  0  0  0
 10 11  1  0  0  0  0
 10 12  1  0  0  0  0
 10 13  1  0  0  0  0
 13 14  1  0  0  0  0
 13 15  1  0  0  0  0
 15 16  1  0  0  0  0
 15 17  1  0  0  0  0
 15 18  1  0  0  0  0
 18 19  1  0  0  0  0
 18 20  1  0  0  0  0
  1 21  1  0  0  0  0
 18 21  1  0  0  0  0
 21 22  1  0  0  0  0
 21 23  1  0  0  0  0
 13 24  1  0  0  0  0
 24 25  1  0  0  0  0
M  END
> <VConfSearch Rank>
220

> <Conf_Id>
140

> <Delta U+W>
-1.702

> <U+W>
9.211

> <U>
11.181

> <W>
-1.969

> <W(PB)>
-4.093

> <W(SA)>
2.124

> <Valence>
16.954

> <Coulomb>
-8.661

> <VdW>
2.887

> <VdW6>
-12.561

> <VdW12>
15.448

> <Bond>
0.433

> <Angle>
5.120

> <Pdih>
11.401

> <Idih>
0.000

> <Tether>
0.000

$$$$
VeraChem MOL file


 25 25  0  0  0  0  0  0  0  0999 V2000     
   19.7787   21.1496   22.3053 C   0  0  0  0  0  0  0  0  0  0  0  0
   18.7336   21.4832   22.3598 H   0  0  0  0  0  0  0  0  0  0  0  0
   20.3618   22.0438   22.0459 H   0  0  0  0  0  0  0  0  0  0  0  0
   19.9229   20.1375   21.1394 C   0  0  0  0  0  0  0  0  0  0  0  0
   19.0657   19.4555   21.1118 H   0  0  0  0  0  0  0  0  0  0  0  0
   19.8466   20.7097   20.2047 H   0  0  0  0  0  0  0  0  0  0  0  0
   21.2535   19.3417   21.1100 C   0  0  0  0  0  0  0  0  0  0  0  0
   22.0547   19.8924   21.6195 H   0  0  0  0  0  0  0  0  0  0  0  0
   21.5746   19.2740   20.0615 H   0  0  0  0  0  0  0  0  0  0  0  0
   21.1549   17.8886   21.6484 C   0  0  0  0  0  0  0  0  0  0  0  0
   20.3766   17.3503   21.0920 H   0  0  0  0  0  0  0  0  0  0  0  0
   22.0991   17.3835   21.4044 H   0  0  0  0  0  0  0  0  0  0  0  0
   20.9112   17.7212   23.1694 C   0  0  0  0  0  0  0  0  0  0  0  0
   21.6735   18.2859   23.7224 H   0  0  0  0  0  0  0  0  0  0  0  0
   19.4978   18.1523   23.6396 C   0  0  0  0  0  0  0  0  0  0  0  0
   18.7945   18.1260   22.8010 H   0  0  0  0  0  0  0  0  0  0  0  0
   19.1102   17.4093   24.3497 H   0  0  0  0  0  0  0  0  0  0  0  0
   19.4337   19.5302   24.3485 C   0  0  0  0  0  0  0  0  0  0  0  0
   19.8021   19.3974   25.3750 H   0  0  0  0  0  0  0  0  0  0  0  0
   18.3823   19.8325   24.4463 H   0  0  0  0  0  0  0  0  0  0  0  0
   20.2419   20.6874   23.7096 C   0  0  0  0  0  0  0  0  0  0  0  0
   21.3117   20.4494   23.6992 H   0  0  0  0  0  0  0  0  0  0  0  0
   20.1582   21.5526   24.3813 H   0  0  0  0  0  0  0  0  0  0  0  0
   21.0795   16.3425   23.4745 O   0  0  0  0  0  0  0  0  0  0  0  0
   20.3934   15.8613   22.9680 H   0  0  0  0  0  0  0  0  0  0  0  0
  1  2  1  0  0  0  0
  1  3  1  0  0  0  0
  1  4  1  0  0  0  0
  4  5  1  0  0  0  0
  4  6  1  0  0  0  0
  4  7  1  0  0  0  0
  7  8  1  0  0  0  0
  7  9  1  0  0  0  0
  7 10  1  0  0  0  0
 10 11  1  0  0  0  0
 10 12  1  0  0  0  0
 10 13  1  0  0  0  0
 13 14  1  0  0  0  0
 13 15  1  0  0  0  0
 15 16  1  0  0  0  0
 15 17  1  0  0  0  0
 15 18  1  0  0  0  0
 18 19  1  0  0  0  0
 18 20  1  0  0  0  0
  1 21  1  0  0  0  0
 18 21  1  0  0  0  0
 21 22  1  0  0  0  0
 21 23  1  0  0  0  0
 13 24  1  0  0  0  0
 24 25  1  0  0  0  0
M  END
> <VConfSearch Rank>
221

> <Conf_Id>
68

> <Delta U+W>
-1.765

> <U+W>
9.148

> <U>
11.181

> <W>
-2.032

> <W(PB)>
-4.147

> <W(SA)>
2.114

> <Valence>
16.955

> <Coulomb>
-8.661

> <VdW>
2.887

> <VdW6>
-12.561

> <VdW12>
15.448

> <Bond>
0.433

> <Angle>
5.121

> <Pdih>
11.402

> <Idih>
0.000

> <Tether>
0.000

$$$$
VeraChem MOL file


 25 25  0  0  0  0  0  0  0  0999 V2000     
   18.4483   19.6187   22.3635 C   0  0  0  0  0  0  0  0  0  0  0  0
   17.3662   19.7685   22.2462 H   0  0  0  0  0  0  0  0  0  0  0  0
   18.8978   20.3180   21.6494 H   0  0  0  0  0  0  0  0  0  0  0  0
   18.7763   18.1541   21.9728 C   0  0  0  0  0  0  0  0  0  0  0  0
   18.8007   17.5047   22.8573 H   0  0  0  0  0  0  0  0  0  0  0  0
   17.9404   17.7792   21.3663 H   0  0  0  0  0  0  0  0  0  0  0  0
   20.0640   17.9790   21.1256 C   0  0  0  0  0  0  0  0  0  0  0  0
   19.9941   18.6021   20.2235 H   0  0  0  0  0  0  0  0  0  0  0  0
   20.0877   16.9414   20.7654 H   0  0  0  0  0  0  0  0  0  0  0  0
   21.4121   18.2614   21.8406 C   0  0  0  0  0  0  0  0  0  0  0  0
   21.5135   17.6260   22.7286 H   0  0  0  0  0  0  0  0  0  0  0  0
   22.2070   17.9316   21.1580 H   0  0  0  0  0  0  0  0  0  0  0  0
   21.6518   19.7519   22.1954 C   0  0  0  0  0  0  0  0  0  0  0  0
   20.9974   20.3763   21.5762 H   0  0  0  0  0  0  0  0  0  0  0  0
   21.4311   20.1075   23.6863 C   0  0  0  0  0  0  0  0  0  0  0  0
   22.3027   19.7644   24.2591 H   0  0  0  0  0  0  0  0  0  0  0  0
   21.4192   21.2009   23.7835 H   0  0  0  0  0  0  0  0  0  0  0  0
   20.1683   19.5268   24.3734 C   0  0  0  0  0  0  0  0  0  0  0  0
   20.2118   19.8129   25.4330 H   0  0  0  0  0  0  0  0  0  0  0  0
   20.2055   18.4314   24.3812 H   0  0  0  0  0  0  0  0  0  0  0  0
   18.8063   20.0150   23.8194 C   0  0  0  0  0  0  0  0  0  0  0  0
   18.7449   21.1074   23.9169 H   0  0  0  0  0  0  0  0  0  0  0  0
   18.0227   19.6147   24.4772 H   0  0  0  0  0  0  0  0  0  0  0  0
   22.9962   20.0840   21.8713 O   0  0  0  0  0  0  0  0  0  0  0  0
   23.5645   19.5052   22.4198 H   0  0  0  0  0  0  0  0  0  0  0  0
  1  2  1  0  0  0  0
  1  3  1  0  0  0  0
  1  4  1  0  0  0  0
  4  5  1  0  0  0  0
  4  6  1  0  0  0  0
  4  7  1  0  0  0  0
  7  8  1  0  0  0  0
  7  9  1  0  0  0  0
  7 10  1  0  0  0  0
 10 11  1  0  0  0  0
 10 12  1  0  0  0  0
 10 13  1  0  0  0  0
 13 14  1  0  0  0  0
 13 15  1  0  0  0  0
 15 16  1  0  0  0  0
 15 17  1  0  0  0  0
 15 18  1  0  0  0  0
 18 19  1  0  0  0  0
 18 20  1  0  0  0  0
  1 21  1  0  0  0  0
 18 21  1  0  0  0  0
 21 22  1  0  0  0  0
 21 23  1  0  0  0  0
 13 24  1  0  0  0  0
 24 25  1  0  0  0  0
M  END
> <VConfSearch Rank>
222

> <Conf_Id>
165

> <Delta U+W>
-1.999

> <U+W>
8.915

> <U>
10.935

> <W>
-2.020

> <W(PB)>
-4.135

> <W(SA)>
2.115

> <Valence>
16.757

> <Coulomb>
-8.731

> <VdW>
2.908

> <VdW6>
-12.597

> <VdW12>
15.506

> <Bond>
0.434

> <Angle>
5.069

> <Pdih>
11.254

> <Idih>
0.000

> <Tether>
0.000

$$$$
VeraChem MOL file


 25 25  0  0  0  0  0  0  0  0999 V2000     
   18.5990   18.9518   22.0321 C   0  0  0  0  0  0  0  0  0  0  0  0
   17.5889   18.8888   21.6045 H   0  0  0  0  0  0  0  0  0  0  0  0
   18.7017   18.0334   22.6210 H   0  0  0  0  0  0  0  0  0  0  0  0
   18.6253   20.2002   22.9519 C   0  0  0  0  0  0  0  0  0  0  0  0
   18.0884   21.0074   22.4350 H   0  0  0  0  0  0  0  0  0  0  0  0
   18.0405   19.9886   23.8573 H   0  0  0  0  0  0  0  0  0  0  0  0
   20.0142   20.7551   23.3564 C   0  0  0  0  0  0  0  0  0  0  0  0
   19.8448   21.6836   23.9183 H   0  0  0  0  0  0  0  0  0  0  0  0
   20.5728   21.0685   22.4670 H   0  0  0  0  0  0  0  0  0  0  0  0
   20.8850   19.8301   24.2453 C   0  0  0  0  0  0  0  0  0  0  0  0
   21.7790   20.3989   24.5347 H   0  0  0  0  0  0  0  0  0  0  0  0
   20.3438   19.6219   25.1772 H   0  0  0  0  0  0  0  0  0  0  0  0
   21.3455   18.4864   23.6288 C   0  0  0  0  0  0  0  0  0  0  0  0
   20.5133   17.7731   23.6532 H   0  0  0  0  0  0  0  0  0  0  0  0
   21.8769   18.5903   22.1758 C   0  0  0  0  0  0  0  0  0  0  0  0
   22.2142   19.6100   21.9555 H   0  0  0  0  0  0  0  0  0  0  0  0
   22.7773   17.9670   22.0905 H   0  0  0  0  0  0  0  0  0  0  0  0
   20.8833   18.0996   21.0891 C   0  0  0  0  0  0  0  0  0  0  0  0
   20.5833   17.0665   21.3118 H   0  0  0  0  0  0  0  0  0  0  0  0
   21.4285   18.0488   20.1367 H   0  0  0  0  0  0  0  0  0  0  0  0
   19.6165   18.9658   20.8616 C   0  0  0  0  0  0  0  0  0  0  0  0
   19.1068   18.5614   19.9763 H   0  0  0  0  0  0  0  0  0  0  0  0
   19.8910   19.9927   20.5884 H   0  0  0  0  0  0  0  0  0  0  0  0
   22.3848   17.9729   24.4544 O   0  0  0  0  0  0  0  0  0  0  0  0
   22.0086   17.8757   25.3541 H   0  0  0  0  0  0  0  0  0  0  0  0
  1  2  1  0  0  0  0
  1  3  1  0  0  0  0
  1  4  1  0  0  0  0
  4  5  1  0  0  0  0
  4  6  1  0  0  0  0
  4  7  1  0  0  0  0
  7  8  1  0  0  0  0
  7  9  1  0  0  0  0
  7 10  1  0  0  0  0
 10 11  1  0  0  0  0
 10 12  1  0  0  0  0
 10 13  1  0  0  0  0
 13 14  1  0  0  0  0
 13 15  1  0  0  0  0
 15 16  1  0  0  0  0
 15 17  1  0  0  0  0
 15 18  1  0  0  0  0
 18 19  1  0  0  0  0
 18 20  1  0  0  0  0
  1 21  1  0  0  0  0
 18 21  1  0  0  0  0
 21 22  1  0  0  0  0
 21 23  1  0  0  0  0
 13 24  1  0  0  0  0
 24 25  1  0  0  0  0
M  END
> <VConfSearch Rank>
223

> <Conf_Id>
133

> <Delta U+W>
-2.139

> <U+W>
8.774

> <U>
10.905

> <W>
-2.131

> <W(PB)>
-4.281

> <W(SA)>
2.150

> <Valence>
16.378

> <Coulomb>
-8.448

> <VdW>
2.976

> <VdW6>
-12.570

> <VdW12>
15.545

> <Bond>
0.439

> <Angle>
5.049

> <Pdih>
10.889

> <Idih>
0.000

> <Tether>
0.000

$$$$
VeraChem MOL file


 25 25  0  0  0  0  0  0  0  0999 V2000     
   21.6399   17.9955   22.7177 C   0  0  0  0  0  0  0  0  0  0  0  0
   22.5037   17.3194   22.7789 H   0  0  0  0  0  0  0  0  0  0  0  0
   20.8528   17.3884   22.2563 H   0  0  0  0  0  0  0  0  0  0  0  0
   22.0232   19.1830   21.7967 C   0  0  0  0  0  0  0  0  0  0  0  0
   22.3887   20.0360   22.3826 H   0  0  0  0  0  0  0  0  0  0  0  0
   22.8814   18.8655   21.1887 H   0  0  0  0  0  0  0  0  0  0  0  0
   20.9110   19.6286   20.8111 C   0  0  0  0  0  0  0  0  0  0  0  0
   20.5973   18.7692   20.2028 H   0  0  0  0  0  0  0  0  0  0  0  0
   21.3570   20.3420   20.1048 H   0  0  0  0  0  0  0  0  0  0  0  0
   19.6578   20.3011   21.4327 C   0  0  0  0  0  0  0  0  0  0  0  0
   19.9456   21.1815   22.0195 H   0  0  0  0  0  0  0  0  0  0  0  0
   19.0607   20.6959   20.5996 H   0  0  0  0  0  0  0  0  0  0  0  0
   18.7633   19.3492   22.2681 C   0  0  0  0  0  0  0  0  0  0  0  0
   18.9855   18.3133   21.9863 H   0  0  0  0  0  0  0  0  0  0  0  0
   18.9116   19.5045   23.8016 C   0  0  0  0  0  0  0  0  0  0  0  0
   18.3659   20.4067   24.1093 H   0  0  0  0  0  0  0  0  0  0  0  0
   18.4046   18.6626   24.2906 H   0  0  0  0  0  0  0  0  0  0  0  0
   20.3514   19.6180   24.3656 C   0  0  0  0  0  0  0  0  0  0  0  0
   20.2661   19.7956   25.4463 H   0  0  0  0  0  0  0  0  0  0  0  0
   20.8456   20.5155   23.9764 H   0  0  0  0  0  0  0  0  0  0  0  0
   21.2584   18.3769   24.1718 C   0  0  0  0  0  0  0  0  0  0  0  0
   20.7950   17.5081   24.6586 H   0  0  0  0  0  0  0  0  0  0  0  0
   22.1900   18.5632   24.7236 H   0  0  0  0  0  0  0  0  0  0  0  0
   17.4019   19.6074   21.9435 O   0  0  0  0  0  0  0  0  0  0  0  0
   16.8639   18.9637   22.4500 H   0  0  0  0  0  0  0  0  0  0  0  0
  1  2  1  0  0  0  0
  1  3  1  0  0  0  0
  1  4  1  0  0  0  0
  4  5  1  0  0  0  0
  4  6  1  0  0  0  0
  4  7  1  0  0  0  0
  7  8  1  0  0  0  0
  7  9  1  0  0  0  0
  7 10  1  0  0  0  0
 10 11  1  0  0  0  0
 10 12  1  0  0  0  0
 10 13  1  0  0  0  0
 13 14  1  0  0  0  0
 13 15  1  0  0  0  0
 15 16  1  0  0  0  0
 15 17  1  0  0  0  0
 15 18  1  0  0  0  0
 18 19  1  0  0  0  0
 18 20  1  0  0  0  0
  1 21  1  0  0  0  0
 18 21  1  0  0  0  0
 21 22  1  0  0  0  0
 21 23  1  0  0  0  0
 13 24  1  0  0  0  0
 24 25  1  0  0  0  0
M  END
> <VConfSearch Rank>
224

> <Conf_Id>
95

> <Delta U+W>
-2.190

> <U+W>
8.723

> <U>
10.905

> <W>
-2.182

> <W(PB)>
-4.296

> <W(SA)>
2.114

> <Valence>
16.377

> <Coulomb>
-8.448

> <VdW>
2.976

> <VdW6>
-12.570

> <VdW12>
15.546

> <Bond>
0.439

> <Angle>
5.049

> <Pdih>
10.889

> <Idih>
0.000

> <Tether>
0.000

$$$$
VeraChem MOL file


 25 25  0  0  0  0  0  0  0  0999 V2000     
   20.1066   20.7187   21.7058 C   0  0  0  0  0  0  0  0  0  0  0  0
   20.0494   21.7041   21.2234 H   0  0  0  0  0  0  0  0  0  0  0  0
   19.3486   20.1326   21.1766 H   0  0  0  0  0  0  0  0  0  0  0  0
   19.7138   20.9194   23.1990 C   0  0  0  0  0  0  0  0  0  0  0  0
   20.0921   21.9035   23.5079 H   0  0  0  0  0  0  0  0  0  0  0  0
   18.6203   20.9907   23.2734 H   0  0  0  0  0  0  0  0  0  0  0  0
   20.2321   19.8908   24.2382 C   0  0  0  0  0  0  0  0  0  0  0  0
   19.9579   20.2594   25.2360 H   0  0  0  0  0  0  0  0  0  0  0  0
   21.3265   19.9096   24.2504 H   0  0  0  0  0  0  0  0  0  0  0  0
   19.7034   18.4298   24.1272 C   0  0  0  0  0  0  0  0  0  0  0  0
   20.3973   17.7605   24.6524 H   0  0  0  0  0  0  0  0  0  0  0  0
   18.7630   18.3849   24.6919 H   0  0  0  0  0  0  0  0  0  0  0  0
   19.4190   17.8577   22.7153 C   0  0  0  0  0  0  0  0  0  0  0  0
   18.6912   18.5120   22.2244 H   0  0  0  0  0  0  0  0  0  0  0  0
   20.6443   17.6482   21.7797 C   0  0  0  0  0  0  0  0  0  0  0  0
   21.0727   16.6612   21.9999 H   0  0  0  0  0  0  0  0  0  0  0  0
   20.2819   17.5884   20.7456 H   0  0  0  0  0  0  0  0  0  0  0  0
   21.8109   18.6708   21.8466 C   0  0  0  0  0  0  0  0  0  0  0  0
   22.6170   18.2971   21.2006 H   0  0  0  0  0  0  0  0  0  0  0  0
   22.2541   18.6488   22.8471 H   0  0  0  0  0  0  0  0  0  0  0  0
   21.5118   20.1335   21.4053 C   0  0  0  0  0  0  0  0  0  0  0  0
   21.6535   20.1839   20.3171 H   0  0  0  0  0  0  0  0  0  0  0  0
   22.2775   20.7963   21.8306 H   0  0  0  0  0  0  0  0  0  0  0  0
   18.7973   16.5895   22.8879 O   0  0  0  0  0  0  0  0  0  0  0  0
   17.9909   16.7402   23.4237 H   0  0  0  0  0  0  0  0  0  0  0  0
  1  2  1  0  0  0  0
  1  3  1  0  0  0  0
  1  4  1  0  0  0  0
  4  5  1  0  0  0  0
  4  6  1  0  0  0  0
  4  7  1  0  0  0  0
  7  8  1  0  0  0  0
  7  9  1  0  0  0  0
  7 10  1  0  0  0  0
 10 11  1  0  0  0  0
 10 12  1  0  0  0  0
 10 13  1  0  0  0  0
 13 14  1  0  0  0  0
 13 15  1  0  0  0  0
 15 16  1  0  0  0  0
 15 17  1  0  0  0  0
 15 18  1  0  0  0  0
 18 19  1  0  0  0  0
 18 20  1  0  0  0  0
  1 21  1  0  0  0  0
 18 21  1  0  0  0  0
 21 22  1  0  0  0  0
 21 23  1  0  0  0  0
 13 24  1  0  0  0  0
 24 25  1  0  0  0  0
M  END
> <VConfSearch Rank>
225

> <Conf_Id>
161

> <Delta U+W>
2.120

> <U+W>
13.033

> <U>
15.076

> <W>
-2.043

> <W(PB)>
-4.186

> <W(SA)>
2.143

> <Valence>
18.884

> <Coulomb>
-8.074

> <VdW>
4.266

> <VdW6>
-13.486

> <VdW12>
17.752

> <Bond>
0.713

> <Angle>
8.955

> <Pdih>
9.215

> <Idih>
0.000

> <Tether>
0.000

$$$$
VeraChem MOL file


 25 25  0  0  0  0  0  0  0  0999 V2000     
   20.0307   17.7103   21.3682 C   0  0  0  0  0  0  0  0  0  0  0  0
   19.7362   17.0658   20.5286 H   0  0  0  0  0  0  0  0  0  0  0  0
   20.4209   17.0201   22.1268 H   0  0  0  0  0  0  0  0  0  0  0  0
   18.7578   18.4151   21.8997 C   0  0  0  0  0  0  0  0  0  0  0  0
   18.5600   19.3386   21.3392 H   0  0  0  0  0  0  0  0  0  0  0  0
   17.9103   17.7526   21.6757 H   0  0  0  0  0  0  0  0  0  0  0  0
   18.7349   18.6717   23.4323 C   0  0  0  0  0  0  0  0  0  0  0  0
   19.1984   17.8404   23.9804 H   0  0  0  0  0  0  0  0  0  0  0  0
   17.6798   18.6687   23.7386 H   0  0  0  0  0  0  0  0  0  0  0  0
   19.3296   20.0302   23.8855 C   0  0  0  0  0  0  0  0  0  0  0  0
   19.1223   20.7978   23.1300 H   0  0  0  0  0  0  0  0  0  0  0  0
   18.7777   20.3549   24.7774 H   0  0  0  0  0  0  0  0  0  0  0  0
   20.8299   20.0258   24.2739 C   0  0  0  0  0  0  0  0  0  0  0  0
   20.9325   19.4715   25.2179 H   0  0  0  0  0  0  0  0  0  0  0  0
   21.8028   19.3887   23.2548 C   0  0  0  0  0  0  0  0  0  0  0  0
   22.8279   19.6571   23.5435 H   0  0  0  0  0  0  0  0  0  0  0  0
   21.7661   18.2991   23.3610 H   0  0  0  0  0  0  0  0  0  0  0  0
   21.5718   19.8098   21.7788 C   0  0  0  0  0  0  0  0  0  0  0  0
   22.5005   20.2460   21.3864 H   0  0  0  0  0  0  0  0  0  0  0  0
   20.8305   20.6137   21.7063 H   0  0  0  0  0  0  0  0  0  0  0  0
   21.1554   18.6449   20.8492 C   0  0  0  0  0  0  0  0  0  0  0  0
   22.0403   18.0296   20.6366 H   0  0  0  0  0  0  0  0  0  0  0  0
   20.8475   19.0686   19.8836 H   0  0  0  0  0  0  0  0  0  0  0  0
   21.2313   21.3717   24.4879 O   0  0  0  0  0  0  0  0  0  0  0  0
   21.2577   21.7874   23.6023 H   0  0  0  0  0  0  0  0  0  0  0  0
  1  2  1  0  0  0  0
  1  3  1  0  0  0  0
  1  4  1  0  0  0  0
  4  5  1  0  0  0  0
  4  6  1  0  0  0  0
  4  7  1  0  0  0  0
  7  8  1  0  0  0  0
  7  9  1  0  0  0  0
  7 10  1  0  0  0  0
 10 11  1  0  0  0  0
 10 12  1  0  0  0  0
 10 13  1  0  0  0  0
 13 14  1  0  0  0  0
 13 15  1  0  0  0  0
 15 16  1  0  0  0  0
 15 17  1  0  0  0  0
 15 18  1  0  0  0  0
 18 19  1  0  0  0  0
 18 20  1  0  0  0  0
  1 21  1  0  0  0  0
 18 21  1  0  0  0  0
 21 22  1  0  0  0  0
 21 23  1  0  0  0  0
 13 24  1  0  0  0  0
 24 25  1  0  0  0  0
M  END
> <VConfSearch Rank>
226

> <Conf_Id>
164

> <Delta U+W>
0.008

> <U+W>
10.922

> <U>
12.433

> <W>
-1.511

> <W(PB)>
-3.669

> <W(SA)>
2.157

> <Valence>
19.007

> <Coulomb>
-9.373

> <VdW>
2.799

> <VdW6>
-12.597

> <VdW12>
15.396

> <Bond>
0.425

> <Angle>
4.784

> <Pdih>
13.799

> <Idih>
0.000

> <Tether>
0.000

$$$$
VeraChem MOL file


 25 25  0  0  0  0  0  0  0  0999 V2000     
   20.9677   18.1305   23.9442 C   0  0  0  0  0  0  0  0  0  0  0  0
   21.7818   18.8272   23.7143 H   0  0  0  0  0  0  0  0  0  0  0  0
   21.3730   17.4829   24.7335 H   0  0  0  0  0  0  0  0  0  0  0  0
   20.6653   17.2298   22.7207 C   0  0  0  0  0  0  0  0  0  0  0  0
   21.5836   16.6742   22.4864 H   0  0  0  0  0  0  0  0  0  0  0  0
   19.9233   16.4709   23.0034 H   0  0  0  0  0  0  0  0  0  0  0  0
   20.1943   17.9349   21.4231 C   0  0  0  0  0  0  0  0  0  0  0  0
   19.1167   18.1309   21.4609 H   0  0  0  0  0  0  0  0  0  0  0  0
   20.3138   17.2152   20.6017 H   0  0  0  0  0  0  0  0  0  0  0  0
   20.9699   19.2270   21.0521 C   0  0  0  0  0  0  0  0  0  0  0  0
   21.9745   19.2219   21.4920 H   0  0  0  0  0  0  0  0  0  0  0  0
   21.1288   19.2113   19.9654 H   0  0  0  0  0  0  0  0  0  0  0  0
   20.2311   20.5483   21.3819 C   0  0  0  0  0  0  0  0  0  0  0  0
   19.2315   20.5047   20.9264 H   0  0  0  0  0  0  0  0  0  0  0  0
   20.0626   20.8914   22.8834 C   0  0  0  0  0  0  0  0  0  0  0  0
   21.0374   20.9410   23.3836 H   0  0  0  0  0  0  0  0  0  0  0  0
   19.6573   21.9108   22.9358 H   0  0  0  0  0  0  0  0  0  0  0  0
   19.0866   19.9669   23.6590 C   0  0  0  0  0  0  0  0  0  0  0  0
   18.3676   19.5051   22.9729 H   0  0  0  0  0  0  0  0  0  0  0  0
   18.4721   20.5940   24.3195 H   0  0  0  0  0  0  0  0  0  0  0  0
   19.7602   18.8903   24.5478 C   0  0  0  0  0  0  0  0  0  0  0  0
   18.9993   18.1659   24.8685 H   0  0  0  0  0  0  0  0  0  0  0  0
   20.1073   19.3825   25.4665 H   0  0  0  0  0  0  0  0  0  0  0  0
   20.9558   21.6099   20.7762 O   0  0  0  0  0  0  0  0  0  0  0  0
   21.8372   21.6211   21.2025 H   0  0  0  0  0  0  0  0  0  0  0  0
  1  2  1  0  0  0  0
  1  3  1  0  0  0  0
  1  4  1  0  0  0  0
  4  5  1  0  0  0  0
  4  6  1  0  0  0  0
  4  7  1  0  0  0  0
  7  8  1  0  0  0  0
  7  9  1  0  0  0  0
  7 10  1  0  0  0  0
 10 11  1  0  0  0  0
 10 12  1  0  0  0  0
 10 13  1  0  0  0  0
 13 14  1  0  0  0  0
 13 15  1  0  0  0  0
 15 16  1  0  0  0  0
 15 17  1  0  0  0  0
 15 18  1  0  0  0  0
 18 19  1  0  0  0  0
 18 20  1  0  0  0  0
  1 21  1  0  0  0  0
 18 21  1  0  0  0  0
 21 22  1  0  0  0  0
 21 23  1  0  0  0  0
 13 24  1  0  0  0  0
 24 25  1  0  0  0  0
M  END
> <VConfSearch Rank>
227

> <Conf_Id>
15

> <Delta U+W>
-1.271

> <U+W>
9.643

> <U>
11.413

> <W>
-1.770

> <W(PB)>
-3.908

> <W(SA)>
2.138

> <Valence>
17.496

> <Coulomb>
-8.736

> <VdW>
2.653

> <VdW6>
-12.485

> <VdW12>
15.138

> <Bond>
0.414

> <Angle>
5.295

> <Pdih>
11.787

> <Idih>
0.000

> <Tether>
0.000

$$$$
VeraChem MOL file


 25 25  0  0  0  0  0  0  0  0999 V2000     
   21.8811   20.2439   23.1534 C   0  0  0  0  0  0  0  0  0  0  0  0
   22.7022   20.9582   23.3036 H   0  0  0  0  0  0  0  0  0  0  0  0
   22.2997   19.2718   23.4431 H   0  0  0  0  0  0  0  0  0  0  0  0
   20.7390   20.6572   24.1186 C   0  0  0  0  0  0  0  0  0  0  0  0
   21.0870   20.4948   25.1478 H   0  0  0  0  0  0  0  0  0  0  0  0
   20.5708   21.7390   24.0276 H   0  0  0  0  0  0  0  0  0  0  0  0
   19.3808   19.9381   23.9353 C   0  0  0  0  0  0  0  0  0  0  0  0
   18.8452   20.3769   23.0854 H   0  0  0  0  0  0  0  0  0  0  0  0
   18.7545   20.1648   24.8088 H   0  0  0  0  0  0  0  0  0  0  0  0
   19.4935   18.3981   23.7890 C   0  0  0  0  0  0  0  0  0  0  0  0
   20.5135   18.0588   24.0006 H   0  0  0  0  0  0  0  0  0  0  0  0
   18.8737   17.9297   24.5647 H   0  0  0  0  0  0  0  0  0  0  0  0
   19.0243   17.8479   22.4225 C   0  0  0  0  0  0  0  0  0  0  0  0
   17.9263   17.9010   22.4022 H   0  0  0  0  0  0  0  0  0  0  0  0
   19.5402   18.5899   21.1624 C   0  0  0  0  0  0  0  0  0  0  0  0
   19.2597   17.9792   20.2937 H   0  0  0  0  0  0  0  0  0  0  0  0
   18.9881   19.5276   21.0269 H   0  0  0  0  0  0  0  0  0  0  0  0
   21.0658   18.8642   21.0830 C   0  0  0  0  0  0  0  0  0  0  0  0
   21.3337   18.8548   20.0175 H   0  0  0  0  0  0  0  0  0  0  0  0
   21.6404   18.0439   21.5321 H   0  0  0  0  0  0  0  0  0  0  0  0
   21.5222   20.2380   21.6469 C   0  0  0  0  0  0  0  0  0  0  0  0
   20.7915   21.0249   21.4164 H   0  0  0  0  0  0  0  0  0  0  0  0
   22.4334   20.5191   21.1011 H   0  0  0  0  0  0  0  0  0  0  0  0
   19.4163   16.4852   22.3349 O   0  0  0  0  0  0  0  0  0  0  0  0
   20.3918   16.4915   22.2600 H   0  0  0  0  0  0  0  0  0  0  0  0
  1  2  1  0  0  0  0
  1  3  1  0  0  0  0
  1  4  1  0  0  0  0
  4  5  1  0  0  0  0
  4  6  1  0  0  0  0
  4  7  1  0  0  0  0
  7  8  1  0  0  0  0
  7  9  1  0  0  0  0
  7 10  1  0  0  0  0
 10 11  1  0  0  0  0
 10 12  1  0  0  0  0
 10 13  1  0  0  0  0
 13 14  1  0  0  0  0
 13 15  1  0  0  0  0
 15 16  1  0  0  0  0
 15 17  1  0  0  0  0
 15 18  1  0  0  0  0
 18 19  1  0  0  0  0
 18 20  1  0  0  0  0
  1 21  1  0  0  0  0
 18 21  1  0  0  0  0
 21 22  1  0  0  0  0
 21 23  1  0  0  0  0
 13 24  1  0  0  0  0
 24 25  1  0  0  0  0
M  END
> <VConfSearch Rank>
228

> <Conf_Id>
115

> <Delta U+W>
0.038

> <U+W>
10.952

> <U>
12.526

> <W>
-1.575

> <W(PB)>
-3.698

> <W(SA)>
2.123

> <Valence>
19.016

> <Coulomb>
-9.226

> <VdW>
2.737

> <VdW6>
-12.612

> <VdW12>
15.349

> <Bond>
0.421

> <Angle>
4.883

> <Pdih>
13.711

> <Idih>
0.000

> <Tether>
0.000

$$$$
VeraChem MOL file


 25 25  0  0  0  0  0  0  0  0999 V2000     
   21.8810   18.9176   24.0986 C   0  0  0  0  0  0  0  0  0  0  0  0
   22.2570   18.6815   25.1035 H   0  0  0  0  0  0  0  0  0  0  0  0
   22.7514   18.8398   23.4331 H   0  0  0  0  0  0  0  0  0  0  0  0
   21.3656   20.3753   24.1304 C   0  0  0  0  0  0  0  0  0  0  0  0
   20.5752   20.4795   24.8861 H   0  0  0  0  0  0  0  0  0  0  0  0
   22.1927   21.0085   24.4795 H   0  0  0  0  0  0  0  0  0  0  0  0
   20.8814   20.9313   22.7712 C   0  0  0  0  0  0  0  0  0  0  0  0
   21.5633   20.6217   21.9679 H   0  0  0  0  0  0  0  0  0  0  0  0
   20.9624   22.0261   22.8163 H   0  0  0  0  0  0  0  0  0  0  0  0
   19.4070   20.5868   22.4286 C   0  0  0  0  0  0  0  0  0  0  0  0
   18.8717   20.2068   23.3077 H   0  0  0  0  0  0  0  0  0  0  0  0
   18.9042   21.5270   22.1642 H   0  0  0  0  0  0  0  0  0  0  0  0
   19.2380   19.6092   21.2439 C   0  0  0  0  0  0  0  0  0  0  0  0
   20.0176   19.8169   20.4971 H   0  0  0  0  0  0  0  0  0  0  0  0
   19.2971   18.1142   21.6287 C   0  0  0  0  0  0  0  0  0  0  0  0
   18.4852   17.8752   22.3281 H   0  0  0  0  0  0  0  0  0  0  0  0
   19.0916   17.5306   20.7218 H   0  0  0  0  0  0  0  0  0  0  0  0
   20.6518   17.6283   22.1992 C   0  0  0  0  0  0  0  0  0  0  0  0
   21.4846   18.0664   21.6331 H   0  0  0  0  0  0  0  0  0  0  0  0
   20.7139   16.5466   22.0169 H   0  0  0  0  0  0  0  0  0  0  0  0
   20.8244   17.8517   23.7244 C   0  0  0  0  0  0  0  0  0  0  0  0
   21.1539   16.8986   24.1605 H   0  0  0  0  0  0  0  0  0  0  0  0
   19.8651   18.0763   24.2093 H   0  0  0  0  0  0  0  0  0  0  0  0
   17.9659   19.8484   20.6539 O   0  0  0  0  0  0  0  0  0  0  0  0
   17.8998   19.2584   19.8742 H   0  0  0  0  0  0  0  0  0  0  0  0
  1  2  1  0  0  0  0
  1  3  1  0  0  0  0
  1  4  1  0  0  0  0
  4  5  1  0  0  0  0
  4  6  1  0  0  0  0
  4  7  1  0  0  0  0
  7  8  1  0  0  0  0
  7  9  1  0  0  0  0
  7 10  1  0  0  0  0
 10 11  1  0  0  0  0
 10 12  1  0  0  0  0
 10 13  1  0  0  0  0
 13 14  1  0  0  0  0
 13 15  1  0  0  0  0
 15 16  1  0  0  0  0
 15 17  1  0  0  0  0
 15 18  1  0  0  0  0
 18 19  1  0  0  0  0
 18 20  1  0  0  0  0
  1 21  1  0  0  0  0
 18 21  1  0  0  0  0
 21 22  1  0  0  0  0
 21 23  1  0  0  0  0
 13 24  1  0  0  0  0
 24 25  1  0  0  0  0
M  END
> <VConfSearch Rank>
229

> <Conf_Id>
30

> <Delta U+W>
0.000

> <U+W>
10.913

> <U>
13.140

> <W>
-2.227

> <W(PB)>
-4.367

> <W(SA)>
2.140

> <Valence>
19.155

> <Coulomb>
-8.157

> <VdW>
2.142

> <VdW6>
-11.576

> <VdW12>
13.718

> <Bond>
0.294

> <Angle>
3.547

> <Pdih>
15.314

> <Idih>
0.000

> <Tether>
0.000

$$$$
VeraChem MOL file


 25 25  0  0  0  0  0  0  0  0999 V2000     
   21.9095   17.9133   22.2073 C   0  0  0  0  0  0  0  0  0  0  0  0
   22.3742   17.0863   22.7615 H   0  0  0  0  0  0  0  0  0  0  0  0
   22.5001   18.0230   21.2876 H   0  0  0  0  0  0  0  0  0  0  0  0
   22.0633   19.2099   23.0399 C   0  0  0  0  0  0  0  0  0  0  0  0
   23.0887   19.2398   23.4331 H   0  0  0  0  0  0  0  0  0  0  0  0
   21.9949   20.0819   22.3792 H   0  0  0  0  0  0  0  0  0  0  0  0
   21.0744   19.3301   24.2271 C   0  0  0  0  0  0  0  0  0  0  0  0
   21.6491   19.4801   25.1511 H   0  0  0  0  0  0  0  0  0  0  0  0
   20.5323   18.3904   24.3843 H   0  0  0  0  0  0  0  0  0  0  0  0
   20.0658   20.4991   24.0938 C   0  0  0  0  0  0  0  0  0  0  0  0
   19.3004   20.3871   24.8732 H   0  0  0  0  0  0  0  0  0  0  0  0
   20.5898   21.4372   24.3187 H   0  0  0  0  0  0  0  0  0  0  0  0
   19.3680   20.6682   22.7210 C   0  0  0  0  0  0  0  0  0  0  0  0
   20.0981   21.0344   21.9870 H   0  0  0  0  0  0  0  0  0  0  0  0
   18.7018   19.3881   22.1600 C   0  0  0  0  0  0  0  0  0  0  0  0
   18.3418   18.7544   22.9806 H   0  0  0  0  0  0  0  0  0  0  0  0
   17.8009   19.6864   21.6073 H   0  0  0  0  0  0  0  0  0  0  0  0
   19.5815   18.5701   21.1727 C   0  0  0  0  0  0  0  0  0  0  0  0
   20.1841   19.2312   20.5353 H   0  0  0  0  0  0  0  0  0  0  0  0
   18.8954   18.0520   20.4885 H   0  0  0  0  0  0  0  0  0  0  0  0
   20.4673   17.4824   21.8292 C   0  0  0  0  0  0  0  0  0  0  0  0
   20.5589   16.6486   21.1196 H   0  0  0  0  0  0  0  0  0  0  0  0
   19.9521   17.0535   22.6980 H   0  0  0  0  0  0  0  0  0  0  0  0
   18.3645   21.6642   22.8799 O   0  0  0  0  0  0  0  0  0  0  0  0
   17.9818   21.8237   21.9919 H   0  0  0  0  0  0  0  0  0  0  0  0
  1  2  1  0  0  0  0
  1  3  1  0  0  0  0
  1  4  1  0  0  0  0
  4  5  1  0  0  0  0
  4  6  1  0  0  0  0
  4  7  1  0  0  0  0
  7  8  1  0  0  0  0
  7  9  1  0  0  0  0
  7 10  1  0  0  0  0
 10 11  1  0  0  0  0
 10 12  1  0  0  0  0
 10 13  1  0  0  0  0
 13 14  1  0  0  0  0
 13 15  1  0  0  0  0
 15 16  1  0  0  0  0
 15 17  1  0  0  0  0
 15 18  1  0  0  0  0
 18 19  1  0  0  0  0
 18 20  1  0  0  0  0
  1 21  1  0  0  0  0
 18 21  1  0  0  0  0
 21 22  1  0  0  0  0
 21 23  1  0  0  0  0
 13 24  1  0  0  0  0
 24 25  1  0  0  0  0
M  END
> <VConfSearch Rank>
230

> <Conf_Id>
162

> <Delta U+W>
0.219

> <U+W>
11.132

> <U>
13.296

> <W>
-2.164

> <W(PB)>
-4.311

> <W(SA)>
2.148

> <Valence>
18.607

> <Coulomb>
-8.339

> <VdW>
3.028

> <VdW6>
-12.271

> <VdW12>
15.299

> <Bond>
0.423

> <Angle>
4.488

> <Pdih>
13.696

> <Idih>
0.000

> <Tether>
0.000

$$$$
VeraChem MOL file


 25 25  0  0  0  0  0  0  0  0999 V2000     
   21.3334   20.0089   24.2357 C   0  0  0  0  0  0  0  0  0  0  0  0
   22.2013   19.4120   23.9280 H   0  0  0  0  0  0  0  0  0  0  0  0
   21.6827   20.5828   25.1050 H   0  0  0  0  0  0  0  0  0  0  0  0
   20.9601   21.0143   23.1179 C   0  0  0  0  0  0  0  0  0  0  0  0
   19.9239   21.3593   23.2340 H   0  0  0  0  0  0  0  0  0  0  0  0
   21.5824   21.9067   23.2715 H   0  0  0  0  0  0  0  0  0  0  0  0
   21.2291   20.5222   21.6684 C   0  0  0  0  0  0  0  0  0  0  0  0
   22.1485   19.9239   21.6166 H   0  0  0  0  0  0  0  0  0  0  0  0
   21.4301   21.4162   21.0621 H   0  0  0  0  0  0  0  0  0  0  0  0
   20.0479   19.7785   20.9924 C   0  0  0  0  0  0  0  0  0  0  0  0
   19.0949   20.1993   21.3359 H   0  0  0  0  0  0  0  0  0  0  0  0
   20.0835   19.9997   19.9177 H   0  0  0  0  0  0  0  0  0  0  0  0
   20.0409   18.2345   21.1249 C   0  0  0  0  0  0  0  0  0  0  0  0
   20.8588   17.8398   20.5050 H   0  0  0  0  0  0  0  0  0  0  0  0
   20.2315   17.6685   22.5523 C   0  0  0  0  0  0  0  0  0  0  0  0
   19.9967   16.5963   22.5374 H   0  0  0  0  0  0  0  0  0  0  0  0
   21.2946   17.7109   22.8125 H   0  0  0  0  0  0  0  0  0  0  0  0
   19.3668   18.3531   23.6437 C   0  0  0  0  0  0  0  0  0  0  0  0
   18.7498   17.5893   24.1359 H   0  0  0  0  0  0  0  0  0  0  0  0
   18.6463   19.0466   23.1943 H   0  0  0  0  0  0  0  0  0  0  0  0
   20.1855   19.0898   24.7313 C   0  0  0  0  0  0  0  0  0  0  0  0
   20.6156   18.3442   25.4138 H   0  0  0  0  0  0  0  0  0  0  0  0
   19.4911   19.6855   25.3392 H   0  0  0  0  0  0  0  0  0  0  0  0
   18.8020   17.7599   20.6110 O   0  0  0  0  0  0  0  0  0  0  0  0
   18.8132   16.7851   20.7045 H   0  0  0  0  0  0  0  0  0  0  0  0
  1  2  1  0  0  0  0
  1  3  1  0  0  0  0
  1  4  1  0  0  0  0
  4  5  1  0  0  0  0
  4  6  1  0  0  0  0
  4  7  1  0  0  0  0
  7  8  1  0  0  0  0
  7  9  1  0  0  0  0
  7 10  1  0  0  0  0
 10 11  1  0  0  0  0
 10 12  1  0  0  0  0
 10 13  1  0  0  0  0
 13 14  1  0  0  0  0
 13 15  1  0  0  0  0
 15 16  1  0  0  0  0
 15 17  1  0  0  0  0
 15 18  1  0  0  0  0
 18 19  1  0  0  0  0
 18 20  1  0  0  0  0
  1 21  1  0  0  0  0
 18 21  1  0  0  0  0
 21 22  1  0  0  0  0
 21 23  1  0  0  0  0
 13 24  1  0  0  0  0
 24 25  1  0  0  0  0
M  END
> <VConfSearch Rank>
231

> <Conf_Id>
155

> <Delta U+W>
0.339

> <U+W>
11.252

> <U>
13.420

> <W>
-2.167

> <W(PB)>
-4.325

> <W(SA)>
2.157

> <Valence>
18.609

> <Coulomb>
-8.052

> <VdW>
2.863

> <VdW6>
-12.524

> <VdW12>
15.387

> <Bond>
0.430

> <Angle>
4.724

> <Pdih>
13.455

> <Idih>
0.000

> <Tether>
0.000

$$$$
VeraChem MOL file


 25 25  0  0  0  0  0  0  0  0999 V2000     
   19.6397   20.6907   23.8421 C   0  0  0  0  0  0  0  0  0  0  0  0
   19.8569   21.7047   23.4801 H   0  0  0  0  0  0  0  0  0  0  0  0
   19.0601   20.8278   24.7651 H   0  0  0  0  0  0  0  0  0  0  0  0
   18.7097   19.9743   22.8279 C   0  0  0  0  0  0  0  0  0  0  0  0
   18.3982   19.0100   23.2417 H   0  0  0  0  0  0  0  0  0  0  0  0
   17.7730   20.5458   22.7755 H   0  0  0  0  0  0  0  0  0  0  0  0
   19.2267   19.8095   21.3689 C   0  0  0  0  0  0  0  0  0  0  0  0
   18.9667   20.7261   20.8223 H   0  0  0  0  0  0  0  0  0  0  0  0
   18.6608   19.0051   20.8794 H   0  0  0  0  0  0  0  0  0  0  0  0
   20.7453   19.5673   21.1523 C   0  0  0  0  0  0  0  0  0  0  0  0
   20.9350   19.6196   20.0723 H   0  0  0  0  0  0  0  0  0  0  0  0
   21.3048   20.4211   21.5443 H   0  0  0  0  0  0  0  0  0  0  0  0
   21.3546   18.2346   21.6788 C   0  0  0  0  0  0  0  0  0  0  0  0
   22.4316   18.3955   21.8300 H   0  0  0  0  0  0  0  0  0  0  0  0
   20.7730   17.6449   22.9882 C   0  0  0  0  0  0  0  0  0  0  0  0
   19.7134   17.4183   22.8382 H   0  0  0  0  0  0  0  0  0  0  0  0
   21.2302   16.6577   23.1369 H   0  0  0  0  0  0  0  0  0  0  0  0
   20.9872   18.4471   24.3068 C   0  0  0  0  0  0  0  0  0  0  0  0
   21.9629   18.1520   24.7164 H   0  0  0  0  0  0  0  0  0  0  0  0
   20.2469   18.1164   25.0478 H   0  0  0  0  0  0  0  0  0  0  0  0
   20.9776   19.9966   24.2324 C   0  0  0  0  0  0  0  0  0  0  0  0
   21.7944   20.3345   23.5870 H   0  0  0  0  0  0  0  0  0  0  0  0
   21.2604   20.3774   25.2233 H   0  0  0  0  0  0  0  0  0  0  0  0
   21.1826   17.2473   20.6680 O   0  0  0  0  0  0  0  0  0  0  0  0
   21.5969   17.6006   19.8539 H   0  0  0  0  0  0  0  0  0  0  0  0
  1  2  1  0  0  0  0
  1  3  1  0  0  0  0
  1  4  1  0  0  0  0
  4  5  1  0  0  0  0
  4  6  1  0  0  0  0
  4  7  1  0  0  0  0
  7  8  1  0  0  0  0
  7  9  1  0  0  0  0
  7 10  1  0  0  0  0
 10 11  1  0  0  0  0
 10 12  1  0  0  0  0
 10 13  1  0  0  0  0
 13 14  1  0  0  0  0
 13 15  1  0  0  0  0
 15 16  1  0  0  0  0
 15 17  1  0  0  0  0
 15 18  1  0  0  0  0
 18 19  1  0  0  0  0
 18 20  1  0  0  0  0
  1 21  1  0  0  0  0
 18 21  1  0  0  0  0
 21 22  1  0  0  0  0
 21 23  1  0  0  0  0
 13 24  1  0  0  0  0
 24 25  1  0  0  0  0
M  END
> <VConfSearch Rank>
232

> <Conf_Id>
146

> <Delta U+W>
2.553

> <U+W>
13.466

> <U>
15.643

> <W>
-2.176

> <W(PB)>
-4.307

> <W(SA)>
2.131

> <Valence>
18.916

> <Coulomb>
-7.506

> <VdW>
4.232

> <VdW6>
-13.632

> <VdW12>
17.864

> <Bond>
0.735

> <Angle>
9.140

> <Pdih>
9.042

> <Idih>
0.000

> <Tether>
0.000

$$$$
VeraChem MOL file


 25 25  0  0  0  0  0  0  0  0999 V2000     
   21.1230   21.0964   22.1708 C   0  0  0  0  0  0  0  0  0  0  0  0
   21.9189   21.5715   22.7601 H   0  0  0  0  0  0  0  0  0  0  0  0
   20.9044   21.7947   21.3513 H   0  0  0  0  0  0  0  0  0  0  0  0
   19.8432   20.9844   23.0365 C   0  0  0  0  0  0  0  0  0  0  0  0
   19.5479   22.0052   23.3150 H   0  0  0  0  0  0  0  0  0  0  0  0
   19.0072   20.6104   22.4345 H   0  0  0  0  0  0  0  0  0  0  0  0
   19.9757   20.1705   24.3481 C   0  0  0  0  0  0  0  0  0  0  0  0
   19.0332   20.2801   24.9019 H   0  0  0  0  0  0  0  0  0  0  0  0
   20.7483   20.6263   24.9820 H   0  0  0  0  0  0  0  0  0  0  0  0
   20.2697   18.6540   24.2079 C   0  0  0  0  0  0  0  0  0  0  0  0
   21.3395   18.4873   24.0472 H   0  0  0  0  0  0  0  0  0  0  0  0
   20.0641   18.1939   25.1838 H   0  0  0  0  0  0  0  0  0  0  0  0
   19.4443   17.9215   23.1188 C   0  0  0  0  0  0  0  0  0  0  0  0
   18.5500   18.5109   22.8758 H   0  0  0  0  0  0  0  0  0  0  0  0
   20.2329   17.6254   21.8179 C   0  0  0  0  0  0  0  0  0  0  0  0
   21.1432   17.0646   22.0679 H   0  0  0  0  0  0  0  0  0  0  0  0
   19.6274   16.9483   21.2012 H   0  0  0  0  0  0  0  0  0  0  0  0
   20.6083   18.8443   20.9319 C   0  0  0  0  0  0  0  0  0  0  0  0
   19.7105   19.4013   20.6345 H   0  0  0  0  0  0  0  0  0  0  0  0
   21.0207   18.4446   19.9953 H   0  0  0  0  0  0  0  0  0  0  0  0
   21.6743   19.7899   21.5436 C   0  0  0  0  0  0  0  0  0  0  0  0
   22.3686   20.0840   20.7445 H   0  0  0  0  0  0  0  0  0  0  0  0
   22.3002   19.2501   22.2630 H   0  0  0  0  0  0  0  0  0  0  0  0
   19.0215   16.6711   23.6510 O   0  0  0  0  0  0  0  0  0  0  0  0
   18.4541   16.2512   22.9713 H   0  0  0  0  0  0  0  0  0  0  0  0
  1  2  1  0  0  0  0
  1  3  1  0  0  0  0
  1  4  1  0  0  0  0
  4  5  1  0  0  0  0
  4  6  1  0  0  0  0
  4  7  1  0  0  0  0
  7  8  1  0  0  0  0
  7  9  1  0  0  0  0
  7 10  1  0  0  0  0
 10 11  1  0  0  0  0
 10 12  1  0  0  0  0
 10 13  1  0  0  0  0
 13 14  1  0  0  0  0
 13 15  1  0  0  0  0
 15 16  1  0  0  0  0
 15 17  1  0  0  0  0
 15 18  1  0  0  0  0
 18 19  1  0  0  0  0
 18 20  1  0  0  0  0
  1 21  1  0  0  0  0
 18 21  1  0  0  0  0
 21 22  1  0  0  0  0
 21 23  1  0  0  0  0
 13 24  1  0  0  0  0
 24 25  1  0  0  0  0
M  END
> <VConfSearch Rank>
233

> <Conf_Id>
62

> <Delta U+W>
-1.779

> <U+W>
9.134

> <U>
11.364

> <W>
-2.230

> <W(PB)>
-4.359

> <W(SA)>
2.129

> <Valence>
16.582

> <Coulomb>
-8.150

> <VdW>
2.933

> <VdW6>
-12.531

> <VdW12>
15.464

> <Bond>
0.439

> <Angle>
5.099

> <Pdih>
11.044

> <Idih>
0.000

> <Tether>
0.000

$$$$
VeraChem MOL file


 25 25  0  0  0  0  0  0  0  0999 V2000     
   20.8593   17.8236   21.5060 C   0  0  0  0  0  0  0  0  0  0  0  0
   20.7195   17.3220   22.4703 H   0  0  0  0  0  0  0  0  0  0  0  0
   21.1680   17.0231   20.8201 H   0  0  0  0  0  0  0  0  0  0  0  0
   22.0292   18.8357   21.5881 C   0  0  0  0  0  0  0  0  0  0  0  0
   22.9333   18.2722   21.8565 H   0  0  0  0  0  0  0  0  0  0  0  0
   22.2225   19.2487   20.5889 H   0  0  0  0  0  0  0  0  0  0  0  0
   21.8829   20.0044   22.5958 C   0  0  0  0  0  0  0  0  0  0  0  0
   21.2950   20.8189   22.1577 H   0  0  0  0  0  0  0  0  0  0  0  0
   22.8835   20.4348   22.7396 H   0  0  0  0  0  0  0  0  0  0  0  0
   21.3188   19.6130   23.9879 C   0  0  0  0  0  0  0  0  0  0  0  0
   21.4982   18.5524   24.2023 H   0  0  0  0  0  0  0  0  0  0  0  0
   21.9006   20.1625   24.7395 H   0  0  0  0  0  0  0  0  0  0  0  0
   19.8266   19.9670   24.2103 C   0  0  0  0  0  0  0  0  0  0  0  0
   19.6869   21.0327   23.9782 H   0  0  0  0  0  0  0  0  0  0  0  0
   18.7961   19.1558   23.3857 C   0  0  0  0  0  0  0  0  0  0  0  0
   18.9029   18.0828   23.5854 H   0  0  0  0  0  0  0  0  0  0  0  0
   17.8012   19.4222   23.7664 H   0  0  0  0  0  0  0  0  0  0  0  0
   18.8016   19.4459   21.8607 C   0  0  0  0  0  0  0  0  0  0  0  0
   19.2112   20.4425   21.6607 H   0  0  0  0  0  0  0  0  0  0  0  0
   17.7590   19.5040   21.5192 H   0  0  0  0  0  0  0  0  0  0  0  0
   19.5103   18.3801   20.9862 C   0  0  0  0  0  0  0  0  0  0  0  0
   19.6500   18.7845   19.9746 H   0  0  0  0  0  0  0  0  0  0  0  0
   18.8251   17.5288   20.8738 H   0  0  0  0  0  0  0  0  0  0  0  0
   19.5338   19.7571   25.5860 O   0  0  0  0  0  0  0  0  0  0  0  0
   20.1464   20.3269   26.0961 H   0  0  0  0  0  0  0  0  0  0  0  0
  1  2  1  0  0  0  0
  1  3  1  0  0  0  0
  1  4  1  0  0  0  0
  4  5  1  0  0  0  0
  4  6  1  0  0  0  0
  4  7  1  0  0  0  0
  7  8  1  0  0  0  0
  7  9  1  0  0  0  0
  7 10  1  0  0  0  0
 10 11  1  0  0  0  0
 10 12  1  0  0  0  0
 10 13  1  0  0  0  0
 13 14  1  0  0  0  0
 13 15  1  0  0  0  0
 15 16  1  0  0  0  0
 15 17  1  0  0  0  0
 15 18  1  0  0  0  0
 18 19  1  0  0  0  0
 18 20  1  0  0  0  0
  1 21  1  0  0  0  0
 18 21  1  0  0  0  0
 21 22  1  0  0  0  0
 21 23  1  0  0  0  0
 13 24  1  0  0  0  0
 24 25  1  0  0  0  0
M  END
> <VConfSearch Rank>
234

> <Conf_Id>
121

> <Delta U+W>
-1.283

> <U+W>
9.630

> <U>
11.876

> <W>
-2.246

> <W(PB)>
-4.376

> <W(SA)>
2.130

> <Valence>
17.153

> <Coulomb>
-7.966

> <VdW>
2.689

> <VdW6>
-12.458

> <VdW12>
15.147

> <Bond>
0.421

> <Angle>
5.258

> <Pdih>
11.475

> <Idih>
0.000

> <Tether>
0.000

$$$$
VeraChem MOL file


 25 25  0  0  0  0  0  0  0  0999 V2000     
   20.0177   19.6205   20.8679 C   0  0  0  0  0  0  0  0  0  0  0  0
   19.0840   19.1712   21.2248 H   0  0  0  0  0  0  0  0  0  0  0  0
   19.8262   19.8539   19.8117 H   0  0  0  0  0  0  0  0  0  0  0  0
   21.1666   18.5822   20.9086 C   0  0  0  0  0  0  0  0  0  0  0  0
   20.8767   17.7456   20.2582 H   0  0  0  0  0  0  0  0  0  0  0  0
   22.0653   19.0169   20.4503 H   0  0  0  0  0  0  0  0  0  0  0  0
   21.5413   17.9968   22.2942 C   0  0  0  0  0  0  0  0  0  0  0  0
   22.2235   18.6704   22.8250 H   0  0  0  0  0  0  0  0  0  0  0  0
   22.1358   17.0908   22.1130 H   0  0  0  0  0  0  0  0  0  0  0  0
   20.3399   17.6146   23.1997 C   0  0  0  0  0  0  0  0  0  0  0  0
   19.4424   17.4120   22.6028 H   0  0  0  0  0  0  0  0  0  0  0  0
   20.5852   16.6602   23.6842 H   0  0  0  0  0  0  0  0  0  0  0  0
   20.0237   18.6260   24.3297 C   0  0  0  0  0  0  0  0  0  0  0  0
   20.9478   18.8021   24.8989 H   0  0  0  0  0  0  0  0  0  0  0  0
   19.4569   19.9987   23.8870 C   0  0  0  0  0  0  0  0  0  0  0  0
   18.5352   19.8650   23.3075 H   0  0  0  0  0  0  0  0  0  0  0  0
   19.1523   20.5348   24.7953 H   0  0  0  0  0  0  0  0  0  0  0  0
   20.4633   20.9089   23.1334 C   0  0  0  0  0  0  0  0  0  0  0  0
   21.4937   20.6394   23.3916 H   0  0  0  0  0  0  0  0  0  0  0  0
   20.3457   21.9348   23.5086 H   0  0  0  0  0  0  0  0  0  0  0  0
   20.2840   20.9623   21.5946 C   0  0  0  0  0  0  0  0  0  0  0  0
   21.1634   21.4475   21.1500 H   0  0  0  0  0  0  0  0  0  0  0  0
   19.4368   21.6273   21.3782 H   0  0  0  0  0  0  0  0  0  0  0  0
   19.0661   18.0209   25.1896 O   0  0  0  0  0  0  0  0  0  0  0  0
   18.9248   18.6397   25.9361 H   0  0  0  0  0  0  0  0  0  0  0  0
  1  2  1  0  0  0  0
  1  3  1  0  0  0  0
  1  4  1  0  0  0  0
  4  5  1  0  0  0  0
  4  6  1  0  0  0  0
  4  7  1  0  0  0  0
  7  8  1  0  0  0  0
  7  9  1  0  0  0  0
  7 10  1  0  0  0  0
 10 11  1  0  0  0  0
 10 12  1  0  0  0  0
 10 13  1  0  0  0  0
 13 14  1  0  0  0  0
 13 15  1  0  0  0  0
 15 16  1  0  0  0  0
 15 17  1  0  0  0  0
 15 18  1  0  0  0  0
 18 19  1  0  0  0  0
 18 20  1  0  0  0  0
  1 21  1  0  0  0  0
 18 21  1  0  0  0  0
 21 22  1  0  0  0  0
 21 23  1  0  0  0  0
 13 24  1  0  0  0  0
 24 25  1  0  0  0  0
M  END
> <VConfSearch Rank>
235

> <Conf_Id>
24

> <Delta U+W>
-1.236

> <U+W>
9.678

> <U>
11.876

> <W>
-2.199

> <W(PB)>
-4.335

> <W(SA)>
2.137

> <Valence>
17.153

> <Coulomb>
-7.966

> <VdW>
2.689

> <VdW6>
-12.458

> <VdW12>
15.147

> <Bond>
0.421

> <Angle>
5.258

> <Pdih>
11.475

> <Idih>
0.000

> <Tether>
0.000

$$$$
VeraChem MOL file


 25 25  0  0  0  0  0  0  0  0999 V2000     
   20.1565   20.7677   21.1957 C   0  0  0  0  0  0  0  0  0  0  0  0
   20.2310   20.5921   20.1139 H   0  0  0  0  0  0  0  0  0  0  0  0
   20.0929   21.8578   21.3160 H   0  0  0  0  0  0  0  0  0  0  0  0
   18.8297   20.1520   21.7139 C   0  0  0  0  0  0  0  0  0  0  0  0
   18.5614   20.5769   22.6894 H   0  0  0  0  0  0  0  0  0  0  0  0
   18.0345   20.4886   21.0346 H   0  0  0  0  0  0  0  0  0  0  0  0
   18.7774   18.6054   21.7779 C   0  0  0  0  0  0  0  0  0  0  0  0
   19.3531   18.1612   20.9547 H   0  0  0  0  0  0  0  0  0  0  0  0
   17.7342   18.3139   21.5939 H   0  0  0  0  0  0  0  0  0  0  0  0
   19.1839   17.9869   23.1455 C   0  0  0  0  0  0  0  0  0  0  0  0
   18.8414   18.6169   23.9762 H   0  0  0  0  0  0  0  0  0  0  0  0
   18.6266   17.0449   23.2411 H   0  0  0  0  0  0  0  0  0  0  0  0
   20.6903   17.6623   23.2948 C   0  0  0  0  0  0  0  0  0  0  0  0
   21.1010   17.4469   22.2995 H   0  0  0  0  0  0  0  0  0  0  0  0
   21.5430   18.7644   23.9731 C   0  0  0  0  0  0  0  0  0  0  0  0
   21.3093   18.7976   25.0453 H   0  0  0  0  0  0  0  0  0  0  0  0
   22.5958   18.4603   23.9030 H   0  0  0  0  0  0  0  0  0  0  0  0
   21.4112   20.1998   23.4050 C   0  0  0  0  0  0  0  0  0  0  0  0
   22.2296   20.8057   23.8170 H   0  0  0  0  0  0  0  0  0  0  0  0
   20.4970   20.6670   23.7892 H   0  0  0  0  0  0  0  0  0  0  0  0
   21.4666   20.2754   21.8582 C   0  0  0  0  0  0  0  0  0  0  0  0
   21.7581   19.3112   21.4257 H   0  0  0  0  0  0  0  0  0  0  0  0
   22.2720   20.9643   21.5690 H   0  0  0  0  0  0  0  0  0  0  0  0
   20.8182   16.4858   24.0829 O   0  0  0  0  0  0  0  0  0  0  0  0
   20.4282   16.6939   24.9567 H   0  0  0  0  0  0  0  0  0  0  0  0
  1  2  1  0  0  0  0
  1  3  1  0  0  0  0
  1  4  1  0  0  0  0
  4  5  1  0  0  0  0
  4  6  1  0  0  0  0
  4  7  1  0  0  0  0
  7  8  1  0  0  0  0
  7  9  1  0  0  0  0
  7 10  1  0  0  0  0
 10 11  1  0  0  0  0
 10 12  1  0  0  0  0
 10 13  1  0  0  0  0
 13 14  1  0  0  0  0
 13 15  1  0  0  0  0
 15 16  1  0  0  0  0
 15 17  1  0  0  0  0
 15 18  1  0  0  0  0
 18 19  1  0  0  0  0
 18 20  1  0  0  0  0
  1 21  1  0  0  0  0
 18 21  1  0  0  0  0
 21 22  1  0  0  0  0
 21 23  1  0  0  0  0
 13 24  1  0  0  0  0
 24 25  1  0  0  0  0
M  END
> <VConfSearch Rank>
236

> <Conf_Id>
167

> <Delta U+W>
0.388

> <U+W>
11.301

> <U>
13.202

> <W>
-1.901

> <W(PB)>
-4.065

> <W(SA)>
2.163

> <Valence>
18.957

> <Coulomb>
-8.753

> <VdW>
2.998

> <VdW6>
-12.294

> <VdW12>
15.292

> <Bond>
0.419

> <Angle>
4.543

> <Pdih>
13.996

> <Idih>
0.000

> <Tether>
0.000

$$$$
VeraChem MOL file


 25 25  0  0  0  0  0  0  0  0999 V2000     
   18.8951   17.8064   22.1895 C   0  0  0  0  0  0  0  0  0  0  0  0
   18.5402   17.6682   21.1593 H   0  0  0  0  0  0  0  0  0  0  0  0
   18.3725   17.0468   22.7869 H   0  0  0  0  0  0  0  0  0  0  0  0
   18.4391   19.1999   22.6951 C   0  0  0  0  0  0  0  0  0  0  0  0
   18.5511   19.9527   21.9068 H   0  0  0  0  0  0  0  0  0  0  0  0
   17.3551   19.1419   22.8644 H   0  0  0  0  0  0  0  0  0  0  0  0
   19.1063   19.6838   24.0087 C   0  0  0  0  0  0  0  0  0  0  0  0
   19.4473   18.8344   24.6144 H   0  0  0  0  0  0  0  0  0  0  0  0
   18.3299   20.1732   24.6125 H   0  0  0  0  0  0  0  0  0  0  0  0
   20.2494   20.7177   23.8170 C   0  0  0  0  0  0  0  0  0  0  0  0
   19.8734   21.5755   23.2442 H   0  0  0  0  0  0  0  0  0  0  0  0
   20.5062   21.1136   24.8085 H   0  0  0  0  0  0  0  0  0  0  0  0
   21.5565   20.2027   23.1645 C   0  0  0  0  0  0  0  0  0  0  0  0
   21.9131   19.3246   23.7194 H   0  0  0  0  0  0  0  0  0  0  0  0
   21.4178   19.8524   21.6602 C   0  0  0  0  0  0  0  0  0  0  0  0
   20.5604   20.3785   21.2286 H   0  0  0  0  0  0  0  0  0  0  0  0
   22.2832   20.2467   21.1111 H   0  0  0  0  0  0  0  0  0  0  0  0
   21.3294   18.3364   21.3460 C   0  0  0  0  0  0  0  0  0  0  0  0
   22.3428   17.9176   21.4148 H   0  0  0  0  0  0  0  0  0  0  0  0
   21.0242   18.2068   20.2988 H   0  0  0  0  0  0  0  0  0  0  0  0
   20.4093   17.4844   22.2561 C   0  0  0  0  0  0  0  0  0  0  0  0
   20.7595   17.5141   23.2942 H   0  0  0  0  0  0  0  0  0  0  0  0
   20.5327   16.4357   21.9532 H   0  0  0  0  0  0  0  0  0  0  0  0
   22.5287   21.2333   23.2937 O   0  0  0  0  0  0  0  0  0  0  0  0
   23.3688   20.8725   22.9409 H   0  0  0  0  0  0  0  0  0  0  0  0
  1  2  1  0  0  0  0
  1  3  1  0  0  0  0
  1  4  1  0  0  0  0
  4  5  1  0  0  0  0
  4  6  1  0  0  0  0
  4  7  1  0  0  0  0
  7  8  1  0  0  0  0
  7  9  1  0  0  0  0
  7 10  1  0  0  0  0
 10 11  1  0  0  0  0
 10 12  1  0  0  0  0
 10 13  1  0  0  0  0
 13 14  1  0  0  0  0
 13 15  1  0  0  0  0
 15 16  1  0  0  0  0
 15 17  1  0  0  0  0
 15 18  1  0  0  0  0
 18 19  1  0  0  0  0
 18 20  1  0  0  0  0
  1 21  1  0  0  0  0
 18 21  1  0  0  0  0
 21 22  1  0  0  0  0
 21 23  1  0  0  0  0
 13 24  1  0  0  0  0
 24 25  1  0  0  0  0
M  END
> <VConfSearch Rank>
237

> <Conf_Id>
60

> <Delta U+W>
-1.838

> <U+W>
9.075

> <U>
11.150

> <W>
-2.074

> <W(PB)>
-4.196

> <W(SA)>
2.121

> <Valence>
16.582

> <Coulomb>
-8.361

> <VdW>
2.928

> <VdW6>
-12.539

> <VdW12>
15.467

> <Bond>
0.441

> <Angle>
5.093

> <Pdih>
11.049

> <Idih>
0.000

> <Tether>
0.000

$$$$
VeraChem MOL file


 25 25  0  0  0  0  0  0  0  0999 V2000     
   19.4580   20.2136   21.0866 C   0  0  0  0  0  0  0  0  0  0  0  0
   19.3568   19.7574   20.0925 H   0  0  0  0  0  0  0  0  0  0  0  0
   19.0517   21.2296   20.9886 H   0  0  0  0  0  0  0  0  0  0  0  0
   20.9613   20.3493   21.4362 C   0  0  0  0  0  0  0  0  0  0  0  0
   21.4149   20.9999   20.6760 H   0  0  0  0  0  0  0  0  0  0  0  0
   21.0853   20.8976   22.3771 H   0  0  0  0  0  0  0  0  0  0  0  0
   21.7785   19.0331   21.4608 C   0  0  0  0  0  0  0  0  0  0  0  0
   22.8340   19.3013   21.6053 H   0  0  0  0  0  0  0  0  0  0  0  0
   21.7253   18.5549   20.4734 H   0  0  0  0  0  0  0  0  0  0  0  0
   21.3986   17.9918   22.5453 C   0  0  0  0  0  0  0  0  0  0  0  0
   20.5313   17.4077   22.2212 H   0  0  0  0  0  0  0  0  0  0  0  0
   22.2165   17.2605   22.5923 H   0  0  0  0  0  0  0  0  0  0  0  0
   21.1481   18.5791   23.9584 C   0  0  0  0  0  0  0  0  0  0  0  0
   21.6122   19.5714   24.0363 H   0  0  0  0  0  0  0  0  0  0  0  0
   19.6512   18.6885   24.3416 C   0  0  0  0  0  0  0  0  0  0  0  0
   19.1777   17.7040   24.2329 H   0  0  0  0  0  0  0  0  0  0  0  0
   19.5985   18.9255   25.4125 H   0  0  0  0  0  0  0  0  0  0  0  0
   18.8095   19.7526   23.5858 C   0  0  0  0  0  0  0  0  0  0  0  0
   19.2415   20.7535   23.7140 H   0  0  0  0  0  0  0  0  0  0  0  0
   17.8301   19.7974   24.0814 H   0  0  0  0  0  0  0  0  0  0  0  0
   18.5597   19.4410   22.0873 C   0  0  0  0  0  0  0  0  0  0  0  0
   17.5186   19.7026   21.8536 H   0  0  0  0  0  0  0  0  0  0  0  0
   18.6163   18.3621   21.9043 H   0  0  0  0  0  0  0  0  0  0  0  0
   21.7678   17.7242   24.9120 O   0  0  0  0  0  0  0  0  0  0  0  0
   22.7251   17.7170   24.7022 H   0  0  0  0  0  0  0  0  0  0  0  0
  1  2  1  0  0  0  0
  1  3  1  0  0  0  0
  1  4  1  0  0  0  0
  4  5  1  0  0  0  0
  4  6  1  0  0  0  0
  4  7  1  0  0  0  0
  7  8  1  0  0  0  0
  7  9  1  0  0  0  0
  7 10  1  0  0  0  0
 10 11  1  0  0  0  0
 10 12  1  0  0  0  0
 10 13  1  0  0  0  0
 13 14  1  0  0  0  0
 13 15  1  0  0  0  0
 15 16  1  0  0  0  0
 15 17  1  0  0  0  0
 15 18  1  0  0  0  0
 18 19  1  0  0  0  0
 18 20  1  0  0  0  0
  1 21  1  0  0  0  0
 18 21  1  0  0  0  0
 21 22  1  0  0  0  0
 21 23  1  0  0  0  0
 13 24  1  0  0  0  0
 24 25  1  0  0  0  0
M  END
> <VConfSearch Rank>
238

> <Conf_Id>
129

> <Delta U+W>
-1.846

> <U+W>
9.067

> <U>
11.150

> <W>
-2.083

> <W(PB)>
-4.217

> <W(SA)>
2.134

> <Valence>
16.583

> <Coulomb>
-8.361

> <VdW>
2.928

> <VdW6>
-12.539

> <VdW12>
15.467

> <Bond>
0.441

> <Angle>
5.093

> <Pdih>
11.049

> <Idih>
0.000

> <Tether>
0.000

$$$$
VeraChem MOL file


 25 25  0  0  0  0  0  0  0  0999 V2000     
   19.1525   20.7846   21.9008 C   0  0  0  0  0  0  0  0  0  0  0  0
   18.0863   20.8865   22.1443 H   0  0  0  0  0  0  0  0  0  0  0  0
   19.3920   21.6409   21.2557 H   0  0  0  0  0  0  0  0  0  0  0  0
   19.3649   19.4999   21.0613 C   0  0  0  0  0  0  0  0  0  0  0  0
   18.7781   19.6126   20.1394 H   0  0  0  0  0  0  0  0  0  0  0  0
   20.4043   19.4350   20.7198 H   0  0  0  0  0  0  0  0  0  0  0  0
   18.9265   18.1704   21.7250 C   0  0  0  0  0  0  0  0  0  0  0  0
   19.0291   17.3762   20.9729 H   0  0  0  0  0  0  0  0  0  0  0  0
   17.8552   18.2191   21.9624 H   0  0  0  0  0  0  0  0  0  0  0  0
   19.7035   17.7270   22.9919 C   0  0  0  0  0  0  0  0  0  0  0  0
   19.3163   18.2475   23.8738 H   0  0  0  0  0  0  0  0  0  0  0  0
   19.4580   16.6703   23.1638 H   0  0  0  0  0  0  0  0  0  0  0  0
   21.2436   17.8866   22.9067 C   0  0  0  0  0  0  0  0  0  0  0  0
   21.5516   17.9488   21.8545 H   0  0  0  0  0  0  0  0  0  0  0  0
   21.8004   19.1115   23.6752 C   0  0  0  0  0  0  0  0  0  0  0  0
   21.4690   19.0684   24.7209 H   0  0  0  0  0  0  0  0  0  0  0  0
   22.8942   19.0173   23.7050 H   0  0  0  0  0  0  0  0  0  0  0  0
   21.4711   20.5130   23.0935 C   0  0  0  0  0  0  0  0  0  0  0  0
   21.8304   20.6001   22.0600 H   0  0  0  0  0  0  0  0  0  0  0  0
   22.0607   21.2435   23.6641 H   0  0  0  0  0  0  0  0  0  0  0  0
   19.9813   20.9286   23.2034 C   0  0  0  0  0  0  0  0  0  0  0  0
   19.9427   21.9874   23.4944 H   0  0  0  0  0  0  0  0  0  0  0  0
   19.4944   20.4011   24.0313 H   0  0  0  0  0  0  0  0  0  0  0  0
   21.8423   16.7266   23.4709 O   0  0  0  0  0  0  0  0  0  0  0  0
   21.5570   16.6956   24.4071 H   0  0  0  0  0  0  0  0  0  0  0  0
  1  2  1  0  0  0  0
  1  3  1  0  0  0  0
  1  4  1  0  0  0  0
  4  5  1  0  0  0  0
  4  6  1  0  0  0  0
  4  7  1  0  0  0  0
  7  8  1  0  0  0  0
  7  9  1  0  0  0  0
  7 10  1  0  0  0  0
 10 11  1  0  0  0  0
 10 12  1  0  0  0  0
 10 13  1  0  0  0  0
 13 14  1  0  0  0  0
 13 15  1  0  0  0  0
 15 16  1  0  0  0  0
 15 17  1  0  0  0  0
 15 18  1  0  0  0  0
 18 19  1  0  0  0  0
 18 20  1  0  0  0  0
  1 21  1  0  0  0  0
 18 21  1  0  0  0  0
 21 22  1  0  0  0  0
 21 23  1  0  0  0  0
 13 24  1  0  0  0  0
 24 25  1  0  0  0  0
M  END
> <VConfSearch Rank>
239

> <Conf_Id>
140

> <Delta U+W>
-1.702

> <U+W>
9.211

> <U>
11.181

> <W>
-1.969

> <W(PB)>
-4.093

> <W(SA)>
2.124

> <Valence>
16.954

> <Coulomb>
-8.661

> <VdW>
2.887

> <VdW6>
-12.561

> <VdW12>
15.448

> <Bond>
0.433

> <Angle>
5.120

> <Pdih>
11.401

> <Idih>
0.000

> <Tether>
0.000

$$$$
VeraChem MOL file


 25 25  0  0  0  0  0  0  0  0999 V2000     
   20.7767   17.9232   24.2074 C   0  0  0  0  0  0  0  0  0  0  0  0
   21.5150   18.2262   24.9621 H   0  0  0  0  0  0  0  0  0  0  0  0
   20.4553   16.9132   24.4963 H   0  0  0  0  0  0  0  0  0  0  0  0
   21.4805   17.8186   22.8297 C   0  0  0  0  0  0  0  0  0  0  0  0
   22.1848   18.6466   22.6919 H   0  0  0  0  0  0  0  0  0  0  0  0
   22.1154   16.9224   22.8595 H   0  0  0  0  0  0  0  0  0  0  0  0
   20.5346   17.6985   21.6068 C   0  0  0  0  0  0  0  0  0  0  0  0
   19.5664   17.2702   21.8966 H   0  0  0  0  0  0  0  0  0  0  0  0
   20.9770   16.9660   20.9179 H   0  0  0  0  0  0  0  0  0  0  0  0
   20.3376   19.0134   20.8048 C   0  0  0  0  0  0  0  0  0  0  0  0
   21.3183   19.3949   20.4919 H   0  0  0  0  0  0  0  0  0  0  0  0
   19.8083   18.7561   19.8775 H   0  0  0  0  0  0  0  0  0  0  0  0
   19.5420   20.1456   21.5019 C   0  0  0  0  0  0  0  0  0  0  0  0
   18.5742   19.7524   21.8405 H   0  0  0  0  0  0  0  0  0  0  0  0
   20.2837   20.8054   22.6932 C   0  0  0  0  0  0  0  0  0  0  0  0
   21.3634   20.6495   22.6012 H   0  0  0  0  0  0  0  0  0  0  0  0
   20.1556   21.8951   22.6406 H   0  0  0  0  0  0  0  0  0  0  0  0
   19.7966   20.3611   24.0970 C   0  0  0  0  0  0  0  0  0  0  0  0
   18.8570   20.8894   24.3094 H   0  0  0  0  0  0  0  0  0  0  0  0
   20.5133   20.7133   24.8512 H   0  0  0  0  0  0  0  0  0  0  0  0
   19.5373   18.8478   24.3044 C   0  0  0  0  0  0  0  0  0  0  0  0
   18.7465   18.4973   23.6314 H   0  0  0  0  0  0  0  0  0  0  0  0
   19.1171   18.7245   25.3118 H   0  0  0  0  0  0  0  0  0  0  0  0
   19.2905   21.1479   20.5251 O   0  0  0  0  0  0  0  0  0  0  0  0
   20.1658   21.4790   20.2367 H   0  0  0  0  0  0  0  0  0  0  0  0
  1  2  1  0  0  0  0
  1  3  1  0  0  0  0
  1  4  1  0  0  0  0
  4  5  1  0  0  0  0
  4  6  1  0  0  0  0
  4  7  1  0  0  0  0
  7  8  1  0  0  0  0
  7  9  1  0  0  0  0
  7 10  1  0  0  0  0
 10 11  1  0  0  0  0
 10 12  1  0  0  0  0
 10 13  1  0  0  0  0
 13 14  1  0  0  0  0
 13 15  1  0  0  0  0
 15 16  1  0  0  0  0
 15 17  1  0  0  0  0
 15 18  1  0  0  0  0
 18 19  1  0  0  0  0
 18 20  1  0  0  0  0
  1 21  1  0  0  0  0
 18 21  1  0  0  0  0
 21 22  1  0  0  0  0
 21 23  1  0  0  0  0
 13 24  1  0  0  0  0
 24 25  1  0  0  0  0
M  END
> <VConfSearch Rank>
240

> <Conf_Id>
68

> <Delta U+W>
-1.765

> <U+W>
9.148

> <U>
11.181

> <W>
-2.032

> <W(PB)>
-4.147

> <W(SA)>
2.114

> <Valence>
16.955

> <Coulomb>
-8.661

> <VdW>
2.887

> <VdW6>
-12.561

> <VdW12>
15.448

> <Bond>
0.433

> <Angle>
5.121

> <Pdih>
11.402

> <Idih>
0.000

> <Tether>
0.000

$$$$
VeraChem MOL file


 25 25  0  0  0  0  0  0  0  0999 V2000     
   18.9688   18.9960   24.0115 C   0  0  0  0  0  0  0  0  0  0  0  0
   18.2053   18.9998   24.8016 H   0  0  0  0  0  0  0  0  0  0  0  0
   19.4483   18.0148   24.1024 H   0  0  0  0  0  0  0  0  0  0  0  0
   19.9828   20.1290   24.3171 C   0  0  0  0  0  0  0  0  0  0  0  0
   19.7246   21.0480   23.7754 H   0  0  0  0  0  0  0  0  0  0  0  0
   19.8801   20.3859   25.3804 H   0  0  0  0  0  0  0  0  0  0  0  0
   21.4696   19.7523   24.0846 C   0  0  0  0  0  0  0  0  0  0  0  0
   21.7155   18.8584   24.6742 H   0  0  0  0  0  0  0  0  0  0  0  0
   22.0874   20.5592   24.5020 H   0  0  0  0  0  0  0  0  0  0  0  0
   21.9108   19.5331   22.6129 C   0  0  0  0  0  0  0  0  0  0  0  0
   21.7004   20.4275   22.0142 H   0  0  0  0  0  0  0  0  0  0  0  0
   23.0055   19.4428   22.6213 H   0  0  0  0  0  0  0  0  0  0  0  0
   21.3153   18.2665   21.9451 C   0  0  0  0  0  0  0  0  0  0  0  0
   20.9753   17.5769   22.7264 H   0  0  0  0  0  0  0  0  0  0  0  0
   20.1481   18.5380   20.9644 C   0  0  0  0  0  0  0  0  0  0  0  0
   20.5656   18.9169   20.0222 H   0  0  0  0  0  0  0  0  0  0  0  0
   19.6723   17.5798   20.7184 H   0  0  0  0  0  0  0  0  0  0  0  0
   19.0567   19.5396   21.4225 C   0  0  0  0  0  0  0  0  0  0  0  0
   18.3583   19.6680   20.5843 H   0  0  0  0  0  0  0  0  0  0  0  0
   19.4897   20.5347   21.5763 H   0  0  0  0  0  0  0  0  0  0  0  0
   18.2220   19.1189   22.6579 C   0  0  0  0  0  0  0  0  0  0  0  0
   17.7109   18.1701   22.4454 H   0  0  0  0  0  0  0  0  0  0  0  0
   17.4238   19.8635   22.7829 H   0  0  0  0  0  0  0  0  0  0  0  0
   22.3453   17.6136   21.2133 O   0  0  0  0  0  0  0  0  0  0  0  0
   22.6480   18.2498   20.5332 H   0  0  0  0  0  0  0  0  0  0  0  0
  1  2  1  0  0  0  0
  1  3  1  0  0  0  0
  1  4  1  0  0  0  0
  4  5  1  0  0  0  0
  4  6  1  0  0  0  0
  4  7  1  0  0  0  0
  7  8  1  0  0  0  0
  7  9  1  0  0  0  0
  7 10  1  0  0  0  0
 10 11  1  0  0  0  0
 10 12  1  0  0  0  0
 10 13  1  0  0  0  0
 13 14  1  0  0  0  0
 13 15  1  0  0  0  0
 15 16  1  0  0  0  0
 15 17  1  0  0  0  0
 15 18  1  0  0  0  0
 18 19  1  0  0  0  0
 18 20  1  0  0  0  0
  1 21  1  0  0  0  0
 18 21  1  0  0  0  0
 21 22  1  0  0  0  0
 21 23  1  0  0  0  0
 13 24  1  0  0  0  0
 24 25  1  0  0  0  0
M  END
> <VConfSearch Rank>
241

> <Conf_Id>
165

> <Delta U+W>
-1.999

> <U+W>
8.915

> <U>
10.935

> <W>
-2.020

> <W(PB)>
-4.135

> <W(SA)>
2.115

> <Valence>
16.757

> <Coulomb>
-8.731

> <VdW>
2.908

> <VdW6>
-12.597

> <VdW12>
15.506

> <Bond>
0.434

> <Angle>
5.069

> <Pdih>
11.254

> <Idih>
0.000

> <Tether>
0.000

$$$$
VeraChem MOL file


 25 25  0  0  0  0  0  0  0  0999 V2000     
   18.5043   18.9171   22.4506 C   0  0  0  0  0  0  0  0  0  0  0  0
   17.4379   18.7617   22.2367 H   0  0  0  0  0  0  0  0  0  0  0  0
   18.5834   18.7952   23.5367 H   0  0  0  0  0  0  0  0  0  0  0  0
   18.8431   20.3723   22.0348 C   0  0  0  0  0  0  0  0  0  0  0  0
   18.3370   20.5735   21.0806 H   0  0  0  0  0  0  0  0  0  0  0  0
   18.3934   21.0643   22.7597 H   0  0  0  0  0  0  0  0  0  0  0  0
   20.3395   20.7271   21.8471 C   0  0  0  0  0  0  0  0  0  0  0  0
   20.3865   21.7550   21.4625 H   0  0  0  0  0  0  0  0  0  0  0  0
   20.7793   20.1144   21.0518 H   0  0  0  0  0  0  0  0  0  0  0  0
   21.2184   20.6712   23.1232 C   0  0  0  0  0  0  0  0  0  0  0  0
   22.2137   21.0495   22.8536 H   0  0  0  0  0  0  0  0  0  0  0  0
   20.8162   21.3765   23.8618 H   0  0  0  0  0  0  0  0  0  0  0  0
   21.3934   19.2900   23.8009 C   0  0  0  0  0  0  0  0  0  0  0  0
   20.4916   19.0532   24.3777 H   0  0  0  0  0  0  0  0  0  0  0  0
   21.6864   18.1228   22.8232 C   0  0  0  0  0  0  0  0  0  0  0  0
   22.1115   18.4973   21.8845 H   0  0  0  0  0  0  0  0  0  0  0  0
   22.4723   17.4925   23.2611 H   0  0  0  0  0  0  0  0  0  0  0  0
   20.4722   17.1986   22.5396 C   0  0  0  0  0  0  0  0  0  0  0  0
   20.0822   16.8101   23.4904 H   0  0  0  0  0  0  0  0  0  0  0  0
   20.8414   16.3206   21.9923 H   0  0  0  0  0  0  0  0  0  0  0  0
   19.3077   17.8112   21.7177 C   0  0  0  0  0  0  0  0  0  0  0  0
   18.6110   16.9928   21.4903 H   0  0  0  0  0  0  0  0  0  0  0  0
   19.6636   18.1625   20.7407 H   0  0  0  0  0  0  0  0  0  0  0  0
   22.4797   19.3982   24.7141 O   0  0  0  0  0  0  0  0  0  0  0  0
   22.2478   20.1110   25.3454 H   0  0  0  0  0  0  0  0  0  0  0  0
  1  2  1  0  0  0  0
  1  3  1  0  0  0  0
  1  4  1  0  0  0  0
  4  5  1  0  0  0  0
  4  6  1  0  0  0  0
  4  7  1  0  0  0  0
  7  8  1  0  0  0  0
  7  9  1  0  0  0  0
  7 10  1  0  0  0  0
 10 11  1  0  0  0  0
 10 12  1  0  0  0  0
 10 13  1  0  0  0  0
 13 14  1  0  0  0  0
 13 15  1  0  0  0  0
 15 16  1  0  0  0  0
 15 17  1  0  0  0  0
 15 18  1  0  0  0  0
 18 19  1  0  0  0  0
 18 20  1  0  0  0  0
  1 21  1  0  0  0  0
 18 21  1  0  0  0  0
 21 22  1  0  0  0  0
 21 23  1  0  0  0  0
 13 24  1  0  0  0  0
 24 25  1  0  0  0  0
M  END
> <VConfSearch Rank>
242

> <Conf_Id>
133

> <Delta U+W>
-2.139

> <U+W>
8.774

> <U>
10.905

> <W>
-2.131

> <W(PB)>
-4.281

> <W(SA)>
2.150

> <Valence>
16.378

> <Coulomb>
-8.448

> <VdW>
2.976

> <VdW6>
-12.570

> <VdW12>
15.545

> <Bond>
0.439

> <Angle>
5.049

> <Pdih>
10.889

> <Idih>
0.000

> <Tether>
0.000

$$$$
VeraChem MOL file


 25 25  0  0  0  0  0  0  0  0999 V2000     
   19.7777   20.7489   23.5622 C   0  0  0  0  0  0  0  0  0  0  0  0
   19.4155   21.6725   24.0343 H   0  0  0  0  0  0  0  0  0  0  0  0
   20.6142   20.4313   24.1946 H   0  0  0  0  0  0  0  0  0  0  0  0
   20.2753   21.1013   22.1361 C   0  0  0  0  0  0  0  0  0  0  0  0
   19.4890   20.9309   21.3895 H   0  0  0  0  0  0  0  0  0  0  0  0
   20.4639   22.1833   22.1102 H   0  0  0  0  0  0  0  0  0  0  0  0
   21.5946   20.4021   21.7150 C   0  0  0  0  0  0  0  0  0  0  0  0
   22.3780   20.6283   22.4513 H   0  0  0  0  0  0  0  0  0  0  0  0
   21.9315   20.8624   20.7761 H   0  0  0  0  0  0  0  0  0  0  0  0
   21.5292   18.8676   21.4914 C   0  0  0  0  0  0  0  0  0  0  0  0
   20.7740   18.6215   20.7356 H   0  0  0  0  0  0  0  0  0  0  0  0
   22.4875   18.5686   21.0455 H   0  0  0  0  0  0  0  0  0  0  0  0
   21.3095   18.0371   22.7822 C   0  0  0  0  0  0  0  0  0  0  0  0
   21.5838   18.6486   23.6498 H   0  0  0  0  0  0  0  0  0  0  0  0
   19.8680   17.5032   22.9686 C   0  0  0  0  0  0  0  0  0  0  0  0
   19.7330   16.6404   22.3023 H   0  0  0  0  0  0  0  0  0  0  0  0
   19.7664   17.1154   23.9904 H   0  0  0  0  0  0  0  0  0  0  0  0
   18.7059   18.4909   22.6898 C   0  0  0  0  0  0  0  0  0  0  0  0
   17.7674   17.9301   22.7967 H   0  0  0  0  0  0  0  0  0  0  0  0
   18.7183   18.8111   21.6417 H   0  0  0  0  0  0  0  0  0  0  0  0
   18.6181   19.7211   23.6276 C   0  0  0  0  0  0  0  0  0  0  0  0
   18.5020   19.3799   24.6652 H   0  0  0  0  0  0  0  0  0  0  0  0
   17.6872   20.2518   23.3848 H   0  0  0  0  0  0  0  0  0  0  0  0
   22.1797   16.9114   22.7489 O   0  0  0  0  0  0  0  0  0  0  0  0
   22.0526   16.4313   23.5937 H   0  0  0  0  0  0  0  0  0  0  0  0
  1  2  1  0  0  0  0
  1  3  1  0  0  0  0
  1  4  1  0  0  0  0
  4  5  1  0  0  0  0
  4  6  1  0  0  0  0
  4  7  1  0  0  0  0
  7  8  1  0  0  0  0
  7  9  1  0  0  0  0
  7 10  1  0  0  0  0
 10 11  1  0  0  0  0
 10 12  1  0  0  0  0
 10 13  1  0  0  0  0
 13 14  1  0  0  0  0
 13 15  1  0  0  0  0
 15 16  1  0  0  0  0
 15 17  1  0  0  0  0
 15 18  1  0  0  0  0
 18 19  1  0  0  0  0
 18 20  1  0  0  0  0
  1 21  1  0  0  0  0
 18 21  1  0  0  0  0
 21 22  1  0  0  0  0
 21 23  1  0  0  0  0
 13 24  1  0  0  0  0
 24 25  1  0  0  0  0
M  END
> <VConfSearch Rank>
243

> <Conf_Id>
95

> <Delta U+W>
-2.190

> <U+W>
8.723

> <U>
10.905

> <W>
-2.182

> <W(PB)>
-4.296

> <W(SA)>
2.114

> <Valence>
16.377

> <Coulomb>
-8.448

> <VdW>
2.976

> <VdW6>
-12.570

> <VdW12>
15.546

> <Bond>
0.439

> <Angle>
5.049

> <Pdih>
10.889

> <Idih>
0.000

> <Tether>
0.000

$$$$
VeraChem MOL file


 25 25  0  0  0  0  0  0  0  0999 V2000     
   21.4391   19.3980   21.2563 C   0  0  0  0  0  0  0  0  0  0  0  0
   22.1828   19.6179   20.4782 H   0  0  0  0  0  0  0  0  0  0  0  0
   20.6394   18.8911   20.7071 H   0  0  0  0  0  0  0  0  0  0  0  0
   20.9497   20.7653   21.8177 C   0  0  0  0  0  0  0  0  0  0  0  0
   21.8080   21.4509   21.8050 H   0  0  0  0  0  0  0  0  0  0  0  0
   20.2208   21.1972   21.1187 H   0  0  0  0  0  0  0  0  0  0  0  0
   20.3654   20.8013   23.2543 C   0  0  0  0  0  0  0  0  0  0  0  0
   20.1895   21.8537   23.5154 H   0  0  0  0  0  0  0  0  0  0  0  0
   21.1354   20.4866   23.9657 H   0  0  0  0  0  0  0  0  0  0  0  0
   19.0317   20.0368   23.5061 C   0  0  0  0  0  0  0  0  0  0  0  0
   18.9350   19.8367   24.5812 H   0  0  0  0  0  0  0  0  0  0  0  0
   18.2144   20.7265   23.2577 H   0  0  0  0  0  0  0  0  0  0  0  0
   18.7792   18.7241   22.7219 C   0  0  0  0  0  0  0  0  0  0  0  0
   18.8341   18.9520   21.6524 H   0  0  0  0  0  0  0  0  0  0  0  0
   19.7092   17.5196   23.0457 C   0  0  0  0  0  0  0  0  0  0  0  0
   19.2842   16.9865   23.9068 H   0  0  0  0  0  0  0  0  0  0  0  0
   19.6612   16.8124   22.2079 H   0  0  0  0  0  0  0  0  0  0  0  0
   21.1985   17.8029   23.3814 C   0  0  0  0  0  0  0  0  0  0  0  0
   21.6573   16.8514   23.6830 H   0  0  0  0  0  0  0  0  0  0  0  0
   21.2550   18.4128   24.2886 H   0  0  0  0  0  0  0  0  0  0  0  0
   22.0887   18.4031   22.2541 C   0  0  0  0  0  0  0  0  0  0  0  0
   22.4786   17.5642   21.6616 H   0  0  0  0  0  0  0  0  0  0  0  0
   22.9704   18.8732   22.7103 H   0  0  0  0  0  0  0  0  0  0  0  0
   17.4449   18.3141   22.9981 O   0  0  0  0  0  0  0  0  0  0  0  0
   16.8605   19.0536   22.7306 H   0  0  0  0  0  0  0  0  0  0  0  0
  1  2  1  0  0  0  0
  1  3  1  0  0  0  0
  1  4  1  0  0  0  0
  4  5  1  0  0  0  0
  4  6  1  0  0  0  0
  4  7  1  0  0  0  0
  7  8  1  0  0  0  0
  7  9  1  0  0  0  0
  7 10  1  0  0  0  0
 10 11  1  0  0  0  0
 10 12  1  0  0  0  0
 10 13  1  0  0  0  0
 13 14  1  0  0  0  0
 13 15  1  0  0  0  0
 15 16  1  0  0  0  0
 15 17  1  0  0  0  0
 15 18  1  0  0  0  0
 18 19  1  0  0  0  0
 18 20  1  0  0  0  0
  1 21  1  0  0  0  0
 18 21  1  0  0  0  0
 21 22  1  0  0  0  0
 21 23  1  0  0  0  0
 13 24  1  0  0  0  0
 24 25  1  0  0  0  0
M  END
> <VConfSearch Rank>
244

> <Conf_Id>
161

> <Delta U+W>
2.120

> <U+W>
13.033

> <U>
15.076

> <W>
-2.043

> <W(PB)>
-4.186

> <W(SA)>
2.143

> <Valence>
18.884

> <Coulomb>
-8.074

> <VdW>
4.266

> <VdW6>
-13.486

> <VdW12>
17.752

> <Bond>
0.713

> <Angle>
8.955

> <Pdih>
9.215

> <Idih>
0.000

> <Tether>
0.000

$$$$
VeraChem MOL file


 25 25  0  0  0  0  0  0  0  0999 V2000     
   18.7897   19.7086   21.4798 C   0  0  0  0  0  0  0  0  0  0  0  0
   17.8961   20.1661   21.0334 H   0  0  0  0  0  0  0  0  0  0  0  0
   18.9675   18.8041   20.8845 H   0  0  0  0  0  0  0  0  0  0  0  0
   18.4498   19.3215   22.9407 C   0  0  0  0  0  0  0  0  0  0  0  0
   18.6192   20.1688   23.6186 H   0  0  0  0  0  0  0  0  0  0  0  0
   17.3679   19.1331   22.9765 H   0  0  0  0  0  0  0  0  0  0  0  0
   19.1476   18.0350   23.4634 C   0  0  0  0  0  0  0  0  0  0  0  0
   19.2213   17.2752   22.6737 H   0  0  0  0  0  0  0  0  0  0  0  0
   18.4834   17.6003   24.2231 H   0  0  0  0  0  0  0  0  0  0  0  0
   20.5229   18.2572   24.1444 C   0  0  0  0  0  0  0  0  0  0  0  0
   20.5246   19.2170   24.6752 H   0  0  0  0  0  0  0  0  0  0  0  0
   20.6320   17.4988   24.9308 H   0  0  0  0  0  0  0  0  0  0  0  0
   21.7684   18.1266   23.2314 C   0  0  0  0  0  0  0  0  0  0  0  0
   21.8804   17.0663   22.9632 H   0  0  0  0  0  0  0  0  0  0  0  0
   21.7447   18.9373   21.9149 C   0  0  0  0  0  0  0  0  0  0  0  0
   22.7581   18.9357   21.4916 H   0  0  0  0  0  0  0  0  0  0  0  0
   21.1400   18.3996   21.1767 H   0  0  0  0  0  0  0  0  0  0  0  0
   21.2651   20.4064   22.0601 C   0  0  0  0  0  0  0  0  0  0  0  0
   22.0497   21.0736   21.6779 H   0  0  0  0  0  0  0  0  0  0  0  0
   21.1482   20.6839   23.1138 H   0  0  0  0  0  0  0  0  0  0  0  0
   19.9537   20.7189   21.3004 C   0  0  0  0  0  0  0  0  0  0  0  0
   20.1772   20.7959   20.2276 H   0  0  0  0  0  0  0  0  0  0  0  0
   19.6085   21.7160   21.6058 H   0  0  0  0  0  0  0  0  0  0  0  0
   22.9055   18.5315   23.9807 O   0  0  0  0  0  0  0  0  0  0  0  0
   22.8315   19.5027   24.0762 H   0  0  0  0  0  0  0  0  0  0  0  0
  1  2  1  0  0  0  0
  1  3  1  0  0  0  0
  1  4  1  0  0  0  0
  4  5  1  0  0  0  0
  4  6  1  0  0  0  0
  4  7  1  0  0  0  0
  7  8  1  0  0  0  0
  7  9  1  0  0  0  0
  7 10  1  0  0  0  0
 10 11  1  0  0  0  0
 10 12  1  0  0  0  0
 10 13  1  0  0  0  0
 13 14  1  0  0  0  0
 13 15  1  0  0  0  0
 15 16  1  0  0  0  0
 15 17  1  0  0  0  0
 15 18  1  0  0  0  0
 18 19  1  0  0  0  0
 18 20  1  0  0  0  0
  1 21  1  0  0  0  0
 18 21  1  0  0  0  0
 21 22  1  0  0  0  0
 21 23  1  0  0  0  0
 13 24  1  0  0  0  0
 24 25  1  0  0  0  0
M  END
> <VConfSearch Rank>
245

> <Conf_Id>
164

> <Delta U+W>
0.008

> <U+W>
10.922

> <U>
12.433

> <W>
-1.511

> <W(PB)>
-3.669

> <W(SA)>
2.157

> <Valence>
19.007

> <Coulomb>
-9.373

> <VdW>
2.799

> <VdW6>
-12.597

> <VdW12>
15.396

> <Bond>
0.425

> <Angle>
4.784

> <Pdih>
13.799

> <Idih>
0.000

> <Tether>
0.000

$$$$
VeraChem MOL file


 25 25  0  0  0  0  0  0  0  0999 V2000     
   19.6067   17.5488   22.4231 C   0  0  0  0  0  0  0  0  0  0  0  0
   20.5938   17.5037   21.9493 H   0  0  0  0  0  0  0  0  0  0  0  0
   19.1895   16.5415   22.2889 H   0  0  0  0  0  0  0  0  0  0  0  0
   18.6854   18.5333   21.6604 C   0  0  0  0  0  0  0  0  0  0  0  0
   18.5933   18.1657   20.6292 H   0  0  0  0  0  0  0  0  0  0  0  0
   17.6731   18.4852   22.0840 H   0  0  0  0  0  0  0  0  0  0  0  0
   19.1339   20.0157   21.5965 C   0  0  0  0  0  0  0  0  0  0  0  0
   18.8363   20.5476   22.5073 H   0  0  0  0  0  0  0  0  0  0  0  0
   18.5537   20.4955   20.7963 H   0  0  0  0  0  0  0  0  0  0  0  0
   20.6414   20.2399   21.3032 C   0  0  0  0  0  0  0  0  0  0  0  0
   21.0704   19.3805   20.7738 H   0  0  0  0  0  0  0  0  0  0  0  0
   20.7154   21.0804   20.6001 H   0  0  0  0  0  0  0  0  0  0  0  0
   21.4984   20.6084   22.5402 C   0  0  0  0  0  0  0  0  0  0  0  0
   21.0281   21.4678   23.0390 H   0  0  0  0  0  0  0  0  0  0  0  0
   21.7074   19.4931   23.5951 C   0  0  0  0  0  0  0  0  0  0  0  0
   22.1715   18.6092   23.1411 H   0  0  0  0  0  0  0  0  0  0  0  0
   22.4444   19.8691   24.3174 H   0  0  0  0  0  0  0  0  0  0  0  0
   20.4354   19.1039   24.3947 C   0  0  0  0  0  0  0  0  0  0  0  0
   19.7164   19.9310   24.3996 H   0  0  0  0  0  0  0  0  0  0  0  0
   20.7178   18.9793   25.4491 H   0  0  0  0  0  0  0  0  0  0  0  0
   19.7489   17.7882   23.9470 C   0  0  0  0  0  0  0  0  0  0  0  0
   18.7588   17.7246   24.4182 H   0  0  0  0  0  0  0  0  0  0  0  0
   20.3280   16.9504   24.3588 H   0  0  0  0  0  0  0  0  0  0  0  0
   22.7805   21.0053   22.0732 O   0  0  0  0  0  0  0  0  0  0  0  0
   23.1703   20.2206   21.6361 H   0  0  0  0  0  0  0  0  0  0  0  0
  1  2  1  0  0  0  0
  1  3  1  0  0  0  0
  1  4  1  0  0  0  0
  4  5  1  0  0  0  0
  4  6  1  0  0  0  0
  4  7  1  0  0  0  0
  7  8  1  0  0  0  0
  7  9  1  0  0  0  0
  7 10  1  0  0  0  0
 10 11  1  0  0  0  0
 10 12  1  0  0  0  0
 10 13  1  0  0  0  0
 13 14  1  0  0  0  0
 13 15  1  0  0  0  0
 15 16  1  0  0  0  0
 15 17  1  0  0  0  0
 15 18  1  0  0  0  0
 18 19  1  0  0  0  0
 18 20  1  0  0  0  0
  1 21  1  0  0  0  0
 18 21  1  0  0  0  0
 21 22  1  0  0  0  0
 21 23  1  0  0  0  0
 13 24  1  0  0  0  0
 24 25  1  0  0  0  0
M  END
> <VConfSearch Rank>
246

> <Conf_Id>
15

> <Delta U+W>
-1.271

> <U+W>
9.643

> <U>
11.413

> <W>
-1.770

> <W(PB)>
-3.908

> <W(SA)>
2.138

> <Valence>
17.496

> <Coulomb>
-8.736

> <VdW>
2.653

> <VdW6>
-12.485

> <VdW12>
15.138

> <Bond>
0.414

> <Angle>
5.295

> <Pdih>
11.787

> <Idih>
0.000

> <Tether>
0.000

$$$$
VeraChem MOL file


 25 25  0  0  0  0  0  0  0  0999 V2000     
   18.8202   19.2737   21.4728 C   0  0  0  0  0  0  0  0  0  0  0  0
   18.0747   19.2165   20.6678 H   0  0  0  0  0  0  0  0  0  0  0  0
   18.5130   20.1364   22.0775 H   0  0  0  0  0  0  0  0  0  0  0  0
   18.7034   17.9617   22.2924 C   0  0  0  0  0  0  0  0  0  0  0  0
   17.7263   17.9593   22.7945 H   0  0  0  0  0  0  0  0  0  0  0  0
   18.6846   17.1099   21.5989 H   0  0  0  0  0  0  0  0  0  0  0  0
   19.8043   17.7029   23.3490 C   0  0  0  0  0  0  0  0  0  0  0  0
   20.7092   17.3330   22.8529 H   0  0  0  0  0  0  0  0  0  0  0  0
   19.4751   16.8719   23.9877 H   0  0  0  0  0  0  0  0  0  0  0  0
   20.1210   18.9268   24.2475 C   0  0  0  0  0  0  0  0  0  0  0  0
   19.3932   19.7296   24.0856 H   0  0  0  0  0  0  0  0  0  0  0  0
   19.9864   18.6313   25.2962 H   0  0  0  0  0  0  0  0  0  0  0  0
   21.5585   19.4762   24.0991 C   0  0  0  0  0  0  0  0  0  0  0  0
   22.2375   18.7694   24.5972 H   0  0  0  0  0  0  0  0  0  0  0  0
   22.0812   19.6679   22.6518 C   0  0  0  0  0  0  0  0  0  0  0  0
   23.0305   20.2157   22.7239 H   0  0  0  0  0  0  0  0  0  0  0  0
   22.3576   18.6980   22.2213 H   0  0  0  0  0  0  0  0  0  0  0  0
   21.1590   20.4346   21.6666 C   0  0  0  0  0  0  0  0  0  0  0  0
   21.8170   20.9511   20.9543 H   0  0  0  0  0  0  0  0  0  0  0  0
   20.6065   21.2325   22.1795 H   0  0  0  0  0  0  0  0  0  0  0  0
   20.2014   19.5450   20.8268 C   0  0  0  0  0  0  0  0  0  0  0  0
   20.6870   18.6044   20.5341 H   0  0  0  0  0  0  0  0  0  0  0  0
   20.0135   20.0800   19.8857 H   0  0  0  0  0  0  0  0  0  0  0  0
   21.6274   20.7255   24.7721 O   0  0  0  0  0  0  0  0  0  0  0  0
   21.0863   21.3451   24.2425 H   0  0  0  0  0  0  0  0  0  0  0  0
  1  2  1  0  0  0  0
  1  3  1  0  0  0  0
  1  4  1  0  0  0  0
  4  5  1  0  0  0  0
  4  6  1  0  0  0  0
  4  7  1  0  0  0  0
  7  8  1  0  0  0  0
  7  9  1  0  0  0  0
  7 10  1  0  0  0  0
 10 11  1  0  0  0  0
 10 12  1  0  0  0  0
 10 13  1  0  0  0  0
 13 14  1  0  0  0  0
 13 15  1  0  0  0  0
 15 16  1  0  0  0  0
 15 17  1  0  0  0  0
 15 18  1  0  0  0  0
 18 19  1  0  0  0  0
 18 20  1  0  0  0  0
  1 21  1  0  0  0  0
 18 21  1  0  0  0  0
 21 22  1  0  0  0  0
 21 23  1  0  0  0  0
 13 24  1  0  0  0  0
 24 25  1  0  0  0  0
M  END
> <VConfSearch Rank>
247

> <Conf_Id>
115

> <Delta U+W>
0.038

> <U+W>
10.952

> <U>
12.526

> <W>
-1.575

> <W(PB)>
-3.698

> <W(SA)>
2.123

> <Valence>
19.016

> <Coulomb>
-9.226

> <VdW>
2.737

> <VdW6>
-12.612

> <VdW12>
15.349

> <Bond>
0.421

> <Angle>
4.883

> <Pdih>
13.711

> <Idih>
0.000

> <Tether>
0.000

$$$$
VeraChem MOL file


 25 25  0  0  0  0  0  0  0  0999 V2000     
   19.4003   21.1267   23.1113 C   0  0  0  0  0  0  0  0  0  0  0  0
   19.4099   22.1999   23.3457 H   0  0  0  0  0  0  0  0  0  0  0  0
   18.3558   20.8877   22.8695 H   0  0  0  0  0  0  0  0  0  0  0  0
   19.8354   20.3722   24.3891 C   0  0  0  0  0  0  0  0  0  0  0  0
   20.8356   20.7032   24.7003 H   0  0  0  0  0  0  0  0  0  0  0  0
   19.1583   20.6789   25.1981 H   0  0  0  0  0  0  0  0  0  0  0  0
   19.7901   18.8299   24.2896 C   0  0  0  0  0  0  0  0  0  0  0  0
   18.8830   18.5084   23.7606 H   0  0  0  0  0  0  0  0  0  0  0  0
   19.6863   18.4376   25.3107 H   0  0  0  0  0  0  0  0  0  0  0  0
   21.0636   18.1917   23.6725 C   0  0  0  0  0  0  0  0  0  0  0  0
   21.8877   18.9144   23.6228 H   0  0  0  0  0  0  0  0  0  0  0  0
   21.4039   17.4075   24.3623 H   0  0  0  0  0  0  0  0  0  0  0  0
   20.8459   17.5428   22.2871 C   0  0  0  0  0  0  0  0  0  0  0  0
   19.8464   17.0856   22.2614 H   0  0  0  0  0  0  0  0  0  0  0  0
   20.9852   18.5123   21.0925 C   0  0  0  0  0  0  0  0  0  0  0  0
   21.9995   18.9318   21.0669 H   0  0  0  0  0  0  0  0  0  0  0  0
   20.8832   17.9213   20.1728 H   0  0  0  0  0  0  0  0  0  0  0  0
   19.9368   19.6499   21.0346 C   0  0  0  0  0  0  0  0  0  0  0  0
   18.9416   19.2669   21.2971 H   0  0  0  0  0  0  0  0  0  0  0  0
   19.8580   19.9687   19.9860 H   0  0  0  0  0  0  0  0  0  0  0  0
   20.3005   20.9029   21.8735 C   0  0  0  0  0  0  0  0  0  0  0  0
   20.1831   21.7796   21.2219 H   0  0  0  0  0  0  0  0  0  0  0  0
   21.3591   20.8982   22.1654 H   0  0  0  0  0  0  0  0  0  0  0  0
   21.8201   16.5193   22.1224 O   0  0  0  0  0  0  0  0  0  0  0  0
   21.6324   16.0851   21.2642 H   0  0  0  0  0  0  0  0  0  0  0  0
  1  2  1  0  0  0  0
  1  3  1  0  0  0  0
  1  4  1  0  0  0  0
  4  5  1  0  0  0  0
  4  6  1  0  0  0  0
  4  7  1  0  0  0  0
  7  8  1  0  0  0  0
  7  9  1  0  0  0  0
  7 10  1  0  0  0  0
 10 11  1  0  0  0  0
 10 12  1  0  0  0  0
 10 13  1  0  0  0  0
 13 14  1  0  0  0  0
 13 15  1  0  0  0  0
 15 16  1  0  0  0  0
 15 17  1  0  0  0  0
 15 18  1  0  0  0  0
 18 19  1  0  0  0  0
 18 20  1  0  0  0  0
  1 21  1  0  0  0  0
 18 21  1  0  0  0  0
 21 22  1  0  0  0  0
 21 23  1  0  0  0  0
 13 24  1  0  0  0  0
 24 25  1  0  0  0  0
M  END
> <VConfSearch Rank>
248

> <Conf_Id>
30

> <Delta U+W>
0.000

> <U+W>
10.913

> <U>
13.140

> <W>
-2.227

> <W(PB)>
-4.367

> <W(SA)>
2.140

> <Valence>
19.155

> <Coulomb>
-8.157

> <VdW>
2.142

> <VdW6>
-11.576

> <VdW12>
13.718

> <Bond>
0.294

> <Angle>
3.547

> <Pdih>
15.314

> <Idih>
0.000

> <Tether>
0.000

$$$$
VeraChem MOL file


 25 25  0  0  0  0  0  0  0  0999 V2000     
   18.5023   18.0850   22.6060 C   0  0  0  0  0  0  0  0  0  0  0  0
   18.2867   17.0484   22.3126 H   0  0  0  0  0  0  0  0  0  0  0  0
   17.5296   18.5320   22.8523 H   0  0  0  0  0  0  0  0  0  0  0  0
   19.0826   18.8318   21.3797 C   0  0  0  0  0  0  0  0  0  0  0  0
   18.4809   18.5593   20.5019 H   0  0  0  0  0  0  0  0  0  0  0  0
   18.9267   19.9104   21.4979 H   0  0  0  0  0  0  0  0  0  0  0  0
   20.5690   18.5122   21.0794 C   0  0  0  0  0  0  0  0  0  0  0  0
   20.6509   18.1563   20.0434 H   0  0  0  0  0  0  0  0  0  0  0  0
   20.9229   17.6745   21.6915 H   0  0  0  0  0  0  0  0  0  0  0  0
   21.5224   19.7221   21.2483 C   0  0  0  0  0  0  0  0  0  0  0  0
   22.5571   19.3574   21.2011 H   0  0  0  0  0  0  0  0  0  0  0  0
   21.3972   20.3863   20.3832 H   0  0  0  0  0  0  0  0  0  0  0  0
   21.3465   20.5785   22.5273 C   0  0  0  0  0  0  0  0  0  0  0  0
   20.4122   21.1509   22.4535 H   0  0  0  0  0  0  0  0  0  0  0  0
   21.3352   19.7823   23.8552 C   0  0  0  0  0  0  0  0  0  0  0  0
   21.9702   18.8911   23.7710 H   0  0  0  0  0  0  0  0  0  0  0  0
   21.8070   20.4025   24.6290 H   0  0  0  0  0  0  0  0  0  0  0  0
   19.9214   19.4077   24.3830 C   0  0  0  0  0  0  0  0  0  0  0  0
   19.1983   20.2113   24.1883 H   0  0  0  0  0  0  0  0  0  0  0  0
   19.9966   19.3425   25.4773 H   0  0  0  0  0  0  0  0  0  0  0  0
   19.3755   18.0454   23.8883 C   0  0  0  0  0  0  0  0  0  0  0  0
   18.7509   17.6223   24.6871 H   0  0  0  0  0  0  0  0  0  0  0  0
   20.2005   17.3311   23.7719 H   0  0  0  0  0  0  0  0  0  0  0  0
   22.4281   21.5020   22.5664 O   0  0  0  0  0  0  0  0  0  0  0  0
   22.2679   22.0921   23.3323 H   0  0  0  0  0  0  0  0  0  0  0  0
  1  2  1  0  0  0  0
  1  3  1  0  0  0  0
  1  4  1  0  0  0  0
  4  5  1  0  0  0  0
  4  6  1  0  0  0  0
  4  7  1  0  0  0  0
  7  8  1  0  0  0  0
  7  9  1  0  0  0  0
  7 10  1  0  0  0  0
 10 11  1  0  0  0  0
 10 12  1  0  0  0  0
 10 13  1  0  0  0  0
 13 14  1  0  0  0  0
 13 15  1  0  0  0  0
 15 16  1  0  0  0  0
 15 17  1  0  0  0  0
 15 18  1  0  0  0  0
 18 19  1  0  0  0  0
 18 20  1  0  0  0  0
  1 21  1  0  0  0  0
 18 21  1  0  0  0  0
 21 22  1  0  0  0  0
 21 23  1  0  0  0  0
 13 24  1  0  0  0  0
 24 25  1  0  0  0  0
M  END
> <VConfSearch Rank>
249

> <Conf_Id>
162

> <Delta U+W>
0.219

> <U+W>
11.132

> <U>
13.296

> <W>
-2.164

> <W(PB)>
-4.311

> <W(SA)>
2.148

> <Valence>
18.607

> <Coulomb>
-8.339

> <VdW>
3.028

> <VdW6>
-12.271

> <VdW12>
15.299

> <Bond>
0.423

> <Angle>
4.488

> <Pdih>
13.696

> <Idih>
0.000

> <Tether>
0.000

$$$$
VeraChem MOL file


 25 25  0  0  0  0  0  0  0  0999 V2000     
   20.4124   20.9933   23.6248 C   0  0  0  0  0  0  0  0  0  0  0  0
   19.5564   20.6482   24.2184 H   0  0  0  0  0  0  0  0  0  0  0  0
   20.6559   21.9832   24.0346 H   0  0  0  0  0  0  0  0  0  0  0  0
   21.6294   20.0649   23.8627 C   0  0  0  0  0  0  0  0  0  0  0  0
   22.3577   20.1599   23.0462 H   0  0  0  0  0  0  0  0  0  0  0  0
   22.1455   20.4393   24.7575 H   0  0  0  0  0  0  0  0  0  0  0  0
   21.2818   18.5746   24.1344 C   0  0  0  0  0  0  0  0  0  0  0  0
   20.3663   18.4836   24.7343 H   0  0  0  0  0  0  0  0  0  0  0  0
   22.0846   18.1719   24.7672 H   0  0  0  0  0  0  0  0  0  0  0  0
   21.2082   17.6723   22.8752 C   0  0  0  0  0  0  0  0  0  0  0  0
   21.9371   18.0112   22.1288 H   0  0  0  0  0  0  0  0  0  0  0  0
   21.5445   16.6675   23.1626 H   0  0  0  0  0  0  0  0  0  0  0  0
   19.8089   17.5018   22.2317 C   0  0  0  0  0  0  0  0  0  0  0  0
   19.1995   16.8865   22.9093 H   0  0  0  0  0  0  0  0  0  0  0  0
   19.0183   18.8030   21.9561 C   0  0  0  0  0  0  0  0  0  0  0  0
   18.1585   18.5611   21.3181 H   0  0  0  0  0  0  0  0  0  0  0  0
   18.5723   19.1532   22.8931 H   0  0  0  0  0  0  0  0  0  0  0  0
   19.8400   19.9315   21.2787 C   0  0  0  0  0  0  0  0  0  0  0  0
   19.3450   20.2137   20.3397 H   0  0  0  0  0  0  0  0  0  0  0  0
   20.8284   19.5674   20.9744 H   0  0  0  0  0  0  0  0  0  0  0  0
   20.0010   21.2049   22.1436 C   0  0  0  0  0  0  0  0  0  0  0  0
   19.0548   21.7629   22.1284 H   0  0  0  0  0  0  0  0  0  0  0  0
   20.7402   21.8576   21.6596 H   0  0  0  0  0  0  0  0  0  0  0  0
   19.9777   16.8053   21.0026 O   0  0  0  0  0  0  0  0  0  0  0  0
   19.0863   16.7085   20.6089 H   0  0  0  0  0  0  0  0  0  0  0  0
  1  2  1  0  0  0  0
  1  3  1  0  0  0  0
  1  4  1  0  0  0  0
  4  5  1  0  0  0  0
  4  6  1  0  0  0  0
  4  7  1  0  0  0  0
  7  8  1  0  0  0  0
  7  9  1  0  0  0  0
  7 10  1  0  0  0  0
 10 11  1  0  0  0  0
 10 12  1  0  0  0  0
 10 13  1  0  0  0  0
 13 14  1  0  0  0  0
 13 15  1  0  0  0  0
 15 16  1  0  0  0  0
 15 17  1  0  0  0  0
 15 18  1  0  0  0  0
 18 19  1  0  0  0  0
 18 20  1  0  0  0  0
  1 21  1  0  0  0  0
 18 21  1  0  0  0  0
 21 22  1  0  0  0  0
 21 23  1  0  0  0  0
 13 24  1  0  0  0  0
 24 25  1  0  0  0  0
M  END
> <VConfSearch Rank>
250

> <Conf_Id>
155

> <Delta U+W>
0.339

> <U+W>
11.252

> <U>
13.420

> <W>
-2.167

> <W(PB)>
-4.325

> <W(SA)>
2.157

> <Valence>
18.609

> <Coulomb>
-8.052

> <VdW>
2.863

> <VdW6>
-12.524

> <VdW12>
15.387

> <Bond>
0.430

> <Angle>
4.724

> <Pdih>
13.455

> <Idih>
0.000

> <Tether>
0.000

$$$$
VeraChem MOL file


 25 25  0  0  0  0  0  0  0  0999 V2000     
   19.1965   17.7621   21.9231 C   0  0  0  0  0  0  0  0  0  0  0  0
   18.5689   17.2504   22.6652 H   0  0  0  0  0  0  0  0  0  0  0  0
   18.9573   17.2880   20.9614 H   0  0  0  0  0  0  0  0  0  0  0  0
   18.7552   19.2456   21.8164 C   0  0  0  0  0  0  0  0  0  0  0  0
   19.2986   19.7263   20.9968 H   0  0  0  0  0  0  0  0  0  0  0  0
   17.7114   19.2575   21.4743 H   0  0  0  0  0  0  0  0  0  0  0  0
   18.8226   20.1114   23.1083 C   0  0  0  0  0  0  0  0  0  0  0  0
   17.8799   19.9642   23.6525 H   0  0  0  0  0  0  0  0  0  0  0  0
   18.8356   21.1728   22.8252 H   0  0  0  0  0  0  0  0  0  0  0  0
   19.9744   19.8392   24.1138 C   0  0  0  0  0  0  0  0  0  0  0  0
   19.7744   20.4384   25.0117 H   0  0  0  0  0  0  0  0  0  0  0  0
   19.8972   18.8114   24.4790 H   0  0  0  0  0  0  0  0  0  0  0  0
   21.4312   20.1412   23.6546 C   0  0  0  0  0  0  0  0  0  0  0  0
   22.1091   19.5307   24.2681 H   0  0  0  0  0  0  0  0  0  0  0  0
   21.7830   19.8931   22.1662 C   0  0  0  0  0  0  0  0  0  0  0  0
   21.1614   20.5394   21.5397 H   0  0  0  0  0  0  0  0  0  0  0  0
   22.8000   20.2721   22.0000 H   0  0  0  0  0  0  0  0  0  0  0  0
   21.7557   18.4244   21.6461 C   0  0  0  0  0  0  0  0  0  0  0  0
   22.7395   17.9830   21.8562 H   0  0  0  0  0  0  0  0  0  0  0  0
   21.6687   18.4371   20.5513 H   0  0  0  0  0  0  0  0  0  0  0  0
   20.6921   17.4587   22.2314 C   0  0  0  0  0  0  0  0  0  0  0  0
   20.8534   17.3501   23.3085 H   0  0  0  0  0  0  0  0  0  0  0  0
   20.9044   16.4550   21.8385 H   0  0  0  0  0  0  0  0  0  0  0  0
   21.6959   21.5146   23.9190 O   0  0  0  0  0  0  0  0  0  0  0  0
   21.5225   21.6578   24.8722 H   0  0  0  0  0  0  0  0  0  0  0  0
  1  2  1  0  0  0  0
  1  3  1  0  0  0  0
  1  4  1  0  0  0  0
  4  5  1  0  0  0  0
  4  6  1  0  0  0  0
  4  7  1  0  0  0  0
  7  8  1  0  0  0  0
  7  9  1  0  0  0  0
  7 10  1  0  0  0  0
 10 11  1  0  0  0  0
 10 12  1  0  0  0  0
 10 13  1  0  0  0  0
 13 14  1  0  0  0  0
 13 15  1  0  0  0  0
 15 16  1  0  0  0  0
 15 17  1  0  0  0  0
 15 18  1  0  0  0  0
 18 19  1  0  0  0  0
 18 20  1  0  0  0  0
  1 21  1  0  0  0  0
 18 21  1  0  0  0  0
 21 22  1  0  0  0  0
 21 23  1  0  0  0  0
 13 24  1  0  0  0  0
 24 25  1  0  0  0  0
M  END
> <VConfSearch Rank>
251

> <Conf_Id>
146

> <Delta U+W>
2.553

> <U+W>
13.466

> <U>
15.643

> <W>
-2.176

> <W(PB)>
-4.307

> <W(SA)>
2.131

> <Valence>
18.916

> <Coulomb>
-7.506

> <VdW>
4.232

> <VdW6>
-13.632

> <VdW12>
17.864

> <Bond>
0.735

> <Angle>
9.140

> <Pdih>
9.042

> <Idih>
0.000

> <Tether>
0.000

$$$$
VeraChem MOL file


 25 25  0  0  0  0  0  0  0  0999 V2000     
   18.6257   19.8981   23.6700 C   0  0  0  0  0  0  0  0  0  0  0  0
   18.2810   20.9407   23.6412 H   0  0  0  0  0  0  0  0  0  0  0  0
   17.9068   19.3661   24.3082 H   0  0  0  0  0  0  0  0  0  0  0  0
   20.0042   19.8346   24.3741 C   0  0  0  0  0  0  0  0  0  0  0  0
   19.8661   20.2143   25.3956 H   0  0  0  0  0  0  0  0  0  0  0  0
   20.3165   18.7925   24.5075 H   0  0  0  0  0  0  0  0  0  0  0  0
   21.1406   20.6640   23.7252 C   0  0  0  0  0  0  0  0  0  0  0  0
   22.0104   20.6135   24.3945 H   0  0  0  0  0  0  0  0  0  0  0  0
   20.8475   21.7222   23.6972 H   0  0  0  0  0  0  0  0  0  0  0  0
   21.6058   20.2328   22.3099 C   0  0  0  0  0  0  0  0  0  0  0  0
   20.9331   20.6392   21.5481 H   0  0  0  0  0  0  0  0  0  0  0  0
   22.5667   20.7302   22.1205 H   0  0  0  0  0  0  0  0  0  0  0  0
   21.7789   18.7049   22.1109 C   0  0  0  0  0  0  0  0  0  0  0  0
   21.8869   18.2161   23.0885 H   0  0  0  0  0  0  0  0  0  0  0  0
   20.6237   18.0330   21.3261 C   0  0  0  0  0  0  0  0  0  0  0  0
   20.4965   18.5451   20.3631 H   0  0  0  0  0  0  0  0  0  0  0  0
   20.9326   17.0089   21.0788 H   0  0  0  0  0  0  0  0  0  0  0  0
   19.2493   17.9397   22.0429 C   0  0  0  0  0  0  0  0  0  0  0  0
   19.3408   17.3965   22.9922 H   0  0  0  0  0  0  0  0  0  0  0  0
   18.6024   17.3118   21.4149 H   0  0  0  0  0  0  0  0  0  0  0  0
   18.5266   19.2968   22.2442 C   0  0  0  0  0  0  0  0  0  0  0  0
   17.4591   19.1504   22.0296 H   0  0  0  0  0  0  0  0  0  0  0  0
   18.8577   20.0242   21.4944 H   0  0  0  0  0  0  0  0  0  0  0  0
   22.9751   18.4882   21.3711 O   0  0  0  0  0  0  0  0  0  0  0  0
   23.0970   17.5180   21.3073 H   0  0  0  0  0  0  0  0  0  0  0  0
  1  2  1  0  0  0  0
  1  3  1  0  0  0  0
  1  4  1  0  0  0  0
  4  5  1  0  0  0  0
  4  6  1  0  0  0  0
  4  7  1  0  0  0  0
  7  8  1  0  0  0  0
  7  9  1  0  0  0  0
  7 10  1  0  0  0  0
 10 11  1  0  0  0  0
 10 12  1  0  0  0  0
 10 13  1  0  0  0  0
 13 14  1  0  0  0  0
 13 15  1  0  0  0  0
 15 16  1  0  0  0  0
 15 17  1  0  0  0  0
 15 18  1  0  0  0  0
 18 19  1  0  0  0  0
 18 20  1  0  0  0  0
  1 21  1  0  0  0  0
 18 21  1  0  0  0  0
 21 22  1  0  0  0  0
 21 23  1  0  0  0  0
 13 24  1  0  0  0  0
 24 25  1  0  0  0  0
M  END
> <VConfSearch Rank>
252

> <Conf_Id>
62

> <Delta U+W>
-1.779

> <U+W>
9.134

> <U>
11.364

> <W>
-2.230

> <W(PB)>
-4.359

> <W(SA)>
2.129

> <Valence>
16.582

> <Coulomb>
-8.150

> <VdW>
2.933

> <VdW6>
-12.531

> <VdW12>
15.464

> <Bond>
0.439

> <Angle>
5.099

> <Pdih>
11.044

> <Idih>
0.000

> <Tether>
0.000

$$$$
VeraChem MOL file


 25 25  0  0  0  0  0  0  0  0999 V2000     
   22.2026   18.8788   22.5618 C   0  0  0  0  0  0  0  0  0  0  0  0
   21.9382   19.2643   21.5705 H   0  0  0  0  0  0  0  0  0  0  0  0
   23.2794   18.6712   22.4996 H   0  0  0  0  0  0  0  0  0  0  0  0
   21.4883   17.5297   22.8248 C   0  0  0  0  0  0  0  0  0  0  0  0
   21.8150   16.8273   22.0459 H   0  0  0  0  0  0  0  0  0  0  0  0
   21.8467   17.1083   23.7738 H   0  0  0  0  0  0  0  0  0  0  0  0
   19.9383   17.5406   22.8330 C   0  0  0  0  0  0  0  0  0  0  0  0
   19.5609   17.8568   23.8120 H   0  0  0  0  0  0  0  0  0  0  0  0
   19.6069   16.4978   22.7348 H   0  0  0  0  0  0  0  0  0  0  0  0
   19.2751   18.3688   21.7000 C   0  0  0  0  0  0  0  0  0  0  0  0
   19.9486   18.4717   20.8404 H   0  0  0  0  0  0  0  0  0  0  0  0
   18.4210   17.7865   21.3302 H   0  0  0  0  0  0  0  0  0  0  0  0
   18.7349   19.7545   22.1353 C   0  0  0  0  0  0  0  0  0  0  0  0
   18.0726   19.6098   23.0010 H   0  0  0  0  0  0  0  0  0  0  0  0
   19.7949   20.8192   22.5131 C   0  0  0  0  0  0  0  0  0  0  0  0
   20.4811   20.9928   21.6754 H   0  0  0  0  0  0  0  0  0  0  0  0
   19.2600   21.7686   22.6490 H   0  0  0  0  0  0  0  0  0  0  0  0
   20.5729   20.5338   23.8256 C   0  0  0  0  0  0  0  0  0  0  0  0
   19.9890   19.8807   24.4841 H   0  0  0  0  0  0  0  0  0  0  0  0
   20.6623   21.4763   24.3829 H   0  0  0  0  0  0  0  0  0  0  0  0
   22.0069   19.9761   23.6377 C   0  0  0  0  0  0  0  0  0  0  0  0
   22.3754   19.6066   24.6042 H   0  0  0  0  0  0  0  0  0  0  0  0
   22.6618   20.8172   23.3721 H   0  0  0  0  0  0  0  0  0  0  0  0
   17.9692   20.2773   21.0569 O   0  0  0  0  0  0  0  0  0  0  0  0
   17.2602   19.6268   20.8716 H   0  0  0  0  0  0  0  0  0  0  0  0
  1  2  1  0  0  0  0
  1  3  1  0  0  0  0
  1  4  1  0  0  0  0
  4  5  1  0  0  0  0
  4  6  1  0  0  0  0
  4  7  1  0  0  0  0
  7  8  1  0  0  0  0
  7  9  1  0  0  0  0
  7 10  1  0  0  0  0
 10 11  1  0  0  0  0
 10 12  1  0  0  0  0
 10 13  1  0  0  0  0
 13 14  1  0  0  0  0
 13 15  1  0  0  0  0
 15 16  1  0  0  0  0
 15 17  1  0  0  0  0
 15 18  1  0  0  0  0
 18 19  1  0  0  0  0
 18 20  1  0  0  0  0
  1 21  1  0  0  0  0
 18 21  1  0  0  0  0
 21 22  1  0  0  0  0
 21 23  1  0  0  0  0
 13 24  1  0  0  0  0
 24 25  1  0  0  0  0
M  END
> <VConfSearch Rank>
253

> <Conf_Id>
121

> <Delta U+W>
-1.283

> <U+W>
9.630

> <U>
11.876

> <W>
-2.246

> <W(PB)>
-4.376

> <W(SA)>
2.130

> <Valence>
17.153

> <Coulomb>
-7.966

> <VdW>
2.689

> <VdW6>
-12.458

> <VdW12>
15.147

> <Bond>
0.421

> <Angle>
5.258

> <Pdih>
11.475

> <Idih>
0.000

> <Tether>
0.000

$$$$
VeraChem MOL file


 25 25  0  0  0  0  0  0  0  0999 V2000     
   22.0035   18.6903   22.0307 C   0  0  0  0  0  0  0  0  0  0  0  0
   21.3738   17.7951   21.9749 H   0  0  0  0  0  0  0  0  0  0  0  0
   22.9776   18.3680   21.6383 H   0  0  0  0  0  0  0  0  0  0  0  0
   22.2178   19.1085   23.5069 C   0  0  0  0  0  0  0  0  0  0  0  0
   22.7079   18.2689   24.0185 H   0  0  0  0  0  0  0  0  0  0  0  0
   22.9340   19.9402   23.5482 H   0  0  0  0  0  0  0  0  0  0  0  0
   20.9566   19.4894   24.3236 C   0  0  0  0  0  0  0  0  0  0  0  0
   20.6796   20.5337   24.1397 H   0  0  0  0  0  0  0  0  0  0  0  0
   21.2380   19.4629   25.3852 H   0  0  0  0  0  0  0  0  0  0  0  0
   19.7308   18.5581   24.1241 C   0  0  0  0  0  0  0  0  0  0  0  0
   20.0411   17.5609   23.7891 H   0  0  0  0  0  0  0  0  0  0  0  0
   19.2741   18.4016   25.1103 H   0  0  0  0  0  0  0  0  0  0  0  0
   18.6237   19.1219   23.1987 C   0  0  0  0  0  0  0  0  0  0  0  0
   18.3457   20.1198   23.5674 H   0  0  0  0  0  0  0  0  0  0  0  0
   18.9775   19.2410   21.6947 C   0  0  0  0  0  0  0  0  0  0  0  0
   19.2688   18.2640   21.2899 H   0  0  0  0  0  0  0  0  0  0  0  0
   18.0561   19.5115   21.1626 H   0  0  0  0  0  0  0  0  0  0  0  0
   20.0369   20.3239   21.3563 C   0  0  0  0  0  0  0  0  0  0  0  0
   20.0584   21.0969   22.1329 H   0  0  0  0  0  0  0  0  0  0  0  0
   19.7094   20.8533   20.4511 H   0  0  0  0  0  0  0  0  0  0  0  0
   21.4656   19.7894   21.0809 C   0  0  0  0  0  0  0  0  0  0  0  0
   22.1666   20.6349   21.0705 H   0  0  0  0  0  0  0  0  0  0  0  0
   21.4799   19.3792   20.0618 H   0  0  0  0  0  0  0  0  0  0  0  0
   17.4954   18.2634   23.3098 O   0  0  0  0  0  0  0  0  0  0  0  0
   16.7797   18.6658   22.7750 H   0  0  0  0  0  0  0  0  0  0  0  0
  1  2  1  0  0  0  0
  1  3  1  0  0  0  0
  1  4  1  0  0  0  0
  4  5  1  0  0  0  0
  4  6  1  0  0  0  0
  4  7  1  0  0  0  0
  7  8  1  0  0  0  0
  7  9  1  0  0  0  0
  7 10  1  0  0  0  0
 10 11  1  0  0  0  0
 10 12  1  0  0  0  0
 10 13  1  0  0  0  0
 13 14  1  0  0  0  0
 13 15  1  0  0  0  0
 15 16  1  0  0  0  0
 15 17  1  0  0  0  0
 15 18  1  0  0  0  0
 18 19  1  0  0  0  0
 18 20  1  0  0  0  0
  1 21  1  0  0  0  0
 18 21  1  0  0  0  0
 21 22  1  0  0  0  0
 21 23  1  0  0  0  0
 13 24  1  0  0  0  0
 24 25  1  0  0  0  0
M  END
> <VConfSearch Rank>
254

> <Conf_Id>
24

> <Delta U+W>
-1.236

> <U+W>
9.678

> <U>
11.876

> <W>
-2.199

> <W(PB)>
-4.335

> <W(SA)>
2.137

> <Valence>
17.153

> <Coulomb>
-7.966

> <VdW>
2.689

> <VdW6>
-12.458

> <VdW12>
15.147

> <Bond>
0.421

> <Angle>
5.258

> <Pdih>
11.475

> <Idih>
0.000

> <Tether>
0.000

$$$$
VeraChem MOL file


 25 25  0  0  0  0  0  0  0  0999 V2000     
   19.0192   20.5187   21.5077 C   0  0  0  0  0  0  0  0  0  0  0  0
   18.3272   21.2349   21.9714 H   0  0  0  0  0  0  0  0  0  0  0  0
   18.8627   20.6133   20.4245 H   0  0  0  0  0  0  0  0  0  0  0  0
   20.4756   20.9544   21.8195 C   0  0  0  0  0  0  0  0  0  0  0  0
   21.1787   20.4779   21.1246 H   0  0  0  0  0  0  0  0  0  0  0  0
   20.5436   22.0273   21.5931 H   0  0  0  0  0  0  0  0  0  0  0  0
   20.9501   20.7450   23.2788 C   0  0  0  0  0  0  0  0  0  0  0  0
   20.1228   20.9013   23.9842 H   0  0  0  0  0  0  0  0  0  0  0  0
   21.6729   21.5433   23.4966 H   0  0  0  0  0  0  0  0  0  0  0  0
   21.6732   19.3956   23.5511 C   0  0  0  0  0  0  0  0  0  0  0  0
   22.2868   19.1007   22.6903 H   0  0  0  0  0  0  0  0  0  0  0  0
   22.3828   19.5800   24.3692 H   0  0  0  0  0  0  0  0  0  0  0  0
   20.7468   18.2323   23.9820 C   0  0  0  0  0  0  0  0  0  0  0  0
   19.8733   18.6542   24.4964 H   0  0  0  0  0  0  0  0  0  0  0  0
   20.2679   17.3053   22.8361 C   0  0  0  0  0  0  0  0  0  0  0  0
   21.1069   16.6850   22.4945 H   0  0  0  0  0  0  0  0  0  0  0  0
   19.5302   16.6098   23.2575 H   0  0  0  0  0  0  0  0  0  0  0  0
   19.6388   17.9918   21.5976 C   0  0  0  0  0  0  0  0  0  0  0  0
   19.1440   17.2186   20.9943 H   0  0  0  0  0  0  0  0  0  0  0  0
   20.4314   18.3861   20.9510 H   0  0  0  0  0  0  0  0  0  0  0  0
   18.6032   19.0919   21.9421 C   0  0  0  0  0  0  0  0  0  0  0  0
   18.3637   19.0879   23.0118 H   0  0  0  0  0  0  0  0  0  0  0  0
   17.6545   18.8493   21.4442 H   0  0  0  0  0  0  0  0  0  0  0  0
   21.4513   17.4212   24.9134 O   0  0  0  0  0  0  0  0  0  0  0  0
   22.2349   17.0730   24.4405 H   0  0  0  0  0  0  0  0  0  0  0  0
  1  2  1  0  0  0  0
  1  3  1  0  0  0  0
  1  4  1  0  0  0  0
  4  5  1  0  0  0  0
  4  6  1  0  0  0  0
  4  7  1  0  0  0  0
  7  8  1  0  0  0  0
  7  9  1  0  0  0  0
  7 10  1  0  0  0  0
 10 11  1  0  0  0  0
 10 12  1  0  0  0  0
 10 13  1  0  0  0  0
 13 14  1  0  0  0  0
 13 15  1  0  0  0  0
 15 16  1  0  0  0  0
 15 17  1  0  0  0  0
 15 18  1  0  0  0  0
 18 19  1  0  0  0  0
 18 20  1  0  0  0  0
  1 21  1  0  0  0  0
 18 21  1  0  0  0  0
 21 22  1  0  0  0  0
 21 23  1  0  0  0  0
 13 24  1  0  0  0  0
 24 25  1  0  0  0  0
M  END
> <VConfSearch Rank>
255

> <Conf_Id>
167

> <Delta U+W>
0.388

> <U+W>
11.301

> <U>
13.202

> <W>
-1.901

> <W(PB)>
-4.065

> <W(SA)>
2.163

> <Valence>
18.957

> <Coulomb>
-8.753

> <VdW>
2.998

> <VdW6>
-12.294

> <VdW12>
15.292

> <Bond>
0.419

> <Angle>
4.543

> <Pdih>
13.996

> <Idih>
0.000

> <Tether>
0.000

$$$$
VeraChem MOL file


 25 25  0  0  0  0  0  0  0  0999 V2000     
   21.1961   19.0186   20.8058 C   0  0  0  0  0  0  0  0  0  0  0  0
   20.7472   18.3870   20.0272 H   0  0  0  0  0  0  0  0  0  0  0  0
   22.0983   19.4511   20.3521 H   0  0  0  0  0  0  0  0  0  0  0  0
   21.6467   18.1178   21.9851 C   0  0  0  0  0  0  0  0  0  0  0  0
   20.8992   17.3423   22.1867 H   0  0  0  0  0  0  0  0  0  0  0  0
   22.5313   17.5618   21.6456 H   0  0  0  0  0  0  0  0  0  0  0  0
   22.0203   18.8662   23.2910 C   0  0  0  0  0  0  0  0  0  0  0  0
   22.3392   19.8948   23.0789 H   0  0  0  0  0  0  0  0  0  0  0  0
   22.9065   18.3724   23.7124 H   0  0  0  0  0  0  0  0  0  0  0  0
   20.9241   18.8451   24.3911 C   0  0  0  0  0  0  0  0  0  0  0  0
   20.6513   17.8054   24.6146 H   0  0  0  0  0  0  0  0  0  0  0  0
   21.3737   19.2377   25.3127 H   0  0  0  0  0  0  0  0  0  0  0  0
   19.6373   19.6610   24.1123 C   0  0  0  0  0  0  0  0  0  0  0  0
   19.9143   20.6926   23.8568 H   0  0  0  0  0  0  0  0  0  0  0  0
   18.7401   19.0665   22.9958 C   0  0  0  0  0  0  0  0  0  0  0  0
   18.9547   18.0007   22.8679 H   0  0  0  0  0  0  0  0  0  0  0  0
   17.6899   19.0958   23.3153 H   0  0  0  0  0  0  0  0  0  0  0  0
   18.8228   19.7969   21.6304 C   0  0  0  0  0  0  0  0  0  0  0  0
   18.2291   20.7184   21.7039 H   0  0  0  0  0  0  0  0  0  0  0  0
   18.3260   19.1829   20.8671 H   0  0  0  0  0  0  0  0  0  0  0  0
   20.2356   20.1903   21.1303 C   0  0  0  0  0  0  0  0  0  0  0  0
   20.7104   20.8897   21.8278 H   0  0  0  0  0  0  0  0  0  0  0  0
   20.1042   20.7691   20.2059 H   0  0  0  0  0  0  0  0  0  0  0  0
   18.8849   19.6904   25.3194 O   0  0  0  0  0  0  0  0  0  0  0  0
   18.1089   20.2653   25.1526 H   0  0  0  0  0  0  0  0  0  0  0  0
  1  2  1  0  0  0  0
  1  3  1  0  0  0  0
  1  4  1  0  0  0  0
  4  5  1  0  0  0  0
  4  6  1  0  0  0  0
  4  7  1  0  0  0  0
  7  8  1  0  0  0  0
  7  9  1  0  0  0  0
  7 10  1  0  0  0  0
 10 11  1  0  0  0  0
 10 12  1  0  0  0  0
 10 13  1  0  0  0  0
 13 14  1  0  0  0  0
 13 15  1  0  0  0  0
 15 16  1  0  0  0  0
 15 17  1  0  0  0  0
 15 18  1  0  0  0  0
 18 19  1  0  0  0  0
 18 20  1  0  0  0  0
  1 21  1  0  0  0  0
 18 21  1  0  0  0  0
 21 22  1  0  0  0  0
 21 23  1  0  0  0  0
 13 24  1  0  0  0  0
 24 25  1  0  0  0  0
M  END
> <VConfSearch Rank>
256

> <Conf_Id>
60

> <Delta U+W>
-1.838

> <U+W>
9.075

> <U>
11.150

> <W>
-2.074

> <W(PB)>
-4.196

> <W(SA)>
2.121

> <Valence>
16.582

> <Coulomb>
-8.361

> <VdW>
2.928

> <VdW6>
-12.539

> <VdW12>
15.467

> <Bond>
0.441

> <Angle>
5.093

> <Pdih>
11.049

> <Idih>
0.000

> <Tether>
0.000

$$$$
VeraChem MOL file


 25 25  0  0  0  0  0  0  0  0999 V2000     
   18.8301   18.6522   21.3350 C   0  0  0  0  0  0  0  0  0  0  0  0
   18.6536   17.6013   21.0683 H   0  0  0  0  0  0  0  0  0  0  0  0
   18.1041   19.2321   20.7488 H   0  0  0  0  0  0  0  0  0  0  0  0
   20.2448   19.0694   20.8606 C   0  0  0  0  0  0  0  0  0  0  0  0
   20.2708   18.9490   19.7689 H   0  0  0  0  0  0  0  0  0  0  0  0
   20.3998   20.1422   21.0228 H   0  0  0  0  0  0  0  0  0  0  0  0
   21.4279   18.2541   21.4406 C   0  0  0  0  0  0  0  0  0  0  0  0
   22.3413   18.5855   20.9280 H   0  0  0  0  0  0  0  0  0  0  0  0
   21.3042   17.1957   21.1739 H   0  0  0  0  0  0  0  0  0  0  0  0
   21.6725   18.3627   22.9681 C   0  0  0  0  0  0  0  0  0  0  0  0
   20.9924   17.6962   23.5081 H   0  0  0  0  0  0  0  0  0  0  0  0
   22.6710   17.9506   23.1660 H   0  0  0  0  0  0  0  0  0  0  0  0
   21.5820   19.7990   23.5457 C   0  0  0  0  0  0  0  0  0  0  0  0
   21.7022   20.5330   22.7376 H   0  0  0  0  0  0  0  0  0  0  0  0
   20.2646   20.0932   24.3055 C   0  0  0  0  0  0  0  0  0  0  0  0
   20.1260   19.3409   25.0929 H   0  0  0  0  0  0  0  0  0  0  0  0
   20.3895   21.0503   24.8293 H   0  0  0  0  0  0  0  0  0  0  0  0
   18.9703   20.1929   23.4529 C   0  0  0  0  0  0  0  0  0  0  0  0
   19.0700   20.9688   22.6830 H   0  0  0  0  0  0  0  0  0  0  0  0
   18.1743   20.5513   24.1198 H   0  0  0  0  0  0  0  0  0  0  0  0
   18.4927   18.8529   22.8354 C   0  0  0  0  0  0  0  0  0  0  0  0
   17.3990   18.8052   22.9285 H   0  0  0  0  0  0  0  0  0  0  0  0
   18.8532   18.0056   23.4294 H   0  0  0  0  0  0  0  0  0  0  0  0
   22.6510   19.9761   24.4676 O   0  0  0  0  0  0  0  0  0  0  0  0
   23.4814   19.8557   23.9611 H   0  0  0  0  0  0  0  0  0  0  0  0
  1  2  1  0  0  0  0
  1  3  1  0  0  0  0
  1  4  1  0  0  0  0
  4  5  1  0  0  0  0
  4  6  1  0  0  0  0
  4  7  1  0  0  0  0
  7  8  1  0  0  0  0
  7  9  1  0  0  0  0
  7 10  1  0  0  0  0
 10 11  1  0  0  0  0
 10 12  1  0  0  0  0
 10 13  1  0  0  0  0
 13 14  1  0  0  0  0
 13 15  1  0  0  0  0
 15 16  1  0  0  0  0
 15 17  1  0  0  0  0
 15 18  1  0  0  0  0
 18 19  1  0  0  0  0
 18 20  1  0  0  0  0
  1 21  1  0  0  0  0
 18 21  1  0  0  0  0
 21 22  1  0  0  0  0
 21 23  1  0  0  0  0
 13 24  1  0  0  0  0
 24 25  1  0  0  0  0
M  END
> <VConfSearch Rank>
257

> <Conf_Id>
129

> <Delta U+W>
-1.846

> <U+W>
9.067

> <U>
11.150

> <W>
-2.083

> <W(PB)>
-4.217

> <W(SA)>
2.134

> <Valence>
16.583

> <Coulomb>
-8.361

> <VdW>
2.928

> <VdW6>
-12.539

> <VdW12>
15.467

> <Bond>
0.441

> <Angle>
5.093

> <Pdih>
11.049

> <Idih>
0.000

> <Tether>
0.000

$$$$
VeraChem MOL file


 25 25  0  0  0  0  0  0  0  0999 V2000     
   21.4801   20.6099   23.5608 C   0  0  0  0  0  0  0  0  0  0  0  0
   21.6271   20.6033   24.6493 H   0  0  0  0  0  0  0  0  0  0  0  0
   22.0895   21.4430   23.1848 H   0  0  0  0  0  0  0  0  0  0  0  0
   19.9997   20.9417   23.2467 C   0  0  0  0  0  0  0  0  0  0  0  0
   19.7948   21.9389   23.6595 H   0  0  0  0  0  0  0  0  0  0  0  0
   19.8555   21.0561   22.1663 H   0  0  0  0  0  0  0  0  0  0  0  0
   18.9432   19.9744   23.8369 C   0  0  0  0  0  0  0  0  0  0  0  0
   17.9523   20.4016   23.6304 H   0  0  0  0  0  0  0  0  0  0  0  0
   19.0377   19.9574   24.9311 H   0  0  0  0  0  0  0  0  0  0  0  0
   18.9509   18.5166   23.3079 C   0  0  0  0  0  0  0  0  0  0  0  0
   19.7169   17.9308   23.8261 H   0  0  0  0  0  0  0  0  0  0  0  0
   17.9994   18.0607   23.6137 H   0  0  0  0  0  0  0  0  0  0  0  0
   19.1145   18.3765   21.7723 C   0  0  0  0  0  0  0  0  0  0  0  0
   18.8432   19.3216   21.2834 H   0  0  0  0  0  0  0  0  0  0  0  0
   20.5354   17.9565   21.3189 C   0  0  0  0  0  0  0  0  0  0  0  0
   20.8222   17.0276   21.8290 H   0  0  0  0  0  0  0  0  0  0  0  0
   20.4842   17.7063   20.2507 H   0  0  0  0  0  0  0  0  0  0  0  0
   21.6665   19.0054   21.4961 C   0  0  0  0  0  0  0  0  0  0  0  0
   21.4261   19.9321   20.9592 H   0  0  0  0  0  0  0  0  0  0  0  0
   22.5568   18.6051   20.9920 H   0  0  0  0  0  0  0  0  0  0  0  0
   22.0566   19.2982   22.9681 C   0  0  0  0  0  0  0  0  0  0  0  0
   23.1513   19.3738   23.0226 H   0  0  0  0  0  0  0  0  0  0  0  0
   21.8107   18.4439   23.6088 H   0  0  0  0  0  0  0  0  0  0  0  0
   18.2133   17.3741   21.3191 O   0  0  0  0  0  0  0  0  0  0  0  0
   18.4775   16.5429   21.7643 H   0  0  0  0  0  0  0  0  0  0  0  0
  1  2  1  0  0  0  0
  1  3  1  0  0  0  0
  1  4  1  0  0  0  0
  4  5  1  0  0  0  0
  4  6  1  0  0  0  0
  4  7  1  0  0  0  0
  7  8  1  0  0  0  0
  7  9  1  0  0  0  0
  7 10  1  0  0  0  0
 10 11  1  0  0  0  0
 10 12  1  0  0  0  0
 10 13  1  0  0  0  0
 13 14  1  0  0  0  0
 13 15  1  0  0  0  0
 15 16  1  0  0  0  0
 15 17  1  0  0  0  0
 15 18  1  0  0  0  0
 18 19  1  0  0  0  0
 18 20  1  0  0  0  0
  1 21  1  0  0  0  0
 18 21  1  0  0  0  0
 21 22  1  0  0  0  0
 21 23  1  0  0  0  0
 13 24  1  0  0  0  0
 24 25  1  0  0  0  0
M  END
> <VConfSearch Rank>
258

> <Conf_Id>
140

> <Delta U+W>
-1.702

> <U+W>
9.211

> <U>
11.181

> <W>
-1.969

> <W(PB)>
-4.093

> <W(SA)>
2.124

> <Valence>
16.954

> <Coulomb>
-8.661

> <VdW>
2.887

> <VdW6>
-12.561

> <VdW12>
15.448

> <Bond>
0.433

> <Angle>
5.120

> <Pdih>
11.401

> <Idih>
0.000

> <Tether>
0.000

$$$$
VeraChem MOL file


 25 25  0  0  0  0  0  0  0  0999 V2000     
   19.6126   20.9850   21.9095 C   0  0  0  0  0  0  0  0  0  0  0  0
   18.7206   21.0383   21.2707 H   0  0  0  0  0  0  0  0  0  0  0  0
   19.9732   22.0187   22.0014 H   0  0  0  0  0  0  0  0  0  0  0  0
   20.7072   20.1667   21.1768 C   0  0  0  0  0  0  0  0  0  0  0  0
   20.2680   19.2980   20.6735 H   0  0  0  0  0  0  0  0  0  0  0  0
   21.0846   20.7944   20.3579 H   0  0  0  0  0  0  0  0  0  0  0  0
   21.9140   19.7377   22.0508 C   0  0  0  0  0  0  0  0  0  0  0  0
   22.0458   20.4165   22.9032 H   0  0  0  0  0  0  0  0  0  0  0  0
   22.8215   19.8608   21.4438 H   0  0  0  0  0  0  0  0  0  0  0  0
   21.8822   18.2590   22.5235 C   0  0  0  0  0  0  0  0  0  0  0  0
   21.7934   17.6026   21.6480 H   0  0  0  0  0  0  0  0  0  0  0  0
   22.8621   18.0347   22.9658 H   0  0  0  0  0  0  0  0  0  0  0  0
   20.7985   17.8804   23.5642 C   0  0  0  0  0  0  0  0  0  0  0  0
   20.8708   18.5584   24.4250 H   0  0  0  0  0  0  0  0  0  0  0  0
   19.3505   17.8924   23.0096 C   0  0  0  0  0  0  0  0  0  0  0  0
   19.3601   17.7767   21.9210 H   0  0  0  0  0  0  0  0  0  0  0  0
   18.8145   17.0070   23.3775 H   0  0  0  0  0  0  0  0  0  0  0  0
   18.5050   19.1298   23.4086 C   0  0  0  0  0  0  0  0  0  0  0  0
   18.1721   18.9890   24.4461 H   0  0  0  0  0  0  0  0  0  0  0  0
   17.5894   19.1469   22.8020 H   0  0  0  0  0  0  0  0  0  0  0  0
   19.1999   20.5120   23.3259 C   0  0  0  0  0  0  0  0  0  0  0  0
   20.0579   20.5525   24.0066 H   0  0  0  0  0  0  0  0  0  0  0  0
   18.4958   21.2549   23.7250 H   0  0  0  0  0  0  0  0  0  0  0  0
   21.0898   16.5642   24.0171 O   0  0  0  0  0  0  0  0  0  0  0  0
   21.0232   15.9809   23.2334 H   0  0  0  0  0  0  0  0  0  0  0  0
  1  2  1  0  0  0  0
  1  3  1  0  0  0  0
  1  4  1  0  0  0  0
  4  5  1  0  0  0  0
  4  6  1  0  0  0  0
  4  7  1  0  0  0  0
  7  8  1  0  0  0  0
  7  9  1  0  0  0  0
  7 10  1  0  0  0  0
 10 11  1  0  0  0  0
 10 12  1  0  0  0  0
 10 13  1  0  0  0  0
 13 14  1  0  0  0  0
 13 15  1  0  0  0  0
 15 16  1  0  0  0  0
 15 17  1  0  0  0  0
 15 18  1  0  0  0  0
 18 19  1  0  0  0  0
 18 20  1  0  0  0  0
  1 21  1  0  0  0  0
 18 21  1  0  0  0  0
 21 22  1  0  0  0  0
 21 23  1  0  0  0  0
 13 24  1  0  0  0  0
 24 25  1  0  0  0  0
M  END
> <VConfSearch Rank>
259

> <Conf_Id>
68

> <Delta U+W>
-1.765

> <U+W>
9.148

> <U>
11.181

> <W>
-2.032

> <W(PB)>
-4.147

> <W(SA)>
2.114

> <Valence>
16.955

> <Coulomb>
-8.661

> <VdW>
2.887

> <VdW6>
-12.561

> <VdW12>
15.448

> <Bond>
0.433

> <Angle>
5.121

> <Pdih>
11.402

> <Idih>
0.000

> <Tether>
0.000

$$$$
VeraChem MOL file


 25 25  0  0  0  0  0  0  0  0999 V2000     
   18.9580   18.0178   21.9806 C   0  0  0  0  0  0  0  0  0  0  0  0
   18.2769   17.3099   21.4885 H   0  0  0  0  0  0  0  0  0  0  0  0
   18.3333   18.5208   22.7273 H   0  0  0  0  0  0  0  0  0  0  0  0
   19.4539   19.0286   20.9140 C   0  0  0  0  0  0  0  0  0  0  0  0
   20.4174   18.7167   20.4910 H   0  0  0  0  0  0  0  0  0  0  0  0
   18.7480   18.9936   20.0728 H   0  0  0  0  0  0  0  0  0  0  0  0
   19.5142   20.5030   21.3926 C   0  0  0  0  0  0  0  0  0  0  0  0
   18.5264   20.8053   21.7667 H   0  0  0  0  0  0  0  0  0  0  0  0
   19.7004   21.1323   20.5117 H   0  0  0  0  0  0  0  0  0  0  0  0
   20.5920   20.8471   22.4549 C   0  0  0  0  0  0  0  0  0  0  0  0
   21.5897   20.5796   22.0867 H   0  0  0  0  0  0  0  0  0  0  0  0
   20.6037   21.9414   22.5502 H   0  0  0  0  0  0  0  0  0  0  0  0
   20.3344   20.2316   23.8548 C   0  0  0  0  0  0  0  0  0  0  0  0
   19.2759   19.9587   23.9359 H   0  0  0  0  0  0  0  0  0  0  0  0
   21.2048   18.9955   24.1901 C   0  0  0  0  0  0  0  0  0  0  0  0
   22.2125   19.3407   24.4564 H   0  0  0  0  0  0  0  0  0  0  0  0
   20.8006   18.5223   25.0945 H   0  0  0  0  0  0  0  0  0  0  0  0
   21.3614   17.9190   23.0852 C   0  0  0  0  0  0  0  0  0  0  0  0
   22.0633   17.1629   23.4626 H   0  0  0  0  0  0  0  0  0  0  0  0
   21.8585   18.3426   22.2050 H   0  0  0  0  0  0  0  0  0  0  0  0
   20.0664   17.1784   22.6677 C   0  0  0  0  0  0  0  0  0  0  0  0
   19.6387   16.6721   23.5437 H   0  0  0  0  0  0  0  0  0  0  0  0
   20.3565   16.3766   21.9748 H   0  0  0  0  0  0  0  0  0  0  0  0
   20.6003   21.2216   24.8407 O   0  0  0  0  0  0  0  0  0  0  0  0
   21.5436   21.4652   24.7413 H   0  0  0  0  0  0  0  0  0  0  0  0
  1  2  1  0  0  0  0
  1  3  1  0  0  0  0
  1  4  1  0  0  0  0
  4  5  1  0  0  0  0
  4  6  1  0  0  0  0
  4  7  1  0  0  0  0
  7  8  1  0  0  0  0
  7  9  1  0  0  0  0
  7 10  1  0  0  0  0
 10 11  1  0  0  0  0
 10 12  1  0  0  0  0
 10 13  1  0  0  0  0
 13 14  1  0  0  0  0
 13 15  1  0  0  0  0
 15 16  1  0  0  0  0
 15 17  1  0  0  0  0
 15 18  1  0  0  0  0
 18 19  1  0  0  0  0
 18 20  1  0  0  0  0
  1 21  1  0  0  0  0
 18 21  1  0  0  0  0
 21 22  1  0  0  0  0
 21 23  1  0  0  0  0
 13 24  1  0  0  0  0
 24 25  1  0  0  0  0
M  END
> <VConfSearch Rank>
260

> <Conf_Id>
165

> <Delta U+W>
-1.999

> <U+W>
8.915

> <U>
10.935

> <W>
-2.020

> <W(PB)>
-4.135

> <W(SA)>
2.115

> <Valence>
16.757

> <Coulomb>
-8.731

> <VdW>
2.908

> <VdW6>
-12.597

> <VdW12>
15.506

> <Bond>
0.434

> <Angle>
5.069

> <Pdih>
11.254

> <Idih>
0.000

> <Tether>
0.000

$$$$
VeraChem MOL file


 25 25  0  0  0  0  0  0  0  0999 V2000     
   19.6526   18.2857   21.1959 C   0  0  0  0  0  0  0  0  0  0  0  0
   19.1803   17.7481   20.3622 H   0  0  0  0  0  0  0  0  0  0  0  0
   20.6389   18.5691   20.8116 H   0  0  0  0  0  0  0  0  0  0  0  0
   19.7878   17.2779   22.3671 C   0  0  0  0  0  0  0  0  0  0  0  0
   18.8579   16.6949   22.4151 H   0  0  0  0  0  0  0  0  0  0  0  0
   20.5784   16.5545   22.1256 H   0  0  0  0  0  0  0  0  0  0  0  0
   20.0403   17.8611   23.7800 C   0  0  0  0  0  0  0  0  0  0  0  0
   20.0108   17.0234   24.4900 H   0  0  0  0  0  0  0  0  0  0  0  0
   19.2070   18.5068   24.0800 H   0  0  0  0  0  0  0  0  0  0  0  0
   21.3926   18.5917   23.9841 C   0  0  0  0  0  0  0  0  0  0  0  0
   21.4702   18.8479   25.0494 H   0  0  0  0  0  0  0  0  0  0  0  0
   22.2099   17.8876   23.7818 H   0  0  0  0  0  0  0  0  0  0  0  0
   21.6319   19.8795   23.1583 C   0  0  0  0  0  0  0  0  0  0  0  0
   21.9026   19.6059   22.1318 H   0  0  0  0  0  0  0  0  0  0  0  0
   20.4272   20.8548   23.1183 C   0  0  0  0  0  0  0  0  0  0  0  0
   19.7623   20.6893   23.9743 H   0  0  0  0  0  0  0  0  0  0  0  0
   20.8053   21.8784   23.2441 H   0  0  0  0  0  0  0  0  0  0  0  0
   19.6218   20.8308   21.7917 C   0  0  0  0  0  0  0  0  0  0  0  0
   20.3009   21.0298   20.9514 H   0  0  0  0  0  0  0  0  0  0  0  0
   18.9215   21.6770   21.8109 H   0  0  0  0  0  0  0  0  0  0  0  0
   18.8019   19.5469   21.4979 C   0  0  0  0  0  0  0  0  0  0  0  0
   18.1909   19.7537   20.6086 H   0  0  0  0  0  0  0  0  0  0  0  0
   18.0798   19.3539   22.3015 H   0  0  0  0  0  0  0  0  0  0  0  0
   22.7422   20.5563   23.7369 O   0  0  0  0  0  0  0  0  0  0  0  0
   23.4984   19.9337   23.7084 H   0  0  0  0  0  0  0  0  0  0  0  0
  1  2  1  0  0  0  0
  1  3  1  0  0  0  0
  1  4  1  0  0  0  0
  4  5  1  0  0  0  0
  4  6  1  0  0  0  0
  4  7  1  0  0  0  0
  7  8  1  0  0  0  0
  7  9  1  0  0  0  0
  7 10  1  0  0  0  0
 10 11  1  0  0  0  0
 10 12  1  0  0  0  0
 10 13  1  0  0  0  0
 13 14  1  0  0  0  0
 13 15  1  0  0  0  0
 15 16  1  0  0  0  0
 15 17  1  0  0  0  0
 15 18  1  0  0  0  0
 18 19  1  0  0  0  0
 18 20  1  0  0  0  0
  1 21  1  0  0  0  0
 18 21  1  0  0  0  0
 21 22  1  0  0  0  0
 21 23  1  0  0  0  0
 13 24  1  0  0  0  0
 24 25  1  0  0  0  0
M  END
> <VConfSearch Rank>
261

> <Conf_Id>
133

> <Delta U+W>
-2.139

> <U+W>
8.774

> <U>
10.905

> <W>
-2.131

> <W(PB)>
-4.281

> <W(SA)>
2.150

> <Valence>
16.378

> <Coulomb>
-8.448

> <VdW>
2.976

> <VdW6>
-12.570

> <VdW12>
15.545

> <Bond>
0.439

> <Angle>
5.049

> <Pdih>
10.889

> <Idih>
0.000

> <Tether>
0.000

$$$$
VeraChem MOL file


 25 25  0  0  0  0  0  0  0  0999 V2000     
   18.9896   18.0647   22.1050 C   0  0  0  0  0  0  0  0  0  0  0  0
   18.2656   17.3421   21.7041 H   0  0  0  0  0  0  0  0  0  0  0  0
   18.4472   18.5738   22.9096 H   0  0  0  0  0  0  0  0  0  0  0  0
   19.3494   19.0627   20.9735 C   0  0  0  0  0  0  0  0  0  0  0  0
   20.2613   18.7523   20.4475 H   0  0  0  0  0  0  0  0  0  0  0  0
   18.5523   19.0081   20.2194 H   0  0  0  0  0  0  0  0  0  0  0  0
   19.4491   20.5452   21.4196 C   0  0  0  0  0  0  0  0  0  0  0  0
   18.5070   20.8459   21.8982 H   0  0  0  0  0  0  0  0  0  0  0  0
   19.5288   21.1617   20.5138 H   0  0  0  0  0  0  0  0  0  0  0  0
   20.6366   20.9150   22.3481 C   0  0  0  0  0  0  0  0  0  0  0  0
   21.5902   20.6518   21.8753 H   0  0  0  0  0  0  0  0  0  0  0  0
   20.6504   22.0104   22.4283 H   0  0  0  0  0  0  0  0  0  0  0  0
   20.5463   20.3206   23.7773 C   0  0  0  0  0  0  0  0  0  0  0  0
   19.5066   20.0387   23.9805 H   0  0  0  0  0  0  0  0  0  0  0  0
   21.4650   19.0995   24.0277 C   0  0  0  0  0  0  0  0  0  0  0  0
   22.4917   19.4652   24.1649 H   0  0  0  0  0  0  0  0  0  0  0  0
   21.1795   18.6344   24.9800 H   0  0  0  0  0  0  0  0  0  0  0  0
   21.5048   18.0066   22.9286 C   0  0  0  0  0  0  0  0  0  0  0  0
   22.2541   17.2634   23.2335 H   0  0  0  0  0  0  0  0  0  0  0  0
   21.8923   18.4206   21.9906 H   0  0  0  0  0  0  0  0  0  0  0  0
   20.1783   17.2476   22.6748 C   0  0  0  0  0  0  0  0  0  0  0  0
   19.8591   16.7529   23.6021 H   0  0  0  0  0  0  0  0  0  0  0  0
   20.3959   16.4363   21.9666 H   0  0  0  0  0  0  0  0  0  0  0  0
   20.9153   21.3298   24.7106 O   0  0  0  0  0  0  0  0  0  0  0  0
   20.8061   20.9417   25.6038 H   0  0  0  0  0  0  0  0  0  0  0  0
  1  2  1  0  0  0  0
  1  3  1  0  0  0  0
  1  4  1  0  0  0  0
  4  5  1  0  0  0  0
  4  6  1  0  0  0  0
  4  7  1  0  0  0  0
  7  8  1  0  0  0  0
  7  9  1  0  0  0  0
  7 10  1  0  0  0  0
 10 11  1  0  0  0  0
 10 12  1  0  0  0  0
 10 13  1  0  0  0  0
 13 14  1  0  0  0  0
 13 15  1  0  0  0  0
 15 16  1  0  0  0  0
 15 17  1  0  0  0  0
 15 18  1  0  0  0  0
 18 19  1  0  0  0  0
 18 20  1  0  0  0  0
  1 21  1  0  0  0  0
 18 21  1  0  0  0  0
 21 22  1  0  0  0  0
 21 23  1  0  0  0  0
 13 24  1  0  0  0  0
 24 25  1  0  0  0  0
M  END
> <VConfSearch Rank>
262

> <Conf_Id>
95

> <Delta U+W>
-2.190

> <U+W>
8.723

> <U>
10.905

> <W>
-2.182

> <W(PB)>
-4.296

> <W(SA)>
2.114

> <Valence>
16.377

> <Coulomb>
-8.448

> <VdW>
2.976

> <VdW6>
-12.570

> <VdW12>
15.546

> <Bond>
0.439

> <Angle>
5.049

> <Pdih>
10.889

> <Idih>
0.000

> <Tether>
0.000

$$$$
VeraChem MOL file


 25 25  0  0  0  0  0  0  0  0999 V2000     
   20.0402   17.4971   21.9815 C   0  0  0  0  0  0  0  0  0  0  0  0
   19.8011   16.5368   21.5045 H   0  0  0  0  0  0  0  0  0  0  0  0
   20.5752   17.2030   22.8901 H   0  0  0  0  0  0  0  0  0  0  0  0
   18.6860   18.1823   22.3292 C   0  0  0  0  0  0  0  0  0  0  0  0
   17.9737   17.9225   21.5342 H   0  0  0  0  0  0  0  0  0  0  0  0
   18.2811   17.7280   23.2436 H   0  0  0  0  0  0  0  0  0  0  0  0
   18.6606   19.7270   22.4699 C   0  0  0  0  0  0  0  0  0  0  0  0
   17.6128   20.0322   22.5954 H   0  0  0  0  0  0  0  0  0  0  0  0
   18.9469   20.1816   21.5162 H   0  0  0  0  0  0  0  0  0  0  0  0
   19.4655   20.3538   23.6471 C   0  0  0  0  0  0  0  0  0  0  0  0
   19.6626   21.4096   23.4196 H   0  0  0  0  0  0  0  0  0  0  0  0
   18.8034   20.3574   24.5228 H   0  0  0  0  0  0  0  0  0  0  0  0
   20.7898   19.6722   24.0755 C   0  0  0  0  0  0  0  0  0  0  0  0
   20.5662   18.6340   24.3421 H   0  0  0  0  0  0  0  0  0  0  0  0
   21.9625   19.7058   23.0536 C   0  0  0  0  0  0  0  0  0  0  0  0
   22.5041   20.6512   23.1917 H   0  0  0  0  0  0  0  0  0  0  0  0
   22.6754   18.9156   23.3213 H   0  0  0  0  0  0  0  0  0  0  0  0
   21.6304   19.5936   21.5409 C   0  0  0  0  0  0  0  0  0  0  0  0
   22.5653   19.7445   20.9841 H   0  0  0  0  0  0  0  0  0  0  0  0
   21.0141   20.4472   21.2417 H   0  0  0  0  0  0  0  0  0  0  0  0
   21.0086   18.2581   21.0378 C   0  0  0  0  0  0  0  0  0  0  0  0
   21.8379   17.5742   20.8113 H   0  0  0  0  0  0  0  0  0  0  0  0
   20.5084   18.4391   20.0768 H   0  0  0  0  0  0  0  0  0  0  0  0
   21.2403   20.3239   25.2574 O   0  0  0  0  0  0  0  0  0  0  0  0
   20.5210   20.2414   25.9177 H   0  0  0  0  0  0  0  0  0  0  0  0
  1  2  1  0  0  0  0
  1  3  1  0  0  0  0
  1  4  1  0  0  0  0
  4  5  1  0  0  0  0
  4  6  1  0  0  0  0
  4  7  1  0  0  0  0
  7  8  1  0  0  0  0
  7  9  1  0  0  0  0
  7 10  1  0  0  0  0
 10 11  1  0  0  0  0
 10 12  1  0  0  0  0
 10 13  1  0  0  0  0
 13 14  1  0  0  0  0
 13 15  1  0  0  0  0
 15 16  1  0  0  0  0
 15 17  1  0  0  0  0
 15 18  1  0  0  0  0
 18 19  1  0  0  0  0
 18 20  1  0  0  0  0
  1 21  1  0  0  0  0
 18 21  1  0  0  0  0
 21 22  1  0  0  0  0
 21 23  1  0  0  0  0
 13 24  1  0  0  0  0
 24 25  1  0  0  0  0
M  END
> <VConfSearch Rank>
263

> <Conf_Id>
161

> <Delta U+W>
2.120

> <U+W>
13.033

> <U>
15.076

> <W>
-2.043

> <W(PB)>
-4.186

> <W(SA)>
2.143

> <Valence>
18.884

> <Coulomb>
-8.074

> <VdW>
4.266

> <VdW6>
-13.486

> <VdW12>
17.752

> <Bond>
0.713

> <Angle>
8.955

> <Pdih>
9.215

> <Idih>
0.000

> <Tether>
0.000

$$$$
VeraChem MOL file


 25 25  0  0  0  0  0  0  0  0999 V2000     
   21.6911   18.1437   23.5804 C   0  0  0  0  0  0  0  0  0  0  0  0
   22.4701   17.4262   23.8721 H   0  0  0  0  0  0  0  0  0  0  0  0
   21.3691   18.6050   24.5226 H   0  0  0  0  0  0  0  0  0  0  0  0
   20.5187   17.3485   22.9536 C   0  0  0  0  0  0  0  0  0  0  0  0
   20.6864   17.1868   21.8803 H   0  0  0  0  0  0  0  0  0  0  0  0
   20.5369   16.3466   23.4043 H   0  0  0  0  0  0  0  0  0  0  0  0
   19.1045   17.9355   23.2195 C   0  0  0  0  0  0  0  0  0  0  0  0
   19.0332   18.3546   24.2322 H   0  0  0  0  0  0  0  0  0  0  0  0
   18.4026   17.0903   23.2053 H   0  0  0  0  0  0  0  0  0  0  0  0
   18.6009   18.9544   22.1646 C   0  0  0  0  0  0  0  0  0  0  0  0
   18.9754   18.6777   21.1716 H   0  0  0  0  0  0  0  0  0  0  0  0
   17.5101   18.8502   22.0946 H   0  0  0  0  0  0  0  0  0  0  0  0
   18.8818   20.4483   22.4666 C   0  0  0  0  0  0  0  0  0  0  0  0
   18.2440   20.7476   23.3106 H   0  0  0  0  0  0  0  0  0  0  0  0
   20.3384   20.8140   22.8343 C   0  0  0  0  0  0  0  0  0  0  0  0
   20.4394   21.9069   22.7941 H   0  0  0  0  0  0  0  0  0  0  0  0
   20.5139   20.5626   23.8858 H   0  0  0  0  0  0  0  0  0  0  0  0
   21.4223   20.1773   21.9239 C   0  0  0  0  0  0  0  0  0  0  0  0
   22.0346   20.9793   21.4895 H   0  0  0  0  0  0  0  0  0  0  0  0
   20.9709   19.6703   21.0635 H   0  0  0  0  0  0  0  0  0  0  0  0
   22.3651   19.1949   22.6593 C   0  0  0  0  0  0  0  0  0  0  0  0
   23.0756   19.7743   23.2646 H   0  0  0  0  0  0  0  0  0  0  0  0
   22.9709   18.6715   21.9072 H   0  0  0  0  0  0  0  0  0  0  0  0
   18.5105   21.2040   21.3223 O   0  0  0  0  0  0  0  0  0  0  0  0
   19.1866   21.0095   20.6419 H   0  0  0  0  0  0  0  0  0  0  0  0
  1  2  1  0  0  0  0
  1  3  1  0  0  0  0
  1  4  1  0  0  0  0
  4  5  1  0  0  0  0
  4  6  1  0  0  0  0
  4  7  1  0  0  0  0
  7  8  1  0  0  0  0
  7  9  1  0  0  0  0
  7 10  1  0  0  0  0
 10 11  1  0  0  0  0
 10 12  1  0  0  0  0
 10 13  1  0  0  0  0
 13 14  1  0  0  0  0
 13 15  1  0  0  0  0
 15 16  1  0  0  0  0
 15 17  1  0  0  0  0
 15 18  1  0  0  0  0
 18 19  1  0  0  0  0
 18 20  1  0  0  0  0
  1 21  1  0  0  0  0
 18 21  1  0  0  0  0
 21 22  1  0  0  0  0
 21 23  1  0  0  0  0
 13 24  1  0  0  0  0
 24 25  1  0  0  0  0
M  END
> <VConfSearch Rank>
264

> <Conf_Id>
164

> <Delta U+W>
0.008

> <U+W>
10.922

> <U>
12.433

> <W>
-1.511

> <W(PB)>
-3.669

> <W(SA)>
2.157

> <Valence>
19.007

> <Coulomb>
-9.373

> <VdW>
2.799

> <VdW6>
-12.597

> <VdW12>
15.396

> <Bond>
0.425

> <Angle>
4.784

> <Pdih>
13.799

> <Idih>
0.000

> <Tether>
0.000

$$$$
VeraChem MOL file


 25 25  0  0  0  0  0  0  0  0999 V2000     
   21.6422   18.1155   22.0566 C   0  0  0  0  0  0  0  0  0  0  0  0
   22.0983   18.7265   22.8437 H   0  0  0  0  0  0  0  0  0  0  0  0
   22.4523   17.4579   21.7131 H   0  0  0  0  0  0  0  0  0  0  0  0
   21.2290   19.0018   20.8552 C   0  0  0  0  0  0  0  0  0  0  0  0
   22.1386   19.4881   20.4770 H   0  0  0  0  0  0  0  0  0  0  0  0
   20.8729   18.3612   20.0371 H   0  0  0  0  0  0  0  0  0  0  0  0
   20.1765   20.1081   21.1221 C   0  0  0  0  0  0  0  0  0  0  0  0
   19.1629   19.6937   21.0791 H   0  0  0  0  0  0  0  0  0  0  0  0
   20.2225   20.8094   20.2776 H   0  0  0  0  0  0  0  0  0  0  0  0
   20.3800   20.9140   22.4328 C   0  0  0  0  0  0  0  0  0  0  0  0
   21.4294   20.8888   22.7503 H   0  0  0  0  0  0  0  0  0  0  0  0
   20.1714   21.9677   22.2035 H   0  0  0  0  0  0  0  0  0  0  0  0
   19.4423   20.5106   23.5983 C   0  0  0  0  0  0  0  0  0  0  0  0
   18.4063   20.5455   23.2321 H   0  0  0  0  0  0  0  0  0  0  0  0
   19.6839   19.1172   24.2311 C   0  0  0  0  0  0  0  0  0  0  0  0
   20.7105   19.0329   24.6077 H   0  0  0  0  0  0  0  0  0  0  0  0
   19.0424   19.0533   25.1202 H   0  0  0  0  0  0  0  0  0  0  0  0
   19.3267   17.9144   23.3176 C   0  0  0  0  0  0  0  0  0  0  0  0
   18.5882   18.2102   22.5638 H   0  0  0  0  0  0  0  0  0  0  0  0
   18.8094   17.1617   23.9282 H   0  0  0  0  0  0  0  0  0  0  0  0
   20.5345   17.2092   22.6493 C   0  0  0  0  0  0  0  0  0  0  0  0
   20.1640   16.5312   21.8685 H   0  0  0  0  0  0  0  0  0  0  0  0
   21.0059   16.5641   23.4033 H   0  0  0  0  0  0  0  0  0  0  0  0
   19.5896   21.4815   24.6254 O   0  0  0  0  0  0  0  0  0  0  0  0
   20.5190   21.4245   24.9281 H   0  0  0  0  0  0  0  0  0  0  0  0
  1  2  1  0  0  0  0
  1  3  1  0  0  0  0
  1  4  1  0  0  0  0
  4  5  1  0  0  0  0
  4  6  1  0  0  0  0
  4  7  1  0  0  0  0
  7  8  1  0  0  0  0
  7  9  1  0  0  0  0
  7 10  1  0  0  0  0
 10 11  1  0  0  0  0
 10 12  1  0  0  0  0
 10 13  1  0  0  0  0
 13 14  1  0  0  0  0
 13 15  1  0  0  0  0
 15 16  1  0  0  0  0
 15 17  1  0  0  0  0
 15 18  1  0  0  0  0
 18 19  1  0  0  0  0
 18 20  1  0  0  0  0
  1 21  1  0  0  0  0
 18 21  1  0  0  0  0
 21 22  1  0  0  0  0
 21 23  1  0  0  0  0
 13 24  1  0  0  0  0
 24 25  1  0  0  0  0
M  END
> <VConfSearch Rank>
265

> <Conf_Id>
15

> <Delta U+W>
-1.271

> <U+W>
9.643

> <U>
11.413

> <W>
-1.770

> <W(PB)>
-3.908

> <W(SA)>
2.138

> <Valence>
17.496

> <Coulomb>
-8.736

> <VdW>
2.653

> <VdW6>
-12.485

> <VdW12>
15.138

> <Bond>
0.414

> <Angle>
5.295

> <Pdih>
11.787

> <Idih>
0.000

> <Tether>
0.000

$$$$
VeraChem MOL file


 25 25  0  0  0  0  0  0  0  0999 V2000     
   20.3166   20.9670   21.8429 C   0  0  0  0  0  0  0  0  0  0  0  0
   20.3969   21.8747   21.2293 H   0  0  0  0  0  0  0  0  0  0  0  0
   20.3160   21.3288   22.8789 H   0  0  0  0  0  0  0  0  0  0  0  0
   18.9582   20.3035   21.4944 C   0  0  0  0  0  0  0  0  0  0  0  0
   18.1553   20.9673   21.8429 H   0  0  0  0  0  0  0  0  0  0  0  0
   18.8547   20.2581   20.4017 H   0  0  0  0  0  0  0  0  0  0  0  0
   18.7116   18.8858   22.0643 C   0  0  0  0  0  0  0  0  0  0  0  0
   19.2479   18.1478   21.4566 H   0  0  0  0  0  0  0  0  0  0  0  0
   17.6490   18.6433   21.9269 H   0  0  0  0  0  0  0  0  0  0  0  0
   19.0667   18.7358   23.5666 C   0  0  0  0  0  0  0  0  0  0  0  0
   19.2858   19.7107   24.0160 H   0  0  0  0  0  0  0  0  0  0  0  0
   18.1775   18.3733   24.0988 H   0  0  0  0  0  0  0  0  0  0  0  0
   20.2190   17.7469   23.8574 C   0  0  0  0  0  0  0  0  0  0  0  0
   19.8280   16.7294   23.7134 H   0  0  0  0  0  0  0  0  0  0  0  0
   21.4852   17.8783   22.9720 C   0  0  0  0  0  0  0  0  0  0  0  0
   22.2546   17.2318   23.4150 H   0  0  0  0  0  0  0  0  0  0  0  0
   21.2984   17.4426   21.9832 H   0  0  0  0  0  0  0  0  0  0  0  0
   22.0875   19.2999   22.8125 C   0  0  0  0  0  0  0  0  0  0  0  0
   23.1702   19.1714   22.6772 H   0  0  0  0  0  0  0  0  0  0  0  0
   21.9795   19.8826   23.7365 H   0  0  0  0  0  0  0  0  0  0  0  0
   21.5755   20.1026   21.5848 C   0  0  0  0  0  0  0  0  0  0  0  0
   21.4281   19.4480   20.7153 H   0  0  0  0  0  0  0  0  0  0  0  0
   22.3814   20.7914   21.2965 H   0  0  0  0  0  0  0  0  0  0  0  0
   20.6021   17.8997   25.2169 O   0  0  0  0  0  0  0  0  0  0  0  0
   21.0291   18.7778   25.2776 H   0  0  0  0  0  0  0  0  0  0  0  0
  1  2  1  0  0  0  0
  1  3  1  0  0  0  0
  1  4  1  0  0  0  0
  4  5  1  0  0  0  0
  4  6  1  0  0  0  0
  4  7  1  0  0  0  0
  7  8  1  0  0  0  0
  7  9  1  0  0  0  0
  7 10  1  0  0  0  0
 10 11  1  0  0  0  0
 10 12  1  0  0  0  0
 10 13  1  0  0  0  0
 13 14  1  0  0  0  0
 13 15  1  0  0  0  0
 15 16  1  0  0  0  0
 15 17  1  0  0  0  0
 15 18  1  0  0  0  0
 18 19  1  0  0  0  0
 18 20  1  0  0  0  0
  1 21  1  0  0  0  0
 18 21  1  0  0  0  0
 21 22  1  0  0  0  0
 21 23  1  0  0  0  0
 13 24  1  0  0  0  0
 24 25  1  0  0  0  0
M  END
> <VConfSearch Rank>
266

> <Conf_Id>
115

> <Delta U+W>
0.038

> <U+W>
10.952

> <U>
12.526

> <W>
-1.575

> <W(PB)>
-3.698

> <W(SA)>
2.123

> <Valence>
19.016

> <Coulomb>
-9.226

> <VdW>
2.737

> <VdW6>
-12.612

> <VdW12>
15.349

> <Bond>
0.421

> <Angle>
4.883

> <Pdih>
13.711

> <Idih>
0.000

> <Tether>
0.000

$$$$
VeraChem MOL file


 25 25  0  0  0  0  0  0  0  0999 V2000     
   18.8031   17.7544   22.6380 C   0  0  0  0  0  0  0  0  0  0  0  0
   17.9675   17.1940   23.0791 H   0  0  0  0  0  0  0  0  0  0  0  0
   18.8024   17.4924   21.5713 H   0  0  0  0  0  0  0  0  0  0  0  0
   20.1017   17.2484   23.3082 C   0  0  0  0  0  0  0  0  0  0  0  0
   20.0494   17.4006   24.3947 H   0  0  0  0  0  0  0  0  0  0  0  0
   20.1427   16.1599   23.1645 H   0  0  0  0  0  0  0  0  0  0  0  0
   21.4098   17.8521   22.7466 C   0  0  0  0  0  0  0  0  0  0  0  0
   21.3615   17.9144   21.6512 H   0  0  0  0  0  0  0  0  0  0  0  0
   22.2191   17.1412   22.9626 H   0  0  0  0  0  0  0  0  0  0  0  0
   21.8062   19.2148   23.3758 C   0  0  0  0  0  0  0  0  0  0  0  0
   21.2248   19.4191   24.2835 H   0  0  0  0  0  0  0  0  0  0  0  0
   22.8492   19.1300   23.7098 H   0  0  0  0  0  0  0  0  0  0  0  0
   21.7144   20.4162   22.4083 C   0  0  0  0  0  0  0  0  0  0  0  0
   22.0104   20.0862   21.4022 H   0  0  0  0  0  0  0  0  0  0  0  0
   20.3194   21.0753   22.3301 C   0  0  0  0  0  0  0  0  0  0  0  0
   20.0342   21.4663   23.3156 H   0  0  0  0  0  0  0  0  0  0  0  0
   20.4037   21.9516   21.6741 H   0  0  0  0  0  0  0  0  0  0  0  0
   19.1912   20.1774   21.7665 C   0  0  0  0  0  0  0  0  0  0  0  0
   19.5560   19.5982   20.9077 H   0  0  0  0  0  0  0  0  0  0  0  0
   18.4165   20.8424   21.3604 H   0  0  0  0  0  0  0  0  0  0  0  0
   18.5114   19.2626   22.8186 C   0  0  0  0  0  0  0  0  0  0  0  0
   17.4257   19.3990   22.7196 H   0  0  0  0  0  0  0  0  0  0  0  0
   18.7512   19.5795   23.8423 H   0  0  0  0  0  0  0  0  0  0  0  0
   22.6318   21.4091   22.8511 O   0  0  0  0  0  0  0  0  0  0  0  0
   22.5983   22.1377   22.1966 H   0  0  0  0  0  0  0  0  0  0  0  0
  1  2  1  0  0  0  0
  1  3  1  0  0  0  0
  1  4  1  0  0  0  0
  4  5  1  0  0  0  0
  4  6  1  0  0  0  0
  4  7  1  0  0  0  0
  7  8  1  0  0  0  0
  7  9  1  0  0  0  0
  7 10  1  0  0  0  0
 10 11  1  0  0  0  0
 10 12  1  0  0  0  0
 10 13  1  0  0  0  0
 13 14  1  0  0  0  0
 13 15  1  0  0  0  0
 15 16  1  0  0  0  0
 15 17  1  0  0  0  0
 15 18  1  0  0  0  0
 18 19  1  0  0  0  0
 18 20  1  0  0  0  0
  1 21  1  0  0  0  0
 18 21  1  0  0  0  0
 21 22  1  0  0  0  0
 21 23  1  0  0  0  0
 13 24  1  0  0  0  0
 24 25  1  0  0  0  0
M  END
> <VConfSearch Rank>
267

> <Conf_Id>
30

> <Delta U+W>
0.000

> <U+W>
10.913

> <U>
13.140

> <W>
-2.227

> <W(PB)>
-4.367

> <W(SA)>
2.140

> <Valence>
19.155

> <Coulomb>
-8.157

> <VdW>
2.142

> <VdW6>
-11.576

> <VdW12>
13.718

> <Bond>
0.294

> <Angle>
3.547

> <Pdih>
15.314

> <Idih>
0.000

> <Tether>
0.000

$$$$
VeraChem MOL file


 25 25  0  0  0  0  0  0  0  0999 V2000     
   19.0752   19.4987   20.9172 C   0  0  0  0  0  0  0  0  0  0  0  0
   19.2948   19.5133   19.8409 H   0  0  0  0  0  0  0  0  0  0  0  0
   18.0028   19.7205   21.0042 H   0  0  0  0  0  0  0  0  0  0  0  0
   19.8642   20.6459   21.5950 C   0  0  0  0  0  0  0  0  0  0  0  0
   19.7678   21.5409   20.9652 H   0  0  0  0  0  0  0  0  0  0  0  0
   19.3792   20.9186   22.5394 H   0  0  0  0  0  0  0  0  0  0  0  0
   21.3707   20.3497   21.8064 C   0  0  0  0  0  0  0  0  0  0  0  0
   21.9573   21.1459   21.3282 H   0  0  0  0  0  0  0  0  0  0  0  0
   21.6682   19.4321   21.2857 H   0  0  0  0  0  0  0  0  0  0  0  0
   21.7960   20.2674   23.2943 C   0  0  0  0  0  0  0  0  0  0  0  0
   22.8195   19.8723   23.3409 H   0  0  0  0  0  0  0  0  0  0  0  0
   21.8480   21.2871   23.6975 H   0  0  0  0  0  0  0  0  0  0  0  0
   20.8900   19.4355   24.2362 C   0  0  0  0  0  0  0  0  0  0  0  0
   19.9445   19.9712   24.3945 H   0  0  0  0  0  0  0  0  0  0  0  0
   20.5703   18.0025   23.7444 C   0  0  0  0  0  0  0  0  0  0  0  0
   21.4073   17.6056   23.1558 H   0  0  0  0  0  0  0  0  0  0  0  0
   20.4980   17.3482   24.6234 H   0  0  0  0  0  0  0  0  0  0  0  0
   19.2302   17.8593   22.9690 C   0  0  0  0  0  0  0  0  0  0  0  0
   18.4527   18.5077   23.3951 H   0  0  0  0  0  0  0  0  0  0  0  0
   18.8751   16.8325   23.1330 H   0  0  0  0  0  0  0  0  0  0  0  0
   19.3336   18.0593   21.4366 C   0  0  0  0  0  0  0  0  0  0  0  0
   18.5868   17.4091   20.9606 H   0  0  0  0  0  0  0  0  0  0  0  0
   20.2997   17.6856   21.0743 H   0  0  0  0  0  0  0  0  0  0  0  0
   21.5594   19.3419   25.4881 O   0  0  0  0  0  0  0  0  0  0  0  0
   20.9474   18.8846   26.1020 H   0  0  0  0  0  0  0  0  0  0  0  0
  1  2  1  0  0  0  0
  1  3  1  0  0  0  0
  1  4  1  0  0  0  0
  4  5  1  0  0  0  0
  4  6  1  0  0  0  0
  4  7  1  0  0  0  0
  7  8  1  0  0  0  0
  7  9  1  0  0  0  0
  7 10  1  0  0  0  0
 10 11  1  0  0  0  0
 10 12  1  0  0  0  0
 10 13  1  0  0  0  0
 13 14  1  0  0  0  0
 13 15  1  0  0  0  0
 15 16  1  0  0  0  0
 15 17  1  0  0  0  0
 15 18  1  0  0  0  0
 18 19  1  0  0  0  0
 18 20  1  0  0  0  0
  1 21  1  0  0  0  0
 18 21  1  0  0  0  0
 21 22  1  0  0  0  0
 21 23  1  0  0  0  0
 13 24  1  0  0  0  0
 24 25  1  0  0  0  0
M  END
> <VConfSearch Rank>
268

> <Conf_Id>
162

> <Delta U+W>
0.219

> <U+W>
11.132

> <U>
13.296

> <W>
-2.164

> <W(PB)>
-4.311

> <W(SA)>
2.148

> <Valence>
18.607

> <Coulomb>
-8.339

> <VdW>
3.028

> <VdW6>
-12.271

> <VdW12>
15.299

> <Bond>
0.423

> <Angle>
4.488

> <Pdih>
13.696

> <Idih>
0.000

> <Tether>
0.000

$$$$
VeraChem MOL file


 25 25  0  0  0  0  0  0  0  0999 V2000     
   18.7818   19.2588   21.4294 C   0  0  0  0  0  0  0  0  0  0  0  0
   18.2377   19.8141   22.2038 H   0  0  0  0  0  0  0  0  0  0  0  0
   18.0798   19.1931   20.5868 H   0  0  0  0  0  0  0  0  0  0  0  0
   20.0142   20.0730   20.9624 C   0  0  0  0  0  0  0  0  0  0  0  0
   20.7506   19.4203   20.4746 H   0  0  0  0  0  0  0  0  0  0  0  0
   19.6652   20.7560   20.1758 H   0  0  0  0  0  0  0  0  0  0  0  0
   20.6809   20.9513   22.0578 C   0  0  0  0  0  0  0  0  0  0  0  0
   19.9290   21.3857   22.7302 H   0  0  0  0  0  0  0  0  0  0  0  0
   21.1387   21.8071   21.5429 H   0  0  0  0  0  0  0  0  0  0  0  0
   21.8089   20.2583   22.8656 C   0  0  0  0  0  0  0  0  0  0  0  0
   22.3511   19.5540   22.2228 H   0  0  0  0  0  0  0  0  0  0  0  0
   22.5488   21.0240   23.1328 H   0  0  0  0  0  0  0  0  0  0  0  0
   21.3857   19.5728   24.1893 C   0  0  0  0  0  0  0  0  0  0  0  0
   21.1298   20.3625   24.9104 H   0  0  0  0  0  0  0  0  0  0  0  0
   20.1737   18.6144   24.1076 C   0  0  0  0  0  0  0  0  0  0  0  0
   20.1149   18.0447   25.0440 H   0  0  0  0  0  0  0  0  0  0  0  0
   19.2526   19.2067   24.0908 H   0  0  0  0  0  0  0  0  0  0  0  0
   20.2125   17.6176   22.9192 C   0  0  0  0  0  0  0  0  0  0  0  0
   20.1555   16.5944   23.3145 H   0  0  0  0  0  0  0  0  0  0  0  0
   21.1778   17.6631   22.4013 H   0  0  0  0  0  0  0  0  0  0  0  0
   19.0665   17.8065   21.8960 C   0  0  0  0  0  0  0  0  0  0  0  0
   18.1411   17.3978   22.3242 H   0  0  0  0  0  0  0  0  0  0  0  0
   19.2868   17.1875   21.0156 H   0  0  0  0  0  0  0  0  0  0  0  0
   22.5060   18.8457   24.6796 O   0  0  0  0  0  0  0  0  0  0  0  0
   22.2212   18.4177   25.5132 H   0  0  0  0  0  0  0  0  0  0  0  0
  1  2  1  0  0  0  0
  1  3  1  0  0  0  0
  1  4  1  0  0  0  0
  4  5  1  0  0  0  0
  4  6  1  0  0  0  0
  4  7  1  0  0  0  0
  7  8  1  0  0  0  0
  7  9  1  0  0  0  0
  7 10  1  0  0  0  0
 10 11  1  0  0  0  0
 10 12  1  0  0  0  0
 10 13  1  0  0  0  0
 13 14  1  0  0  0  0
 13 15  1  0  0  0  0
 15 16  1  0  0  0  0
 15 17  1  0  0  0  0
 15 18  1  0  0  0  0
 18 19  1  0  0  0  0
 18 20  1  0  0  0  0
  1 21  1  0  0  0  0
 18 21  1  0  0  0  0
 21 22  1  0  0  0  0
 21 23  1  0  0  0  0
 13 24  1  0  0  0  0
 24 25  1  0  0  0  0
M  END
> <VConfSearch Rank>
269

> <Conf_Id>
155

> <Delta U+W>
0.339

> <U+W>
11.252

> <U>
13.420

> <W>
-2.167

> <W(PB)>
-4.325

> <W(SA)>
2.157

> <Valence>
18.609

> <Coulomb>
-8.052

> <VdW>
2.863

> <VdW6>
-12.524

> <VdW12>
15.387

> <Bond>
0.430

> <Angle>
4.724

> <Pdih>
13.455

> <Idih>
0.000

> <Tether>
0.000

$$$$
VeraChem MOL file


 25 25  0  0  0  0  0  0  0  0999 V2000     
   20.6048   18.3275   24.4544 C   0  0  0  0  0  0  0  0  0  0  0  0
   21.3228   17.4964   24.4481 H   0  0  0  0  0  0  0  0  0  0  0  0
   20.2576   18.4058   25.4937 H   0  0  0  0  0  0  0  0  0  0  0  0
   21.3494   19.6486   24.1271 C   0  0  0  0  0  0  0  0  0  0  0  0
   20.6609   20.4910   24.2476 H   0  0  0  0  0  0  0  0  0  0  0  0
   22.0964   19.8126   24.9156 H   0  0  0  0  0  0  0  0  0  0  0  0
   22.0968   19.7351   22.7643 C   0  0  0  0  0  0  0  0  0  0  0  0
   23.0997   19.3120   22.9117 H   0  0  0  0  0  0  0  0  0  0  0  0
   22.2581   20.7923   22.5132 H   0  0  0  0  0  0  0  0  0  0  0  0
   21.4742   19.0109   21.5396 C   0  0  0  0  0  0  0  0  0  0  0  0
   22.2042   19.0639   20.7214 H   0  0  0  0  0  0  0  0  0  0  0  0
   21.4132   17.9393   21.7487 H   0  0  0  0  0  0  0  0  0  0  0  0
   20.1118   19.5339   20.9970 C   0  0  0  0  0  0  0  0  0  0  0  0
   19.6293   18.7094   20.4528 H   0  0  0  0  0  0  0  0  0  0  0  0
   19.0923   20.0871   22.0242 C   0  0  0  0  0  0  0  0  0  0  0  0
   19.5308   20.9501   22.5335 H   0  0  0  0  0  0  0  0  0  0  0  0
   18.2553   20.5180   21.4589 H   0  0  0  0  0  0  0  0  0  0  0  0
   18.4792   19.0893   23.0521 C   0  0  0  0  0  0  0  0  0  0  0  0
   17.6062   18.6221   22.5763 H   0  0  0  0  0  0  0  0  0  0  0  0
   18.0795   19.6571   23.9031 H   0  0  0  0  0  0  0  0  0  0  0  0
   19.3753   17.9391   23.5819 C   0  0  0  0  0  0  0  0  0  0  0  0
   19.6770   17.2993   22.7467 H   0  0  0  0  0  0  0  0  0  0  0  0
   18.7424   17.2808   24.1927 H   0  0  0  0  0  0  0  0  0  0  0  0
   20.3836   20.5851   20.0764 O   0  0  0  0  0  0  0  0  0  0  0  0
   20.9878   20.2183   19.3985 H   0  0  0  0  0  0  0  0  0  0  0  0
  1  2  1  0  0  0  0
  1  3  1  0  0  0  0
  1  4  1  0  0  0  0
  4  5  1  0  0  0  0
  4  6  1  0  0  0  0
  4  7  1  0  0  0  0
  7  8  1  0  0  0  0
  7  9  1  0  0  0  0
  7 10  1  0  0  0  0
 10 11  1  0  0  0  0
 10 12  1  0  0  0  0
 10 13  1  0  0  0  0
 13 14  1  0  0  0  0
 13 15  1  0  0  0  0
 15 16  1  0  0  0  0
 15 17  1  0  0  0  0
 15 18  1  0  0  0  0
 18 19  1  0  0  0  0
 18 20  1  0  0  0  0
  1 21  1  0  0  0  0
 18 21  1  0  0  0  0
 21 22  1  0  0  0  0
 21 23  1  0  0  0  0
 13 24  1  0  0  0  0
 24 25  1  0  0  0  0
M  END
> <VConfSearch Rank>
270

> <Conf_Id>
146

> <Delta U+W>
2.553

> <U+W>
13.466

> <U>
15.643

> <W>
-2.176

> <W(PB)>
-4.307

> <W(SA)>
2.131

> <Valence>
18.916

> <Coulomb>
-7.506

> <VdW>
4.232

> <VdW6>
-13.632

> <VdW12>
17.864

> <Bond>
0.735

> <Angle>
9.140

> <Pdih>
9.042

> <Idih>
0.000

> <Tether>
0.000

$$$$
VeraChem MOL file


 25 25  0  0  0  0  0  0  0  0999 V2000     
   22.1026   18.6756   21.7809 C   0  0  0  0  0  0  0  0  0  0  0  0
   22.2968   18.7904   20.7059 H   0  0  0  0  0  0  0  0  0  0  0  0
   23.0119   18.2231   22.1995 H   0  0  0  0  0  0  0  0  0  0  0  0
   20.9465   17.6650   21.9866 C   0  0  0  0  0  0  0  0  0  0  0  0
   21.2710   16.7071   21.5578 H   0  0  0  0  0  0  0  0  0  0  0  0
   20.8078   17.4564   23.0535 H   0  0  0  0  0  0  0  0  0  0  0  0
   19.5946   18.0306   21.3237 C   0  0  0  0  0  0  0  0  0  0  0  0
   18.9193   17.1742   21.4560 H   0  0  0  0  0  0  0  0  0  0  0  0
   19.7375   18.1324   20.2395 H   0  0  0  0  0  0  0  0  0  0  0  0
   18.8690   19.2935   21.8568 C   0  0  0  0  0  0  0  0  0  0  0  0
   19.2880   20.1948   21.3984 H   0  0  0  0  0  0  0  0  0  0  0  0
   17.8358   19.2526   21.4862 H   0  0  0  0  0  0  0  0  0  0  0  0
   18.8479   19.4383   23.4004 C   0  0  0  0  0  0  0  0  0  0  0  0
   19.0342   18.4606   23.8646 H   0  0  0  0  0  0  0  0  0  0  0  0
   19.8622   20.4709   23.9541 C   0  0  0  0  0  0  0  0  0  0  0  0
   19.6949   21.4392   23.4639 H   0  0  0  0  0  0  0  0  0  0  0  0
   19.6354   20.6330   25.0160 H   0  0  0  0  0  0  0  0  0  0  0  0
   21.3668   20.0993   23.8554 C   0  0  0  0  0  0  0  0  0  0  0  0
   21.5692   19.1526   24.3726 H   0  0  0  0  0  0  0  0  0  0  0  0
   21.9223   20.8594   24.4217 H   0  0  0  0  0  0  0  0  0  0  0  0
   21.9398   20.0814   22.4146 C   0  0  0  0  0  0  0  0  0  0  0  0
   22.9371   20.5418   22.4380 H   0  0  0  0  0  0  0  0  0  0  0  0
   21.3535   20.7352   21.7591 H   0  0  0  0  0  0  0  0  0  0  0  0
   17.5487   19.8730   23.7858 O   0  0  0  0  0  0  0  0  0  0  0  0
   17.5383   19.9013   24.7652 H   0  0  0  0  0  0  0  0  0  0  0  0
  1  2  1  0  0  0  0
  1  3  1  0  0  0  0
  1  4  1  0  0  0  0
  4  5  1  0  0  0  0
  4  6  1  0  0  0  0
  4  7  1  0  0  0  0
  7  8  1  0  0  0  0
  7  9  1  0  0  0  0
  7 10  1  0  0  0  0
 10 11  1  0  0  0  0
 10 12  1  0  0  0  0
 10 13  1  0  0  0  0
 13 14  1  0  0  0  0
 13 15  1  0  0  0  0
 15 16  1  0  0  0  0
 15 17  1  0  0  0  0
 15 18  1  0  0  0  0
 18 19  1  0  0  0  0
 18 20  1  0  0  0  0
  1 21  1  0  0  0  0
 18 21  1  0  0  0  0
 21 22  1  0  0  0  0
 21 23  1  0  0  0  0
 13 24  1  0  0  0  0
 24 25  1  0  0  0  0
M  END
> <VConfSearch Rank>
271

> <Conf_Id>
62

> <Delta U+W>
-1.779

> <U+W>
9.134

> <U>
11.364

> <W>
-2.230

> <W(PB)>
-4.359

> <W(SA)>
2.129

> <Valence>
16.582

> <Coulomb>
-8.150

> <VdW>
2.933

> <VdW6>
-12.531

> <VdW12>
15.464

> <Bond>
0.439

> <Angle>
5.099

> <Pdih>
11.044

> <Idih>
0.000

> <Tether>
0.000

$$$$
VeraChem MOL file


 25 25  0  0  0  0  0  0  0  0999 V2000     
   19.3437   20.7392   22.9186 C   0  0  0  0  0  0  0  0  0  0  0  0
   18.8368   20.2091   22.1043 H   0  0  0  0  0  0  0  0  0  0  0  0
   18.7573   21.6575   23.0580 H   0  0  0  0  0  0  0  0  0  0  0  0
   20.7679   21.1646   22.4821 C   0  0  0  0  0  0  0  0  0  0  0  0
   20.6613   21.8237   21.6097 H   0  0  0  0  0  0  0  0  0  0  0  0
   21.2187   21.7843   23.2690 H   0  0  0  0  0  0  0  0  0  0  0  0
   21.7580   20.0337   22.1033 C   0  0  0  0  0  0  0  0  0  0  0  0
   22.2282   19.6173   23.0014 H   0  0  0  0  0  0  0  0  0  0  0  0
   22.5857   20.4998   21.5513 H   0  0  0  0  0  0  0  0  0  0  0  0
   21.1655   18.9007   21.2233 C   0  0  0  0  0  0  0  0  0  0  0  0
   20.2932   19.2540   20.6598 H   0  0  0  0  0  0  0  0  0  0  0  0
   21.9188   18.6522   20.4643 H   0  0  0  0  0  0  0  0  0  0  0  0
   20.8276   17.5932   21.9834 C   0  0  0  0  0  0  0  0  0  0  0  0
   21.7217   17.2771   22.5398 H   0  0  0  0  0  0  0  0  0  0  0  0
   19.6413   17.6614   22.9774 C   0  0  0  0  0  0  0  0  0  0  0  0
   18.7259   17.9772   22.4626 H   0  0  0  0  0  0  0  0  0  0  0  0
   19.4445   16.6340   23.3112 H   0  0  0  0  0  0  0  0  0  0  0  0
   19.8963   18.5197   24.2455 C   0  0  0  0  0  0  0  0  0  0  0  0
   20.9704   18.5929   24.4503 H   0  0  0  0  0  0  0  0  0  0  0  0
   19.4877   17.9813   25.1116 H   0  0  0  0  0  0  0  0  0  0  0  0
   19.2468   19.9272   24.2343 C   0  0  0  0  0  0  0  0  0  0  0  0
   19.6662   20.5199   25.0585 H   0  0  0  0  0  0  0  0  0  0  0  0
   18.1803   19.8064   24.4681 H   0  0  0  0  0  0  0  0  0  0  0  0
   20.5173   16.5991   21.0150 O   0  0  0  0  0  0  0  0  0  0  0  0
   21.3012   16.5163   20.4330 H   0  0  0  0  0  0  0  0  0  0  0  0
  1  2  1  0  0  0  0
  1  3  1  0  0  0  0
  1  4  1  0  0  0  0
  4  5  1  0  0  0  0
  4  6  1  0  0  0  0
  4  7  1  0  0  0  0
  7  8  1  0  0  0  0
  7  9  1  0  0  0  0
  7 10  1  0  0  0  0
 10 11  1  0  0  0  0
 10 12  1  0  0  0  0
 10 13  1  0  0  0  0
 13 14  1  0  0  0  0
 13 15  1  0  0  0  0
 15 16  1  0  0  0  0
 15 17  1  0  0  0  0
 15 18  1  0  0  0  0
 18 19  1  0  0  0  0
 18 20  1  0  0  0  0
  1 21  1  0  0  0  0
 18 21  1  0  0  0  0
 21 22  1  0  0  0  0
 21 23  1  0  0  0  0
 13 24  1  0  0  0  0
 24 25  1  0  0  0  0
M  END
> <VConfSearch Rank>
272

> <Conf_Id>
121

> <Delta U+W>
-1.283

> <U+W>
9.630

> <U>
11.876

> <W>
-2.246

> <W(PB)>
-4.376

> <W(SA)>
2.130

> <Valence>
17.153

> <Coulomb>
-7.966

> <VdW>
2.689

> <VdW6>
-12.458

> <VdW12>
15.147

> <Bond>
0.421

> <Angle>
5.258

> <Pdih>
11.475

> <Idih>
0.000

> <Tether>
0.000

$$$$
VeraChem MOL file


 25 25  0  0  0  0  0  0  0  0999 V2000     
   21.9249   19.7394   21.8018 C   0  0  0  0  0  0  0  0  0  0  0  0
   21.5886   18.8424   21.2693 H   0  0  0  0  0  0  0  0  0  0  0  0
   22.8459   20.0394   21.2838 H   0  0  0  0  0  0  0  0  0  0  0  0
   22.3107   19.3886   23.2605 C   0  0  0  0  0  0  0  0  0  0  0  0
   23.1214   18.6485   23.2170 H   0  0  0  0  0  0  0  0  0  0  0  0
   22.7432   20.2746   23.7447 H   0  0  0  0  0  0  0  0  0  0  0  0
   21.1934   18.8140   24.1684 C   0  0  0  0  0  0  0  0  0  0  0  0
   20.5900   19.6231   24.5952 H   0  0  0  0  0  0  0  0  0  0  0  0
   21.6858   18.3521   25.0351 H   0  0  0  0  0  0  0  0  0  0  0  0
   20.2818   17.7475   23.5040 C   0  0  0  0  0  0  0  0  0  0  0  0
   20.7939   17.2523   22.6702 H   0  0  0  0  0  0  0  0  0  0  0  0
   20.1081   16.9568   24.2459 H   0  0  0  0  0  0  0  0  0  0  0  0
   18.8900   18.2615   23.0584 C   0  0  0  0  0  0  0  0  0  0  0  0
   18.4149   18.7516   23.9204 H   0  0  0  0  0  0  0  0  0  0  0  0
   18.8704   19.2506   21.8657 C   0  0  0  0  0  0  0  0  0  0  0  0
   19.3442   18.8000   20.9850 H   0  0  0  0  0  0  0  0  0  0  0  0
   17.8202   19.4017   21.5836 H   0  0  0  0  0  0  0  0  0  0  0  0
   19.4697   20.6503   22.1674 C   0  0  0  0  0  0  0  0  0  0  0  0
   19.4252   20.8644   23.2413 H   0  0  0  0  0  0  0  0  0  0  0  0
   18.8194   21.4081   21.7093 H   0  0  0  0  0  0  0  0  0  0  0  0
   20.9016   20.8887   21.6238 C   0  0  0  0  0  0  0  0  0  0  0  0
   21.3050   21.8064   22.0727 H   0  0  0  0  0  0  0  0  0  0  0  0
   20.8222   21.0946   20.5476 H   0  0  0  0  0  0  0  0  0  0  0  0
   18.1129   17.1283   22.6920 O   0  0  0  0  0  0  0  0  0  0  0  0
   17.2153   17.4578   22.4778 H   0  0  0  0  0  0  0  0  0  0  0  0
  1  2  1  0  0  0  0
  1  3  1  0  0  0  0
  1  4  1  0  0  0  0
  4  5  1  0  0  0  0
  4  6  1  0  0  0  0
  4  7  1  0  0  0  0
  7  8  1  0  0  0  0
  7  9  1  0  0  0  0
  7 10  1  0  0  0  0
 10 11  1  0  0  0  0
 10 12  1  0  0  0  0
 10 13  1  0  0  0  0
 13 14  1  0  0  0  0
 13 15  1  0  0  0  0
 15 16  1  0  0  0  0
 15 17  1  0  0  0  0
 15 18  1  0  0  0  0
 18 19  1  0  0  0  0
 18 20  1  0  0  0  0
  1 21  1  0  0  0  0
 18 21  1  0  0  0  0
 21 22  1  0  0  0  0
 21 23  1  0  0  0  0
 13 24  1  0  0  0  0
 24 25  1  0  0  0  0
M  END
> <VConfSearch Rank>
273

> <Conf_Id>
24

> <Delta U+W>
-1.236

> <U+W>
9.678

> <U>
11.876

> <W>
-2.199

> <W(PB)>
-4.335

> <W(SA)>
2.137

> <Valence>
17.153

> <Coulomb>
-7.966

> <VdW>
2.689

> <VdW6>
-12.458

> <VdW12>
15.147

> <Bond>
0.421

> <Angle>
5.258

> <Pdih>
11.475

> <Idih>
0.000

> <Tether>
0.000

$$$$
VeraChem MOL file


 25 25  0  0  0  0  0  0  0  0999 V2000     
   19.6678   21.0129   21.6829 C   0  0  0  0  0  0  0  0  0  0  0  0
   20.3293   21.8855   21.5947 H   0  0  0  0  0  0  0  0  0  0  0  0
   18.7059   21.3248   21.2536 H   0  0  0  0  0  0  0  0  0  0  0  0
   20.2324   19.8645   20.8051 C   0  0  0  0  0  0  0  0  0  0  0  0
   19.4571   19.1141   20.6050 H   0  0  0  0  0  0  0  0  0  0  0  0
   20.4623   20.2973   19.8218 H   0  0  0  0  0  0  0  0  0  0  0  0
   21.5143   19.1734   21.3322 C   0  0  0  0  0  0  0  0  0  0  0  0
   22.1614   19.8943   21.8498 H   0  0  0  0  0  0  0  0  0  0  0  0
   22.0862   18.8487   20.4520 H   0  0  0  0  0  0  0  0  0  0  0  0
   21.2721   17.9089   22.2041 C   0  0  0  0  0  0  0  0  0  0  0  0
   20.4120   17.3373   21.8326 H   0  0  0  0  0  0  0  0  0  0  0  0
   22.1441   17.2566   22.0588 H   0  0  0  0  0  0  0  0  0  0  0  0
   21.1308   18.1782   23.7222 C   0  0  0  0  0  0  0  0  0  0  0  0
   21.7071   19.0789   23.9717 H   0  0  0  0  0  0  0  0  0  0  0  0
   19.6776   18.3417   24.2352 C   0  0  0  0  0  0  0  0  0  0  0  0
   19.1767   17.3648   24.2284 H   0  0  0  0  0  0  0  0  0  0  0  0
   19.7294   18.6470   25.2887 H   0  0  0  0  0  0  0  0  0  0  0  0
   18.7781   19.3513   23.4787 C   0  0  0  0  0  0  0  0  0  0  0  0
   17.8808   19.5301   24.0867 H   0  0  0  0  0  0  0  0  0  0  0  0
   18.4036   18.8935   22.5558 H   0  0  0  0  0  0  0  0  0  0  0  0
   19.4605   20.7118   23.1875 C   0  0  0  0  0  0  0  0  0  0  0  0
   20.4180   20.7944   23.7148 H   0  0  0  0  0  0  0  0  0  0  0  0
   18.8401   21.5135   23.6111 H   0  0  0  0  0  0  0  0  0  0  0  0
   21.7054   17.0844   24.4258 O   0  0  0  0  0  0  0  0  0  0  0  0
   21.1901   16.2910   24.1730 H   0  0  0  0  0  0  0  0  0  0  0  0
  1  2  1  0  0  0  0
  1  3  1  0  0  0  0
  1  4  1  0  0  0  0
  4  5  1  0  0  0  0
  4  6  1  0  0  0  0
  4  7  1  0  0  0  0
  7  8  1  0  0  0  0
  7  9  1  0  0  0  0
  7 10  1  0  0  0  0
 10 11  1  0  0  0  0
 10 12  1  0  0  0  0
 10 13  1  0  0  0  0
 13 14  1  0  0  0  0
 13 15  1  0  0  0  0
 15 16  1  0  0  0  0
 15 17  1  0  0  0  0
 15 18  1  0  0  0  0
 18 19  1  0  0  0  0
 18 20  1  0  0  0  0
  1 21  1  0  0  0  0
 18 21  1  0  0  0  0
 21 22  1  0  0  0  0
 21 23  1  0  0  0  0
 13 24  1  0  0  0  0
 24 25  1  0  0  0  0
M  END
> <VConfSearch Rank>
274

> <Conf_Id>
167

> <Delta U+W>
0.388

> <U+W>
11.301

> <U>
13.202

> <W>
-1.901

> <W(PB)>
-4.065

> <W(SA)>
2.163

> <Valence>
18.957

> <Coulomb>
-8.753

> <VdW>
2.998

> <VdW6>
-12.294

> <VdW12>
15.292

> <Bond>
0.419

> <Angle>
4.543

> <Pdih>
13.996

> <Idih>
0.000

> <Tether>
0.000

$$$$
VeraChem MOL file


 25 25  0  0  0  0  0  0  0  0999 V2000     
   19.9049   19.0240   20.6429 C   0  0  0  0  0  0  0  0  0  0  0  0
   20.0671   18.0687   20.1255 H   0  0  0  0  0  0  0  0  0  0  0  0
   19.4970   19.7057   19.8841 H   0  0  0  0  0  0  0  0  0  0  0  0
   21.2763   19.5889   21.0960 C   0  0  0  0  0  0  0  0  0  0  0  0
   21.9153   18.7876   21.4840 H   0  0  0  0  0  0  0  0  0  0  0  0
   21.7951   19.9377   20.1925 H   0  0  0  0  0  0  0  0  0  0  0  0
   21.2126   20.7687   22.1003 C   0  0  0  0  0  0  0  0  0  0  0  0
   20.2650   21.3148   22.0080 H   0  0  0  0  0  0  0  0  0  0  0  0
   21.9888   21.4905   21.8113 H   0  0  0  0  0  0  0  0  0  0  0  0
   21.4832   20.3811   23.5798 C   0  0  0  0  0  0  0  0  0  0  0  0
   22.4538   19.8732   23.6523 H   0  0  0  0  0  0  0  0  0  0  0  0
   21.5933   21.3128   24.1504 H   0  0  0  0  0  0  0  0  0  0  0  0
   20.4048   19.5227   24.2866 C   0  0  0  0  0  0  0  0  0  0  0  0
   19.4291   20.0163   24.1844 H   0  0  0  0  0  0  0  0  0  0  0  0
   20.3132   18.0654   23.7645 C   0  0  0  0  0  0  0  0  0  0  0  0
   21.2519   17.7797   23.2790 H   0  0  0  0  0  0  0  0  0  0  0  0
   20.2265   17.3763   24.6151 H   0  0  0  0  0  0  0  0  0  0  0  0
   19.1149   17.7810   22.8222 C   0  0  0  0  0  0  0  0  0  0  0  0
   18.2136   17.6822   23.4425 H   0  0  0  0  0  0  0  0  0  0  0  0
   19.2590   16.8007   22.3482 H   0  0  0  0  0  0  0  0  0  0  0  0
   18.8162   18.8384   21.7296 C   0  0  0  0  0  0  0  0  0  0  0  0
   18.5648   19.8029   22.1852 H   0  0  0  0  0  0  0  0  0  0  0  0
   17.8954   18.5266   21.2180 H   0  0  0  0  0  0  0  0  0  0  0  0
   20.7371   19.4800   25.6693 O   0  0  0  0  0  0  0  0  0  0  0  0
   20.0133   18.9941   26.1170 H   0  0  0  0  0  0  0  0  0  0  0  0
  1  2  1  0  0  0  0
  1  3  1  0  0  0  0
  1  4  1  0  0  0  0
  4  5  1  0  0  0  0
  4  6  1  0  0  0  0
  4  7  1  0  0  0  0
  7  8  1  0  0  0  0
  7  9  1  0  0  0  0
  7 10  1  0  0  0  0
 10 11  1  0  0  0  0
 10 12  1  0  0  0  0
 10 13  1  0  0  0  0
 13 14  1  0  0  0  0
 13 15  1  0  0  0  0
 15 16  1  0  0  0  0
 15 17  1  0  0  0  0
 15 18  1  0  0  0  0
 18 19  1  0  0  0  0
 18 20  1  0  0  0  0
  1 21  1  0  0  0  0
 18 21  1  0  0  0  0
 21 22  1  0  0  0  0
 21 23  1  0  0  0  0
 13 24  1  0  0  0  0
 24 25  1  0  0  0  0
M  END
> <VConfSearch Rank>
275

> <Conf_Id>
60

> <Delta U+W>
-1.838

> <U+W>
9.075

> <U>
11.150

> <W>
-2.074

> <W(PB)>
-4.196

> <W(SA)>
2.121

> <Valence>
16.582

> <Coulomb>
-8.361

> <VdW>
2.928

> <VdW6>
-12.539

> <VdW12>
15.467

> <Bond>
0.441

> <Angle>
5.093

> <Pdih>
11.049

> <Idih>
0.000

> <Tether>
0.000

$$$$
VeraChem MOL file


 25 25  0  0  0  0  0  0  0  0999 V2000     
   20.5910   17.7394   21.2107 C   0  0  0  0  0  0  0  0  0  0  0  0
   19.7873   17.0380   20.9488 H   0  0  0  0  0  0  0  0  0  0  0  0
   21.4494   17.4515   20.5884 H   0  0  0  0  0  0  0  0  0  0  0  0
   20.9988   17.5206   22.6894 C   0  0  0  0  0  0  0  0  0  0  0  0
   21.3584   16.4863   22.7782 H   0  0  0  0  0  0  0  0  0  0  0  0
   21.8697   18.1372   22.9393 H   0  0  0  0  0  0  0  0  0  0  0  0
   19.8776   17.7088   23.7422 C   0  0  0  0  0  0  0  0  0  0  0  0
   20.2853   17.4089   24.7173 H   0  0  0  0  0  0  0  0  0  0  0  0
   19.0609   17.0051   23.5319 H   0  0  0  0  0  0  0  0  0  0  0  0
   19.2872   19.1350   23.8907 C   0  0  0  0  0  0  0  0  0  0  0  0
   18.5400   19.3178   23.1118 H   0  0  0  0  0  0  0  0  0  0  0  0
   18.7135   19.1518   24.8269 H   0  0  0  0  0  0  0  0  0  0  0  0
   20.3337   20.2793   23.9048 C   0  0  0  0  0  0  0  0  0  0  0  0
   21.3240   19.8744   24.1532 H   0  0  0  0  0  0  0  0  0  0  0  0
   20.4276   21.0669   22.5743 C   0  0  0  0  0  0  0  0  0  0  0  0
   19.4320   21.4448   22.3073 H   0  0  0  0  0  0  0  0  0  0  0  0
   21.0428   21.9578   22.7579 H   0  0  0  0  0  0  0  0  0  0  0  0
   21.0394   20.3193   21.3582 C   0  0  0  0  0  0  0  0  0  0  0  0
   22.0532   19.9668   21.5878 H   0  0  0  0  0  0  0  0  0  0  0  0
   21.1681   21.0610   20.5580 H   0  0  0  0  0  0  0  0  0  0  0  0
   20.1645   19.1707   20.7926 C   0  0  0  0  0  0  0  0  0  0  0  0
   20.2129   19.2134   19.6958 H   0  0  0  0  0  0  0  0  0  0  0  0
   19.1074   19.3423   21.0248 H   0  0  0  0  0  0  0  0  0  0  0  0
   19.9665   21.2058   24.9202 O   0  0  0  0  0  0  0  0  0  0  0  0
   19.9775   20.7129   25.7672 H   0  0  0  0  0  0  0  0  0  0  0  0
  1  2  1  0  0  0  0
  1  3  1  0  0  0  0
  1  4  1  0  0  0  0
  4  5  1  0  0  0  0
  4  6  1  0  0  0  0
  4  7  1  0  0  0  0
  7  8  1  0  0  0  0
  7  9  1  0  0  0  0
  7 10  1  0  0  0  0
 10 11  1  0  0  0  0
 10 12  1  0  0  0  0
 10 13  1  0  0  0  0
 13 14  1  0  0  0  0
 13 15  1  0  0  0  0
 15 16  1  0  0  0  0
 15 17  1  0  0  0  0
 15 18  1  0  0  0  0
 18 19  1  0  0  0  0
 18 20  1  0  0  0  0
  1 21  1  0  0  0  0
 18 21  1  0  0  0  0
 21 22  1  0  0  0  0
 21 23  1  0  0  0  0
 13 24  1  0  0  0  0
 24 25  1  0  0  0  0
M  END
> <VConfSearch Rank>
276

> <Conf_Id>
129

> <Delta U+W>
-1.846

> <U+W>
9.067

> <U>
11.150

> <W>
-2.083

> <W(PB)>
-4.217

> <W(SA)>
2.134

> <Valence>
16.583

> <Coulomb>
-8.361

> <VdW>
2.928

> <VdW6>
-12.539

> <VdW12>
15.467

> <Bond>
0.441

> <Angle>
5.093

> <Pdih>
11.049

> <Idih>
0.000

> <Tether>
0.000

$$$$
VeraChem MOL file


 25 25  0  0  0  0  0  0  0  0999 V2000     
   18.4385   20.0849   23.0557 C   0  0  0  0  0  0  0  0  0  0  0  0
   18.1212   20.2713   24.0907 H   0  0  0  0  0  0  0  0  0  0  0  0
   17.6195   20.4548   22.4238 H   0  0  0  0  0  0  0  0  0  0  0  0
   18.5487   18.5573   22.8219 C   0  0  0  0  0  0  0  0  0  0  0  0
   17.5516   18.1290   22.9921 H   0  0  0  0  0  0  0  0  0  0  0  0
   18.7623   18.3473   21.7676 H   0  0  0  0  0  0  0  0  0  0  0  0
   19.5382   17.7960   23.7392 C   0  0  0  0  0  0  0  0  0  0  0  0
   19.4190   16.7230   23.5351 H   0  0  0  0  0  0  0  0  0  0  0  0
   19.2412   17.9344   24.7876 H   0  0  0  0  0  0  0  0  0  0  0  0
   21.0427   18.1425   23.5919 C   0  0  0  0  0  0  0  0  0  0  0  0
   21.2787   19.0490   24.1586 H   0  0  0  0  0  0  0  0  0  0  0  0
   21.6051   17.3456   24.0972 H   0  0  0  0  0  0  0  0  0  0  0  0
   21.5457   18.2756   22.1312 C   0  0  0  0  0  0  0  0  0  0  0  0
   20.8525   17.7607   21.4527 H   0  0  0  0  0  0  0  0  0  0  0  0
   21.7359   19.7375   21.6539 C   0  0  0  0  0  0  0  0  0  0  0  0
   22.4046   20.2642   22.3472 H   0  0  0  0  0  0  0  0  0  0  0  0
   22.2664   19.7080   20.6927 H   0  0  0  0  0  0  0  0  0  0  0  0
   20.4486   20.5808   21.4477 C   0  0  0  0  0  0  0  0  0  0  0  0
   19.7785   20.0985   20.7245 H   0  0  0  0  0  0  0  0  0  0  0  0
   20.7548   21.5220   20.9709 H   0  0  0  0  0  0  0  0  0  0  0  0
   19.6934   20.9437   22.7526 C   0  0  0  0  0  0  0  0  0  0  0  0
   19.3585   21.9872   22.6743 H   0  0  0  0  0  0  0  0  0  0  0  0
   20.3788   20.9413   23.6075 H   0  0  0  0  0  0  0  0  0  0  0  0
   22.8105   17.6327   22.0365 O   0  0  0  0  0  0  0  0  0  0  0  0
   23.4102   18.1110   22.6452 H   0  0  0  0  0  0  0  0  0  0  0  0
  1  2  1  0  0  0  0
  1  3  1  0  0  0  0
  1  4  1  0  0  0  0
  4  5  1  0  0  0  0
  4  6  1  0  0  0  0
  4  7  1  0  0  0  0
  7  8  1  0  0  0  0
  7  9  1  0  0  0  0
  7 10  1  0  0  0  0
 10 11  1  0  0  0  0
 10 12  1  0  0  0  0
 10 13  1  0  0  0  0
 13 14  1  0  0  0  0
 13 15  1  0  0  0  0
 15 16  1  0  0  0  0
 15 17  1  0  0  0  0
 15 18  1  0  0  0  0
 18 19  1  0  0  0  0
 18 20  1  0  0  0  0
  1 21  1  0  0  0  0
 18 21  1  0  0  0  0
 21 22  1  0  0  0  0
 21 23  1  0  0  0  0
 13 24  1  0  0  0  0
 24 25  1  0  0  0  0
M  END
> <VConfSearch Rank>
277

> <Conf_Id>
140

> <Delta U+W>
-1.702

> <U+W>
9.211

> <U>
11.181

> <W>
-1.969

> <W(PB)>
-4.093

> <W(SA)>
2.124

> <Valence>
16.954

> <Coulomb>
-8.661

> <VdW>
2.887

> <VdW6>
-12.561

> <VdW12>
15.448

> <Bond>
0.433

> <Angle>
5.120

> <Pdih>
11.401

> <Idih>
0.000

> <Tether>
0.000

$$$$
VeraChem MOL file


 25 25  0  0  0  0  0  0  0  0999 V2000     
   21.6052   20.3637   23.6938 C   0  0  0  0  0  0  0  0  0  0  0  0
   21.5966   20.3854   24.7920 H   0  0  0  0  0  0  0  0  0  0  0  0
   22.3983   21.0606   23.3901 H   0  0  0  0  0  0  0  0  0  0  0  0
   20.2579   20.9244   23.1696 C   0  0  0  0  0  0  0  0  0  0  0  0
   19.4238   20.5566   23.7776 H   0  0  0  0  0  0  0  0  0  0  0  0
   20.2687   22.0084   23.3484 H   0  0  0  0  0  0  0  0  0  0  0  0
   19.9799   20.6873   21.6626 C   0  0  0  0  0  0  0  0  0  0  0  0
   20.9159   20.5653   21.1025 H   0  0  0  0  0  0  0  0  0  0  0  0
   19.5243   21.6036   21.2628 H   0  0  0  0  0  0  0  0  0  0  0  0
   18.9990   19.5230   21.3571 C   0  0  0  0  0  0  0  0  0  0  0  0
   18.0579   19.6939   21.8959 H   0  0  0  0  0  0  0  0  0  0  0  0
   18.7458   19.5787   20.2899 H   0  0  0  0  0  0  0  0  0  0  0  0
   19.5056   18.0874   21.6460 C   0  0  0  0  0  0  0  0  0  0  0  0
   20.4622   17.9305   21.1302 H   0  0  0  0  0  0  0  0  0  0  0  0
   19.6646   17.7590   23.1532 C   0  0  0  0  0  0  0  0  0  0  0  0
   19.0374   18.4248   23.7548 H   0  0  0  0  0  0  0  0  0  0  0  0
   19.2679   16.7534   23.3483 H   0  0  0  0  0  0  0  0  0  0  0  0
   21.1235   17.7784   23.6789 C   0  0  0  0  0  0  0  0  0  0  0  0
   21.6076   16.8447   23.3612 H   0  0  0  0  0  0  0  0  0  0  0  0
   21.1075   17.7468   24.7768 H   0  0  0  0  0  0  0  0  0  0  0  0
   22.0226   18.9511   23.2135 C   0  0  0  0  0  0  0  0  0  0  0  0
   22.1387   18.9377   22.1237 H   0  0  0  0  0  0  0  0  0  0  0  0
   23.0327   18.7606   23.6010 H   0  0  0  0  0  0  0  0  0  0  0  0
   18.5559   17.1853   21.0925 O   0  0  0  0  0  0  0  0  0  0  0  0
   17.7132   17.3470   21.5644 H   0  0  0  0  0  0  0  0  0  0  0  0
  1  2  1  0  0  0  0
  1  3  1  0  0  0  0
  1  4  1  0  0  0  0
  4  5  1  0  0  0  0
  4  6  1  0  0  0  0
  4  7  1  0  0  0  0
  7  8  1  0  0  0  0
  7  9  1  0  0  0  0
  7 10  1  0  0  0  0
 10 11  1  0  0  0  0
 10 12  1  0  0  0  0
 10 13  1  0  0  0  0
 13 14  1  0  0  0  0
 13 15  1  0  0  0  0
 15 16  1  0  0  0  0
 15 17  1  0  0  0  0
 15 18  1  0  0  0  0
 18 19  1  0  0  0  0
 18 20  1  0  0  0  0
  1 21  1  0  0  0  0
 18 21  1  0  0  0  0
 21 22  1  0  0  0  0
 21 23  1  0  0  0  0
 13 24  1  0  0  0  0
 24 25  1  0  0  0  0
M  END
> <VConfSearch Rank>
278

> <Conf_Id>
68

> <Delta U+W>
-1.765

> <U+W>
9.148

> <U>
11.181

> <W>
-2.032

> <W(PB)>
-4.147

> <W(SA)>
2.114

> <Valence>
16.955

> <Coulomb>
-8.661

> <VdW>
2.887

> <VdW6>
-12.561

> <VdW12>
15.448

> <Bond>
0.433

> <Angle>
5.121

> <Pdih>
11.402

> <Idih>
0.000

> <Tether>
0.000

$$$$
VeraChem MOL file


 25 25  0  0  0  0  0  0  0  0999 V2000     
   21.2696   17.9324   21.7417 C   0  0  0  0  0  0  0  0  0  0  0  0
   21.7739   17.1282   21.1886 H   0  0  0  0  0  0  0  0  0  0  0  0
   22.0866   18.4952   22.2071 H   0  0  0  0  0  0  0  0  0  0  0  0
   20.3701   17.2809   22.8242 C   0  0  0  0  0  0  0  0  0  0  0  0
   19.3396   17.1644   22.4648 H   0  0  0  0  0  0  0  0  0  0  0  0
   20.7344   16.2567   22.9833 H   0  0  0  0  0  0  0  0  0  0  0  0
   20.3951   17.9892   24.2041 C   0  0  0  0  0  0  0  0  0  0  0  0
   21.4316   18.0506   24.5634 H   0  0  0  0  0  0  0  0  0  0  0  0
   19.8730   17.3412   24.9212 H   0  0  0  0  0  0  0  0  0  0  0  0
   19.7431   19.3957   24.2772 C   0  0  0  0  0  0  0  0  0  0  0  0
   18.6974   19.3489   23.9502 H   0  0  0  0  0  0  0  0  0  0  0  0
   19.7008   19.6695   25.3402 H   0  0  0  0  0  0  0  0  0  0  0  0
   20.5142   20.5023   23.5119 C   0  0  0  0  0  0  0  0  0  0  0  0
   21.5474   20.1729   23.3525 H   0  0  0  0  0  0  0  0  0  0  0  0
   19.8933   20.9029   22.1510 C   0  0  0  0  0  0  0  0  0  0  0  0
   19.0257   21.5487   22.3404 H   0  0  0  0  0  0  0  0  0  0  0  0
   20.6179   21.5245   21.6092 H   0  0  0  0  0  0  0  0  0  0  0  0
   19.4210   19.7544   21.2226 C   0  0  0  0  0  0  0  0  0  0  0  0
   18.9437   20.2165   20.3477 H   0  0  0  0  0  0  0  0  0  0  0  0
   18.6210   19.1784   21.7017 H   0  0  0  0  0  0  0  0  0  0  0  0
   20.5269   18.8054   20.6969 C   0  0  0  0  0  0  0  0  0  0  0  0
   21.2655   19.3873   20.1290 H   0  0  0  0  0  0  0  0  0  0  0  0
   20.0592   18.1292   19.9682 H   0  0  0  0  0  0  0  0  0  0  0  0
   20.5550   21.6697   24.3232 O   0  0  0  0  0  0  0  0  0  0  0  0
   19.6247   21.9382   24.4693 H   0  0  0  0  0  0  0  0  0  0  0  0
  1  2  1  0  0  0  0
  1  3  1  0  0  0  0
  1  4  1  0  0  0  0
  4  5  1  0  0  0  0
  4  6  1  0  0  0  0
  4  7  1  0  0  0  0
  7  8  1  0  0  0  0
  7  9  1  0  0  0  0
  7 10  1  0  0  0  0
 10 11  1  0  0  0  0
 10 12  1  0  0  0  0
 10 13  1  0  0  0  0
 13 14  1  0  0  0  0
 13 15  1  0  0  0  0
 15 16  1  0  0  0  0
 15 17  1  0  0  0  0
 15 18  1  0  0  0  0
 18 19  1  0  0  0  0
 18 20  1  0  0  0  0
  1 21  1  0  0  0  0
 18 21  1  0  0  0  0
 21 22  1  0  0  0  0
 21 23  1  0  0  0  0
 13 24  1  0  0  0  0
 24 25  1  0  0  0  0
M  END
> <VConfSearch Rank>
279

> <Conf_Id>
165

> <Delta U+W>
-1.999

> <U+W>
8.915

> <U>
10.935

> <W>
-2.020

> <W(PB)>
-4.135

> <W(SA)>
2.115

> <Valence>
16.757

> <Coulomb>
-8.731

> <VdW>
2.908

> <VdW6>
-12.597

> <VdW12>
15.506

> <Bond>
0.434

> <Angle>
5.069

> <Pdih>
11.254

> <Idih>
0.000

> <Tether>
0.000

$$$$
VeraChem MOL file


 25 25  0  0  0  0  0  0  0  0999 V2000     
   21.3237   18.8921   24.1606 C   0  0  0  0  0  0  0  0  0  0  0  0
   21.9938   18.6842   25.0060 H   0  0  0  0  0  0  0  0  0  0  0  0
   20.5214   19.5000   24.5938 H   0  0  0  0  0  0  0  0  0  0  0  0
   20.7749   17.5268   23.6703 C   0  0  0  0  0  0  0  0  0  0  0  0
   21.6078   16.8103   23.6768 H   0  0  0  0  0  0  0  0  0  0  0  0
   20.0528   17.1476   24.4060 H   0  0  0  0  0  0  0  0  0  0  0  0
   20.1395   17.4828   22.2580 C   0  0  0  0  0  0  0  0  0  0  0  0
   19.8987   16.4335   22.0399 H   0  0  0  0  0  0  0  0  0  0  0  0
   20.8795   17.7600   21.4985 H   0  0  0  0  0  0  0  0  0  0  0  0
   18.8374   18.3036   22.0707 C   0  0  0  0  0  0  0  0  0  0  0  0
   18.4540   18.0867   21.0645 H   0  0  0  0  0  0  0  0  0  0  0  0
   18.0790   17.9299   22.7707 H   0  0  0  0  0  0  0  0  0  0  0  0
   18.9420   19.8406   22.2274 C   0  0  0  0  0  0  0  0  0  0  0  0
   18.9815   20.0936   23.2934 H   0  0  0  0  0  0  0  0  0  0  0  0
   20.1593   20.4817   21.5124 C   0  0  0  0  0  0  0  0  0  0  0  0
   20.5193   19.8378   20.7013 H   0  0  0  0  0  0  0  0  0  0  0  0
   19.8250   21.4039   21.0180 H   0  0  0  0  0  0  0  0  0  0  0  0
   21.3284   20.8733   22.4552 C   0  0  0  0  0  0  0  0  0  0  0  0
   20.9522   21.5428   23.2408 H   0  0  0  0  0  0  0  0  0  0  0  0
   22.0403   21.4739   21.8728 H   0  0  0  0  0  0  0  0  0  0  0  0
   22.1177   19.7075   23.1070 C   0  0  0  0  0  0  0  0  0  0  0  0
   22.9828   20.1526   23.6175 H   0  0  0  0  0  0  0  0  0  0  0  0
   22.5464   19.0506   22.3394 H   0  0  0  0  0  0  0  0  0  0  0  0
   17.7522   20.4056   21.6884 O   0  0  0  0  0  0  0  0  0  0  0  0
   17.0038   20.0170   22.1877 H   0  0  0  0  0  0  0  0  0  0  0  0
  1  2  1  0  0  0  0
  1  3  1  0  0  0  0
  1  4  1  0  0  0  0
  4  5  1  0  0  0  0
  4  6  1  0  0  0  0
  4  7  1  0  0  0  0
  7  8  1  0  0  0  0
  7  9  1  0  0  0  0
  7 10  1  0  0  0  0
 10 11  1  0  0  0  0
 10 12  1  0  0  0  0
 10 13  1  0  0  0  0
 13 14  1  0  0  0  0
 13 15  1  0  0  0  0
 15 16  1  0  0  0  0
 15 17  1  0  0  0  0
 15 18  1  0  0  0  0
 18 19  1  0  0  0  0
 18 20  1  0  0  0  0
  1 21  1  0  0  0  0
 18 21  1  0  0  0  0
 21 22  1  0  0  0  0
 21 23  1  0  0  0  0
 13 24  1  0  0  0  0
 24 25  1  0  0  0  0
M  END
> <VConfSearch Rank>
280

> <Conf_Id>
133

> <Delta U+W>
-2.139

> <U+W>
8.774

> <U>
10.905

> <W>
-2.131

> <W(PB)>
-4.281

> <W(SA)>
2.150

> <Valence>
16.378

> <Coulomb>
-8.448

> <VdW>
2.976

> <VdW6>
-12.570

> <VdW12>
15.545

> <Bond>
0.439

> <Angle>
5.049

> <Pdih>
10.889

> <Idih>
0.000

> <Tether>
0.000

$$$$
VeraChem MOL file


 25 25  0  0  0  0  0  0  0  0999 V2000     
   20.5034   18.1808   21.1734 C   0  0  0  0  0  0  0  0  0  0  0  0
   20.7193   17.5436   20.3048 H   0  0  0  0  0  0  0  0  0  0  0  0
   19.4653   18.4988   21.0249 H   0  0  0  0  0  0  0  0  0  0  0  0
   21.4598   19.4008   21.1243 C   0  0  0  0  0  0  0  0  0  0  0  0
   22.3554   19.2261   21.7342 H   0  0  0  0  0  0  0  0  0  0  0  0
   21.8292   19.4893   20.0934 H   0  0  0  0  0  0  0  0  0  0  0  0
   20.8031   20.7586   21.4874 C   0  0  0  0  0  0  0  0  0  0  0  0
   19.9399   20.9331   20.8307 H   0  0  0  0  0  0  0  0  0  0  0  0
   21.5225   21.5527   21.2451 H   0  0  0  0  0  0  0  0  0  0  0  0
   20.3696   20.9497   22.9654 C   0  0  0  0  0  0  0  0  0  0  0  0
   21.2246   20.8108   23.6375 H   0  0  0  0  0  0  0  0  0  0  0  0
   20.0839   22.0040   23.0809 H   0  0  0  0  0  0  0  0  0  0  0  0
   19.1728   20.0672   23.4050 C   0  0  0  0  0  0  0  0  0  0  0  0
   18.6340   19.7279   22.5126 H   0  0  0  0  0  0  0  0  0  0  0  0
   19.5582   18.8397   24.2667 C   0  0  0  0  0  0  0  0  0  0  0  0
   19.7701   19.1892   25.2862 H   0  0  0  0  0  0  0  0  0  0  0  0
   18.6851   18.1796   24.3483 H   0  0  0  0  0  0  0  0  0  0  0  0
   20.7771   18.0024   23.8005 C   0  0  0  0  0  0  0  0  0  0  0  0
   20.9507   17.2272   24.5592 H   0  0  0  0  0  0  0  0  0  0  0  0
   21.6882   18.6115   23.8147 H   0  0  0  0  0  0  0  0  0  0  0  0
   20.6292   17.2867   22.4345 C   0  0  0  0  0  0  0  0  0  0  0  0
   19.7709   16.6023   22.4735 H   0  0  0  0  0  0  0  0  0  0  0  0
   21.5123   16.6464   22.3032 H   0  0  0  0  0  0  0  0  0  0  0  0
   18.2816   20.8656   24.1757 O   0  0  0  0  0  0  0  0  0  0  0  0
   17.5160   20.2969   24.4009 H   0  0  0  0  0  0  0  0  0  0  0  0
  1  2  1  0  0  0  0
  1  3  1  0  0  0  0
  1  4  1  0  0  0  0
  4  5  1  0  0  0  0
  4  6  1  0  0  0  0
  4  7  1  0  0  0  0
  7  8  1  0  0  0  0
  7  9  1  0  0  0  0
  7 10  1  0  0  0  0
 10 11  1  0  0  0  0
 10 12  1  0  0  0  0
 10 13  1  0  0  0  0
 13 14  1  0  0  0  0
 13 15  1  0  0  0  0
 15 16  1  0  0  0  0
 15 17  1  0  0  0  0
 15 18  1  0  0  0  0
 18 19  1  0  0  0  0
 18 20  1  0  0  0  0
  1 21  1  0  0  0  0
 18 21  1  0  0  0  0
 21 22  1  0  0  0  0
 21 23  1  0  0  0  0
 13 24  1  0  0  0  0
 24 25  1  0  0  0  0
M  END
> <VConfSearch Rank>
281

> <Conf_Id>
95

> <Delta U+W>
-2.190

> <U+W>
8.723

> <U>
10.905

> <W>
-2.182

> <W(PB)>
-4.296

> <W(SA)>
2.114

> <Valence>
16.377

> <Coulomb>
-8.448

> <VdW>
2.976

> <VdW6>
-12.570

> <VdW12>
15.546

> <Bond>
0.439

> <Angle>
5.049

> <Pdih>
10.889

> <Idih>
0.000

> <Tether>
0.000

$$$$
VeraChem MOL file


 25 25  0  0  0  0  0  0  0  0999 V2000     
   20.9160   20.8860   22.7758 C   0  0  0  0  0  0  0  0  0  0  0  0
   21.1777   21.9485   22.8732 H   0  0  0  0  0  0  0  0  0  0  0  0
   21.7423   20.4739   22.1878 H   0  0  0  0  0  0  0  0  0  0  0  0
   19.5785   20.8175   21.9816 C   0  0  0  0  0  0  0  0  0  0  0  0
   18.9788   21.6904   22.2738 H   0  0  0  0  0  0  0  0  0  0  0  0
   19.7913   20.9543   20.9128 H   0  0  0  0  0  0  0  0  0  0  0  0
   18.6775   19.5687   22.1690 C   0  0  0  0  0  0  0  0  0  0  0  0
   17.7377   19.7531   21.6309 H   0  0  0  0  0  0  0  0  0  0  0  0
   18.3643   19.5027   23.2157 H   0  0  0  0  0  0  0  0  0  0  0  0
   19.2324   18.2018   21.6686 C   0  0  0  0  0  0  0  0  0  0  0  0
   18.6908   17.3922   22.1752 H   0  0  0  0  0  0  0  0  0  0  0  0
   18.9674   18.1171   20.6066 H   0  0  0  0  0  0  0  0  0  0  0  0
   20.7558   17.9418   21.7840 C   0  0  0  0  0  0  0  0  0  0  0  0
   21.2774   18.7325   21.2350 H   0  0  0  0  0  0  0  0  0  0  0  0
   21.3449   17.8295   23.2196 C   0  0  0  0  0  0  0  0  0  0  0  0
   21.2287   16.7892   23.5522 H   0  0  0  0  0  0  0  0  0  0  0  0
   22.4272   18.0017   23.1622 H   0  0  0  0  0  0  0  0  0  0  0  0
   20.7500   18.7288   24.3370 C   0  0  0  0  0  0  0  0  0  0  0  0
   21.2157   18.4303   25.2860 H   0  0  0  0  0  0  0  0  0  0  0  0
   19.6944   18.4771   24.4800 H   0  0  0  0  0  0  0  0  0  0  0  0
   20.9386   20.2679   24.1987 C   0  0  0  0  0  0  0  0  0  0  0  0
   21.9115   20.5208   24.6420 H   0  0  0  0  0  0  0  0  0  0  0  0
   20.1918   20.7748   24.8246 H   0  0  0  0  0  0  0  0  0  0  0  0
   21.0291   16.7145   21.1179 O   0  0  0  0  0  0  0  0  0  0  0  0
   20.7137   16.8167   20.1958 H   0  0  0  0  0  0  0  0  0  0  0  0
  1  2  1  0  0  0  0
  1  3  1  0  0  0  0
  1  4  1  0  0  0  0
  4  5  1  0  0  0  0
  4  6  1  0  0  0  0
  4  7  1  0  0  0  0
  7  8  1  0  0  0  0
  7  9  1  0  0  0  0
  7 10  1  0  0  0  0
 10 11  1  0  0  0  0
 10 12  1  0  0  0  0
 10 13  1  0  0  0  0
 13 14  1  0  0  0  0
 13 15  1  0  0  0  0
 15 16  1  0  0  0  0
 15 17  1  0  0  0  0
 15 18  1  0  0  0  0
 18 19  1  0  0  0  0
 18 20  1  0  0  0  0
  1 21  1  0  0  0  0
 18 21  1  0  0  0  0
 21 22  1  0  0  0  0
 21 23  1  0  0  0  0
 13 24  1  0  0  0  0
 24 25  1  0  0  0  0
M  END
> <VConfSearch Rank>
282

> <Conf_Id>
161

> <Delta U+W>
2.120

> <U+W>
13.033

> <U>
15.076

> <W>
-2.043

> <W(PB)>
-4.186

> <W(SA)>
2.143

> <Valence>
18.884

> <Coulomb>
-8.074

> <VdW>
4.266

> <VdW6>
-13.486

> <VdW12>
17.752

> <Bond>
0.713

> <Angle>
8.955

> <Pdih>
9.215

> <Idih>
0.000

> <Tether>
0.000

$$$$
VeraChem MOL file


 25 25  0  0  0  0  0  0  0  0999 V2000     
   19.5855   20.9922   23.0609 C   0  0  0  0  0  0  0  0  0  0  0  0
   18.9501   21.8737   23.2226 H   0  0  0  0  0  0  0  0  0  0  0  0
   20.6128   21.3734   23.1206 H   0  0  0  0  0  0  0  0  0  0  0  0
   19.3035   20.4541   21.6359 C   0  0  0  0  0  0  0  0  0  0  0  0
   18.4502   19.7626   21.6415 H   0  0  0  0  0  0  0  0  0  0  0  0
   18.9782   21.3114   21.0306 H   0  0  0  0  0  0  0  0  0  0  0  0
   20.5280   19.8302   20.9101 C   0  0  0  0  0  0  0  0  0  0  0  0
   21.4489   20.3828   21.1400 H   0  0  0  0  0  0  0  0  0  0  0  0
   20.3649   19.9733   19.8330 H   0  0  0  0  0  0  0  0  0  0  0  0
   20.7273   18.3090   21.1354 C   0  0  0  0  0  0  0  0  0  0  0  0
   19.7523   17.8160   21.2314 H   0  0  0  0  0  0  0  0  0  0  0  0
   21.1665   17.8911   20.2199 H   0  0  0  0  0  0  0  0  0  0  0  0
   21.6689   17.9064   22.2986 C   0  0  0  0  0  0  0  0  0  0  0  0
   22.6957   18.1717   22.0088 H   0  0  0  0  0  0  0  0  0  0  0  0
   21.3898   18.5650   23.6695 C   0  0  0  0  0  0  0  0  0  0  0  0
   21.9671   18.0274   24.4335 H   0  0  0  0  0  0  0  0  0  0  0  0
   21.8109   19.5761   23.6708 H   0  0  0  0  0  0  0  0  0  0  0  0
   19.8966   18.5860   24.0930 C   0  0  0  0  0  0  0  0  0  0  0  0
   19.7975   18.0810   25.0635 H   0  0  0  0  0  0  0  0  0  0  0  0
   19.2801   17.9967   23.4047 H   0  0  0  0  0  0  0  0  0  0  0  0
   19.2993   20.0074   24.2254 C   0  0  0  0  0  0  0  0  0  0  0  0
   19.6697   20.4605   25.1551 H   0  0  0  0  0  0  0  0  0  0  0  0
   18.2121   19.9132   24.3516 H   0  0  0  0  0  0  0  0  0  0  0  0
   21.5888   16.4971   22.4596 O   0  0  0  0  0  0  0  0  0  0  0  0
   20.7081   16.3215   22.8486 H   0  0  0  0  0  0  0  0  0  0  0  0
  1  2  1  0  0  0  0
  1  3  1  0  0  0  0
  1  4  1  0  0  0  0
  4  5  1  0  0  0  0
  4  6  1  0  0  0  0
  4  7  1  0  0  0  0
  7  8  1  0  0  0  0
  7  9  1  0  0  0  0
  7 10  1  0  0  0  0
 10 11  1  0  0  0  0
 10 12  1  0  0  0  0
 10 13  1  0  0  0  0
 13 14  1  0  0  0  0
 13 15  1  0  0  0  0
 15 16  1  0  0  0  0
 15 17  1  0  0  0  0
 15 18  1  0  0  0  0
 18 19  1  0  0  0  0
 18 20  1  0  0  0  0
  1 21  1  0  0  0  0
 18 21  1  0  0  0  0
 21 22  1  0  0  0  0
 21 23  1  0  0  0  0
 13 24  1  0  0  0  0
 24 25  1  0  0  0  0
M  END
> <VConfSearch Rank>
283

> <Conf_Id>
164

> <Delta U+W>
0.008

> <U+W>
10.922

> <U>
12.433

> <W>
-1.511

> <W(PB)>
-3.669

> <W(SA)>
2.157

> <Valence>
19.007

> <Coulomb>
-9.373

> <VdW>
2.799

> <VdW6>
-12.597

> <VdW12>
15.396

> <Bond>
0.425

> <Angle>
4.784

> <Pdih>
13.799

> <Idih>
0.000

> <Tether>
0.000

$$$$
VeraChem MOL file


 25 25  0  0  0  0  0  0  0  0999 V2000     
   19.1037   18.1838   21.7471 C   0  0  0  0  0  0  0  0  0  0  0  0
   19.7349   18.6232   20.9665 H   0  0  0  0  0  0  0  0  0  0  0  0
   18.3784   17.5658   21.2005 H   0  0  0  0  0  0  0  0  0  0  0  0
   18.3046   19.2888   22.4821 C   0  0  0  0  0  0  0  0  0  0  0  0
   17.6815   19.7970   21.7335 H   0  0  0  0  0  0  0  0  0  0  0  0
   17.6020   18.8217   23.1853 H   0  0  0  0  0  0  0  0  0  0  0  0
   19.1217   20.3716   23.2322 C   0  0  0  0  0  0  0  0  0  0  0  0
   19.4129   20.0143   24.2264 H   0  0  0  0  0  0  0  0  0  0  0  0
   18.4414   21.2112   23.4305 H   0  0  0  0  0  0  0  0  0  0  0  0
   20.3564   20.9186   22.4671 C   0  0  0  0  0  0  0  0  0  0  0  0
   20.2348   20.7928   21.3845 H   0  0  0  0  0  0  0  0  0  0  0  0
   20.3873   22.0041   22.6316 H   0  0  0  0  0  0  0  0  0  0  0  0
   21.7190   20.3509   22.9378 C   0  0  0  0  0  0  0  0  0  0  0  0
   21.7925   20.4943   24.0253 H   0  0  0  0  0  0  0  0  0  0  0  0
   21.9910   18.8573   22.6285 C   0  0  0  0  0  0  0  0  0  0  0  0
   21.9232   18.6637   21.5511 H   0  0  0  0  0  0  0  0  0  0  0  0
   23.0386   18.6608   22.8933 H   0  0  0  0  0  0  0  0  0  0  0  0
   21.1174   17.8550   23.4291 C   0  0  0  0  0  0  0  0  0  0  0  0
   20.7625   18.3124   24.3596 H   0  0  0  0  0  0  0  0  0  0  0  0
   21.7598   17.0266   23.7580 H   0  0  0  0  0  0  0  0  0  0  0  0
   19.9355   17.2323   22.6430 C   0  0  0  0  0  0  0  0  0  0  0  0
   19.2668   16.7223   23.3496 H   0  0  0  0  0  0  0  0  0  0  0  0
   20.3415   16.4427   21.9960 H   0  0  0  0  0  0  0  0  0  0  0  0
   22.7423   21.1135   22.3130 O   0  0  0  0  0  0  0  0  0  0  0  0
   22.6489   20.9642   21.3497 H   0  0  0  0  0  0  0  0  0  0  0  0
  1  2  1  0  0  0  0
  1  3  1  0  0  0  0
  1  4  1  0  0  0  0
  4  5  1  0  0  0  0
  4  6  1  0  0  0  0
  4  7  1  0  0  0  0
  7  8  1  0  0  0  0
  7  9  1  0  0  0  0
  7 10  1  0  0  0  0
 10 11  1  0  0  0  0
 10 12  1  0  0  0  0
 10 13  1  0  0  0  0
 13 14  1  0  0  0  0
 13 15  1  0  0  0  0
 15 16  1  0  0  0  0
 15 17  1  0  0  0  0
 15 18  1  0  0  0  0
 18 19  1  0  0  0  0
 18 20  1  0  0  0  0
  1 21  1  0  0  0  0
 18 21  1  0  0  0  0
 21 22  1  0  0  0  0
 21 23  1  0  0  0  0
 13 24  1  0  0  0  0
 24 25  1  0  0  0  0
M  END
> <VConfSearch Rank>
284

> <Conf_Id>
15

> <Delta U+W>
-1.271

> <U+W>
9.643

> <U>
11.413

> <W>
-1.770

> <W(PB)>
-3.908

> <W(SA)>
2.138

> <Valence>
17.496

> <Coulomb>
-8.736

> <VdW>
2.653

> <VdW6>
-12.485

> <VdW12>
15.138

> <Bond>
0.414

> <Angle>
5.295

> <Pdih>
11.787

> <Idih>
0.000

> <Tether>
0.000

$$$$
VeraChem MOL file


 25 25  0  0  0  0  0  0  0  0999 V2000     
   22.1188   18.7635   23.1901 C   0  0  0  0  0  0  0  0  0  0  0  0
   23.0874   18.5885   23.6782 H   0  0  0  0  0  0  0  0  0  0  0  0
   22.3519   18.8233   22.1195 H   0  0  0  0  0  0  0  0  0  0  0  0
   21.2311   17.5266   23.4884 C   0  0  0  0  0  0  0  0  0  0  0  0
   21.6690   16.6607   22.9734 H   0  0  0  0  0  0  0  0  0  0  0  0
   21.2903   17.2971   24.5611 H   0  0  0  0  0  0  0  0  0  0  0  0
   19.7376   17.6332   23.0967 C   0  0  0  0  0  0  0  0  0  0  0  0
   19.2018   18.2215   23.8508 H   0  0  0  0  0  0  0  0  0  0  0  0
   19.2965   16.6291   23.1589 H   0  0  0  0  0  0  0  0  0  0  0  0
   19.4944   18.1971   21.6725 C   0  0  0  0  0  0  0  0  0  0  0  0
   20.4357   18.2779   21.1178 H   0  0  0  0  0  0  0  0  0  0  0  0
   18.8963   17.4692   21.1087 H   0  0  0  0  0  0  0  0  0  0  0  0
   18.7406   19.5464   21.6373 C   0  0  0  0  0  0  0  0  0  0  0  0
   17.6872   19.3451   21.8796 H   0  0  0  0  0  0  0  0  0  0  0  0
   19.2331   20.6413   22.6187 C   0  0  0  0  0  0  0  0  0  0  0  0
   18.7147   21.5710   22.3480 H   0  0  0  0  0  0  0  0  0  0  0  0
   18.8838   20.4195   23.6342 H   0  0  0  0  0  0  0  0  0  0  0  0
   20.7576   20.9317   22.6410 C   0  0  0  0  0  0  0  0  0  0  0  0
   20.8737   21.9930   22.9005 H   0  0  0  0  0  0  0  0  0  0  0  0
   21.1956   20.8302   21.6397 H   0  0  0  0  0  0  0  0  0  0  0  0
   21.5708   20.1233   23.6893 C   0  0  0  0  0  0  0  0  0  0  0  0
   21.0036   19.9973   24.6213 H   0  0  0  0  0  0  0  0  0  0  0  0
   22.4408   20.7376   23.9597 H   0  0  0  0  0  0  0  0  0  0  0  0
   18.8136   20.0609   20.3150 O   0  0  0  0  0  0  0  0  0  0  0  0
   19.7487   20.3137   20.1774 H   0  0  0  0  0  0  0  0  0  0  0  0
  1  2  1  0  0  0  0
  1  3  1  0  0  0  0
  1  4  1  0  0  0  0
  4  5  1  0  0  0  0
  4  6  1  0  0  0  0
  4  7  1  0  0  0  0
  7  8  1  0  0  0  0
  7  9  1  0  0  0  0
  7 10  1  0  0  0  0
 10 11  1  0  0  0  0
 10 12  1  0  0  0  0
 10 13  1  0  0  0  0
 13 14  1  0  0  0  0
 13 15  1  0  0  0  0
 15 16  1  0  0  0  0
 15 17  1  0  0  0  0
 15 18  1  0  0  0  0
 18 19  1  0  0  0  0
 18 20  1  0  0  0  0
  1 21  1  0  0  0  0
 18 21  1  0  0  0  0
 21 22  1  0  0  0  0
 21 23  1  0  0  0  0
 13 24  1  0  0  0  0
 24 25  1  0  0  0  0
M  END
> <VConfSearch Rank>
285

> <Conf_Id>
115

> <Delta U+W>
0.038

> <U+W>
10.952

> <U>
12.526

> <W>
-1.575

> <W(PB)>
-3.698

> <W(SA)>
2.123

> <Valence>
19.016

> <Coulomb>
-9.226

> <VdW>
2.737

> <VdW6>
-12.612

> <VdW12>
15.349

> <Bond>
0.421

> <Angle>
4.883

> <Pdih>
13.711

> <Idih>
0.000

> <Tether>
0.000

$$$$
VeraChem MOL file


 25 25  0  0  0  0  0  0  0  0999 V2000     
   19.9321   18.0997   20.9002 C   0  0  0  0  0  0  0  0  0  0  0  0
   19.2708   17.6501   20.1469 H   0  0  0  0  0  0  0  0  0  0  0  0
   20.9475   18.0107   20.4910 H   0  0  0  0  0  0  0  0  0  0  0  0
   19.8032   17.2549   22.1892 C   0  0  0  0  0  0  0  0  0  0  0  0
   18.7592   17.2448   22.5306 H   0  0  0  0  0  0  0  0  0  0  0  0
   20.0371   16.2146   21.9247 H   0  0  0  0  0  0  0  0  0  0  0  0
   20.7395   17.6739   23.3462 C   0  0  0  0  0  0  0  0  0  0  0  0
   21.7394   17.9127   22.9601 H   0  0  0  0  0  0  0  0  0  0  0  0
   20.8783   16.7953   23.9911 H   0  0  0  0  0  0  0  0  0  0  0  0
   20.1847   18.8204   24.2338 C   0  0  0  0  0  0  0  0  0  0  0  0
   19.1175   18.9905   24.0445 H   0  0  0  0  0  0  0  0  0  0  0  0
   20.2465   18.4851   25.2779 H   0  0  0  0  0  0  0  0  0  0  0  0
   20.9606   20.1517   24.1166 C   0  0  0  0  0  0  0  0  0  0  0  0
   22.0291   19.9301   23.9829 H   0  0  0  0  0  0  0  0  0  0  0  0
   20.4914   21.0719   22.9679 C   0  0  0  0  0  0  0  0  0  0  0  0
   19.4410   21.3537   23.1191 H   0  0  0  0  0  0  0  0  0  0  0  0
   21.0641   22.0060   23.0372 H   0  0  0  0  0  0  0  0  0  0  0  0
   20.6911   20.5070   21.5404 C   0  0  0  0  0  0  0  0  0  0  0  0
   21.6659   20.0079   21.4593 H   0  0  0  0  0  0  0  0  0  0  0  0
   20.7454   21.3637   20.8546 H   0  0  0  0  0  0  0  0  0  0  0  0
   19.5425   19.5895   21.0455 C   0  0  0  0  0  0  0  0  0  0  0  0
   19.2425   19.9468   20.0508 H   0  0  0  0  0  0  0  0  0  0  0  0
   18.6469   19.6920   21.6727 H   0  0  0  0  0  0  0  0  0  0  0  0
   20.7920   20.8680   25.3339 O   0  0  0  0  0  0  0  0  0  0  0  0
   21.3335   21.6816   25.2612 H   0  0  0  0  0  0  0  0  0  0  0  0
  1  2  1  0  0  0  0
  1  3  1  0  0  0  0
  1  4  1  0  0  0  0
  4  5  1  0  0  0  0
  4  6  1  0  0  0  0
  4  7  1  0  0  0  0
  7  8  1  0  0  0  0
  7  9  1  0  0  0  0
  7 10  1  0  0  0  0
 10 11  1  0  0  0  0
 10 12  1  0  0  0  0
 10 13  1  0  0  0  0
 13 14  1  0  0  0  0
 13 15  1  0  0  0  0
 15 16  1  0  0  0  0
 15 17  1  0  0  0  0
 15 18  1  0  0  0  0
 18 19  1  0  0  0  0
 18 20  1  0  0  0  0
  1 21  1  0  0  0  0
 18 21  1  0  0  0  0
 21 22  1  0  0  0  0
 21 23  1  0  0  0  0
 13 24  1  0  0  0  0
 24 25  1  0  0  0  0
M  END
> <VConfSearch Rank>
286

> <Conf_Id>
30

> <Delta U+W>
0.000

> <U+W>
10.913

> <U>
13.140

> <W>
-2.227

> <W(PB)>
-4.367

> <W(SA)>
2.140

> <Valence>
19.155

> <Coulomb>
-8.157

> <VdW>
2.142

> <VdW6>
-11.576

> <VdW12>
13.718

> <Bond>
0.294

> <Angle>
3.547

> <Pdih>
15.314

> <Idih>
0.000

> <Tether>
0.000

$$$$
VeraChem MOL file


 25 25  0  0  0  0  0  0  0  0999 V2000     
   19.1081   20.8870   21.9734 C   0  0  0  0  0  0  0  0  0  0  0  0
   18.4814   21.0418   21.0845 H   0  0  0  0  0  0  0  0  0  0  0  0
   19.0905   21.8406   22.5185 H   0  0  0  0  0  0  0  0  0  0  0  0
   20.5613   20.6206   21.5094 C   0  0  0  0  0  0  0  0  0  0  0  0
   20.7994   21.3392   20.7133 H   0  0  0  0  0  0  0  0  0  0  0  0
   21.2574   20.8652   22.3201 H   0  0  0  0  0  0  0  0  0  0  0  0
   20.8102   19.1880   20.9733 C   0  0  0  0  0  0  0  0  0  0  0  0
   21.2228   19.2581   19.9576 H   0  0  0  0  0  0  0  0  0  0  0  0
   19.8666   18.6428   20.8547 H   0  0  0  0  0  0  0  0  0  0  0  0
   21.7917   18.3526   21.8337 C   0  0  0  0  0  0  0  0  0  0  0  0
   21.7558   17.3110   21.4877 H   0  0  0  0  0  0  0  0  0  0  0  0
   22.8130   18.7017   21.6331 H   0  0  0  0  0  0  0  0  0  0  0  0
   21.5777   18.3830   23.3678 C   0  0  0  0  0  0  0  0  0  0  0  0
   21.8652   19.3702   23.7534 H   0  0  0  0  0  0  0  0  0  0  0  0
   20.1358   18.0695   23.8368 C   0  0  0  0  0  0  0  0  0  0  0  0
   19.6525   17.3700   23.1428 H   0  0  0  0  0  0  0  0  0  0  0  0
   20.1970   17.5333   24.7932 H   0  0  0  0  0  0  0  0  0  0  0  0
   19.2398   19.3168   24.0802 C   0  0  0  0  0  0  0  0  0  0  0  0
   19.8183   20.1438   24.5136 H   0  0  0  0  0  0  0  0  0  0  0  0
   18.5079   19.0381   24.8508 H   0  0  0  0  0  0  0  0  0  0  0  0
   18.4336   19.7967   22.8478 C   0  0  0  0  0  0  0  0  0  0  0  0
   17.4853   20.2181   23.2086 H   0  0  0  0  0  0  0  0  0  0  0  0
   18.1402   18.9359   22.2336 H   0  0  0  0  0  0  0  0  0  0  0  0
   22.4544   17.4157   23.9334 O   0  0  0  0  0  0  0  0  0  0  0  0
   22.3728   17.4956   24.9067 H   0  0  0  0  0  0  0  0  0  0  0  0
  1  2  1  0  0  0  0
  1  3  1  0  0  0  0
  1  4  1  0  0  0  0
  4  5  1  0  0  0  0
  4  6  1  0  0  0  0
  4  7  1  0  0  0  0
  7  8  1  0  0  0  0
  7  9  1  0  0  0  0
  7 10  1  0  0  0  0
 10 11  1  0  0  0  0
 10 12  1  0  0  0  0
 10 13  1  0  0  0  0
 13 14  1  0  0  0  0
 13 15  1  0  0  0  0
 15 16  1  0  0  0  0
 15 17  1  0  0  0  0
 15 18  1  0  0  0  0
 18 19  1  0  0  0  0
 18 20  1  0  0  0  0
  1 21  1  0  0  0  0
 18 21  1  0  0  0  0
 21 22  1  0  0  0  0
 21 23  1  0  0  0  0
 13 24  1  0  0  0  0
 24 25  1  0  0  0  0
M  END
> <VConfSearch Rank>
287

> <Conf_Id>
162

> <Delta U+W>
0.219

> <U+W>
11.132

> <U>
13.296

> <W>
-2.164

> <W(PB)>
-4.311

> <W(SA)>
2.148

> <Valence>
18.607

> <Coulomb>
-8.339

> <VdW>
3.028

> <VdW6>
-12.271

> <VdW12>
15.299

> <Bond>
0.423

> <Angle>
4.488

> <Pdih>
13.696

> <Idih>
0.000

> <Tether>
0.000

$$$$
VeraChem MOL file


 25 25  0  0  0  0  0  0  0  0999 V2000     
   20.3167   18.3584   24.4728 C   0  0  0  0  0  0  0  0  0  0  0  0
   20.4755   17.4015   23.9596 H   0  0  0  0  0  0  0  0  0  0  0  0
   20.3090   18.1046   25.5417 H   0  0  0  0  0  0  0  0  0  0  0  0
   21.5172   19.3026   24.2142 C   0  0  0  0  0  0  0  0  0  0  0  0
   21.2382   20.3482   24.4015 H   0  0  0  0  0  0  0  0  0  0  0  0
   22.2779   19.0649   24.9705 H   0  0  0  0  0  0  0  0  0  0  0  0
   22.1977   19.1430   22.8260 C   0  0  0  0  0  0  0  0  0  0  0  0
   22.2194   18.0904   22.5133 H   0  0  0  0  0  0  0  0  0  0  0  0
   23.2506   19.4295   22.9542 H   0  0  0  0  0  0  0  0  0  0  0  0
   21.6225   20.0412   21.7002 C   0  0  0  0  0  0  0  0  0  0  0  0
   21.2887   20.9986   22.1190 H   0  0  0  0  0  0  0  0  0  0  0  0
   22.4475   20.3010   21.0241 H   0  0  0  0  0  0  0  0  0  0  0  0
   20.5116   19.4148   20.8201 C   0  0  0  0  0  0  0  0  0  0  0  0
   20.9763   18.6419   20.1911 H   0  0  0  0  0  0  0  0  0  0  0  0
   19.3351   18.7488   21.5729 C   0  0  0  0  0  0  0  0  0  0  0  0
   18.5327   18.5409   20.8533 H   0  0  0  0  0  0  0  0  0  0  0  0
   19.6508   17.7599   21.9221 H   0  0  0  0  0  0  0  0  0  0  0  0
   18.7525   19.5881   22.7405 C   0  0  0  0  0  0  0  0  0  0  0  0
   17.6811   19.7488   22.5597 H   0  0  0  0  0  0  0  0  0  0  0  0
   19.1870   20.5947   22.7541 H   0  0  0  0  0  0  0  0  0  0  0  0
   18.9162   18.9347   24.1341 C   0  0  0  0  0  0  0  0  0  0  0  0
   18.1809   18.1245   24.2318 H   0  0  0  0  0  0  0  0  0  0  0  0
   18.6445   19.6780   24.8959 H   0  0  0  0  0  0  0  0  0  0  0  0
   19.9910   20.4400   19.9823 O   0  0  0  0  0  0  0  0  0  0  0  0
   19.2901   20.0285   19.4359 H   0  0  0  0  0  0  0  0  0  0  0  0
  1  2  1  0  0  0  0
  1  3  1  0  0  0  0
  1  4  1  0  0  0  0
  4  5  1  0  0  0  0
  4  6  1  0  0  0  0
  4  7  1  0  0  0  0
  7  8  1  0  0  0  0
  7  9  1  0  0  0  0
  7 10  1  0  0  0  0
 10 11  1  0  0  0  0
 10 12  1  0  0  0  0
 10 13  1  0  0  0  0
 13 14  1  0  0  0  0
 13 15  1  0  0  0  0
 15 16  1  0  0  0  0
 15 17  1  0  0  0  0
 15 18  1  0  0  0  0
 18 19  1  0  0  0  0
 18 20  1  0  0  0  0
  1 21  1  0  0  0  0
 18 21  1  0  0  0  0
 21 22  1  0  0  0  0
 21 23  1  0  0  0  0
 13 24  1  0  0  0  0
 24 25  1  0  0  0  0
M  END
> <VConfSearch Rank>
288

> <Conf_Id>
155

> <Delta U+W>
0.339

> <U+W>
11.252

> <U>
13.420

> <W>
-2.167

> <W(PB)>
-4.325

> <W(SA)>
2.157

> <Valence>
18.609

> <Coulomb>
-8.052

> <VdW>
2.863

> <VdW6>
-12.524

> <VdW12>
15.387

> <Bond>
0.430

> <Angle>
4.724

> <Pdih>
13.455

> <Idih>
0.000

> <Tether>
0.000

$$$$
VeraChem MOL file


 25 25  0  0  0  0  0  0  0  0999 V2000     
   20.9900   19.8647   24.4658 C   0  0  0  0  0  0  0  0  0  0  0  0
   20.1878   20.1561   25.1571 H   0  0  0  0  0  0  0  0  0  0  0  0
   21.9249   20.0170   25.0222 H   0  0  0  0  0  0  0  0  0  0  0  0
   20.8835   18.3453   24.1708 C   0  0  0  0  0  0  0  0  0  0  0  0
   21.7480   18.0308   23.5776 H   0  0  0  0  0  0  0  0  0  0  0  0
   21.0172   17.8124   25.1220 H   0  0  0  0  0  0  0  0  0  0  0  0
   19.5595   17.8259   23.5380 C   0  0  0  0  0  0  0  0  0  0  0  0
   18.8594   17.6236   24.3598 H   0  0  0  0  0  0  0  0  0  0  0  0
   19.7484   16.8518   23.0666 H   0  0  0  0  0  0  0  0  0  0  0  0
   18.8200   18.7448   22.5277 C   0  0  0  0  0  0  0  0  0  0  0  0
   17.8527   18.2757   22.3050 H   0  0  0  0  0  0  0  0  0  0  0  0
   18.5356   19.6742   23.0289 H   0  0  0  0  0  0  0  0  0  0  0  0
   19.5223   19.0546   21.1730 C   0  0  0  0  0  0  0  0  0  0  0  0
   19.1042   19.9951   20.7865 H   0  0  0  0  0  0  0  0  0  0  0  0
   21.0661   19.1858   21.1758 C   0  0  0  0  0  0  0  0  0  0  0  0
   21.5046   18.2369   21.4981 H   0  0  0  0  0  0  0  0  0  0  0  0
   21.3910   19.2796   20.1312 H   0  0  0  0  0  0  0  0  0  0  0  0
   21.6945   20.3800   21.9551 C   0  0  0  0  0  0  0  0  0  0  0  0
   21.7150   21.2422   21.2747 H   0  0  0  0  0  0  0  0  0  0  0  0
   22.7472   20.1504   22.1680 H   0  0  0  0  0  0  0  0  0  0  0  0
   21.0007   20.8502   23.2606 C   0  0  0  0  0  0  0  0  0  0  0  0
   19.9876   21.1945   23.0300 H   0  0  0  0  0  0  0  0  0  0  0  0
   21.5110   21.7634   23.5962 H   0  0  0  0  0  0  0  0  0  0  0  0
   19.1975   18.0084   20.2642 O   0  0  0  0  0  0  0  0  0  0  0  0
   18.2200   17.9614   20.2244 H   0  0  0  0  0  0  0  0  0  0  0  0
  1  2  1  0  0  0  0
  1  3  1  0  0  0  0
  1  4  1  0  0  0  0
  4  5  1  0  0  0  0
  4  6  1  0  0  0  0
  4  7  1  0  0  0  0
  7  8  1  0  0  0  0
  7  9  1  0  0  0  0
  7 10  1  0  0  0  0
 10 11  1  0  0  0  0
 10 12  1  0  0  0  0
 10 13  1  0  0  0  0
 13 14  1  0  0  0  0
 13 15  1  0  0  0  0
 15 16  1  0  0  0  0
 15 17  1  0  0  0  0
 15 18  1  0  0  0  0
 18 19  1  0  0  0  0
 18 20  1  0  0  0  0
  1 21  1  0  0  0  0
 18 21  1  0  0  0  0
 21 22  1  0  0  0  0
 21 23  1  0  0  0  0
 13 24  1  0  0  0  0
 24 25  1  0  0  0  0
M  END
> <VConfSearch Rank>
289

> <Conf_Id>
146

> <Delta U+W>
2.553

> <U+W>
13.466

> <U>
15.643

> <W>
-2.176

> <W(PB)>
-4.307

> <W(SA)>
2.131

> <Valence>
18.916

> <Coulomb>
-7.506

> <VdW>
4.232

> <VdW6>
-13.632

> <VdW12>
17.864

> <Bond>
0.735

> <Angle>
9.140

> <Pdih>
9.042

> <Idih>
0.000

> <Tether>
0.000

$$$$
VeraChem MOL file


 25 25  0  0  0  0  0  0  0  0999 V2000     
   21.2096   17.7332   23.7552 C   0  0  0  0  0  0  0  0  0  0  0  0
   20.8705   16.6896   23.7063 H   0  0  0  0  0  0  0  0  0  0  0  0
   22.0501   17.7386   24.4627 H   0  0  0  0  0  0  0  0  0  0  0  0
   20.0859   18.6079   24.3655 C   0  0  0  0  0  0  0  0  0  0  0  0
   19.8901   18.2274   25.3773 H   0  0  0  0  0  0  0  0  0  0  0  0
   20.4423   19.6326   24.5208 H   0  0  0  0  0  0  0  0  0  0  0  0
   18.7353   18.6110   23.6064 C   0  0  0  0  0  0  0  0  0  0  0  0
   18.0146   19.1728   24.2162 H   0  0  0  0  0  0  0  0  0  0  0  0
   18.3456   17.5854   23.5542 H   0  0  0  0  0  0  0  0  0  0  0  0
   18.7309   19.2245   22.1819 C   0  0  0  0  0  0  0  0  0  0  0  0
   19.0902   18.4927   21.4515 H   0  0  0  0  0  0  0  0  0  0  0  0
   17.6811   19.3937   21.9066 H   0  0  0  0  0  0  0  0  0  0  0  0
   19.5133   20.5552   22.0358 C   0  0  0  0  0  0  0  0  0  0  0  0
   19.6383   21.0192   23.0233 H   0  0  0  0  0  0  0  0  0  0  0  0
   20.9000   20.4042   21.3605 C   0  0  0  0  0  0  0  0  0  0  0  0
   20.7755   19.9101   20.3878 H   0  0  0  0  0  0  0  0  0  0  0  0
   21.2789   21.4099   21.1358 H   0  0  0  0  0  0  0  0  0  0  0  0
   21.9999   19.6679   22.1727 C   0  0  0  0  0  0  0  0  0  0  0  0
   22.1725   20.1658   23.1356 H   0  0  0  0  0  0  0  0  0  0  0  0
   22.9406   19.7846   21.6174 H   0  0  0  0  0  0  0  0  0  0  0  0
   21.7590   18.1483   22.3659 C   0  0  0  0  0  0  0  0  0  0  0  0
   22.7186   17.6306   22.2311 H   0  0  0  0  0  0  0  0  0  0  0  0
   21.1226   17.7546   21.5654 H   0  0  0  0  0  0  0  0  0  0  0  0
   18.7418   21.4349   21.2257 O   0  0  0  0  0  0  0  0  0  0  0  0
   19.2240   22.2873   21.1945 H   0  0  0  0  0  0  0  0  0  0  0  0
  1  2  1  0  0  0  0
  1  3  1  0  0  0  0
  1  4  1  0  0  0  0
  4  5  1  0  0  0  0
  4  6  1  0  0  0  0
  4  7  1  0  0  0  0
  7  8  1  0  0  0  0
  7  9  1  0  0  0  0
  7 10  1  0  0  0  0
 10 11  1  0  0  0  0
 10 12  1  0  0  0  0
 10 13  1  0  0  0  0
 13 14  1  0  0  0  0
 13 15  1  0  0  0  0
 15 16  1  0  0  0  0
 15 17  1  0  0  0  0
 15 18  1  0  0  0  0
 18 19  1  0  0  0  0
 18 20  1  0  0  0  0
  1 21  1  0  0  0  0
 18 21  1  0  0  0  0
 21 22  1  0  0  0  0
 21 23  1  0  0  0  0
 13 24  1  0  0  0  0
 24 25  1  0  0  0  0
M  END
> <VConfSearch Rank>
290

> <Conf_Id>
62

> <Delta U+W>
-1.779

> <U+W>
9.134

> <U>
11.364

> <W>
-2.230

> <W(PB)>
-4.359

> <W(SA)>
2.129

> <Valence>
16.582

> <Coulomb>
-8.150

> <VdW>
2.933

> <VdW6>
-12.531

> <VdW12>
15.464

> <Bond>
0.439

> <Angle>
5.099

> <Pdih>
11.044

> <Idih>
0.000

> <Tether>
0.000

$$$$
VeraChem MOL file


 25 25  0  0  0  0  0  0  0  0999 V2000     
   21.2410   18.7604   24.2596 C   0  0  0  0  0  0  0  0  0  0  0  0
   20.5527   19.5645   24.5438 H   0  0  0  0  0  0  0  0  0  0  0  0
   21.7728   18.5108   25.1877 H   0  0  0  0  0  0  0  0  0  0  0  0
   22.2949   19.2826   23.2515 C   0  0  0  0  0  0  0  0  0  0  0  0
   22.8455   20.0962   23.7432 H   0  0  0  0  0  0  0  0  0  0  0  0
   23.0365   18.4949   23.0612 H   0  0  0  0  0  0  0  0  0  0  0  0
   21.7704   19.8179   21.8947 C   0  0  0  0  0  0  0  0  0  0  0  0
   21.6042   18.9922   21.1936 H   0  0  0  0  0  0  0  0  0  0  0  0
   22.5826   20.4031   21.4420 H   0  0  0  0  0  0  0  0  0  0  0  0
   20.5113   20.7215   21.9804 C   0  0  0  0  0  0  0  0  0  0  0  0
   20.4255   21.1859   22.9705 H   0  0  0  0  0  0  0  0  0  0  0  0
   20.6624   21.5551   21.2821 H   0  0  0  0  0  0  0  0  0  0  0  0
   19.1821   20.0274   21.5895 C   0  0  0  0  0  0  0  0  0  0  0  0
   19.3111   19.5693   20.5982 H   0  0  0  0  0  0  0  0  0  0  0  0
   18.6634   18.9367   22.5597 C   0  0  0  0  0  0  0  0  0  0  0  0
   18.5232   19.3517   23.5651 H   0  0  0  0  0  0  0  0  0  0  0  0
   17.6569   18.6589   22.2197 H   0  0  0  0  0  0  0  0  0  0  0  0
   19.5130   17.6383   22.6022 C   0  0  0  0  0  0  0  0  0  0  0  0
   20.0777   17.5181   21.6707 H   0  0  0  0  0  0  0  0  0  0  0  0
   18.8271   16.7803   22.6201 H   0  0  0  0  0  0  0  0  0  0  0  0
   20.4502   17.4998   23.8291 C   0  0  0  0  0  0  0  0  0  0  0  0
   21.1524   16.6744   23.6500 H   0  0  0  0  0  0  0  0  0  0  0  0
   19.8374   17.1878   24.6858 H   0  0  0  0  0  0  0  0  0  0  0  0
   18.1801   21.0326   21.5010 O   0  0  0  0  0  0  0  0  0  0  0  0
   18.4880   21.6814   20.8344 H   0  0  0  0  0  0  0  0  0  0  0  0
  1  2  1  0  0  0  0
  1  3  1  0  0  0  0
  1  4  1  0  0  0  0
  4  5  1  0  0  0  0
  4  6  1  0  0  0  0
  4  7  1  0  0  0  0
  7  8  1  0  0  0  0
  7  9  1  0  0  0  0
  7 10  1  0  0  0  0
 10 11  1  0  0  0  0
 10 12  1  0  0  0  0
 10 13  1  0  0  0  0
 13 14  1  0  0  0  0
 13 15  1  0  0  0  0
 15 16  1  0  0  0  0
 15 17  1  0  0  0  0
 15 18  1  0  0  0  0
 18 19  1  0  0  0  0
 18 20  1  0  0  0  0
  1 21  1  0  0  0  0
 18 21  1  0  0  0  0
 21 22  1  0  0  0  0
 21 23  1  0  0  0  0
 13 24  1  0  0  0  0
 24 25  1  0  0  0  0
M  END
> <VConfSearch Rank>
291

> <Conf_Id>
121

> <Delta U+W>
-1.283

> <U+W>
9.630

> <U>
11.876

> <W>
-2.246

> <W(PB)>
-4.376

> <W(SA)>
2.130

> <Valence>
17.153

> <Coulomb>
-7.966

> <VdW>
2.689

> <VdW6>
-12.458

> <VdW12>
15.147

> <Bond>
0.421

> <Angle>
5.258

> <Pdih>
11.475

> <Idih>
0.000

> <Tether>
0.000

$$$$
VeraChem MOL file


 25 25  0  0  0  0  0  0  0  0999 V2000     
   21.0678   19.7813   21.0306 C   0  0  0  0  0  0  0  0  0  0  0  0
   21.1052   18.6863   21.0034 H   0  0  0  0  0  0  0  0  0  0  0  0
   21.4754   20.0961   20.0604 H   0  0  0  0  0  0  0  0  0  0  0  0
   22.0164   20.3268   22.1271 C   0  0  0  0  0  0  0  0  0  0  0  0
   23.0323   19.9891   21.8804 H   0  0  0  0  0  0  0  0  0  0  0  0
   22.0457   21.4233   22.0691 H   0  0  0  0  0  0  0  0  0  0  0  0
   21.7205   19.9079   23.5899 C   0  0  0  0  0  0  0  0  0  0  0  0
   20.9530   20.5559   24.0282 H   0  0  0  0  0  0  0  0  0  0  0  0
   22.6253   20.1185   24.1765 H   0  0  0  0  0  0  0  0  0  0  0  0
   21.3504   18.4137   23.7901 C   0  0  0  0  0  0  0  0  0  0  0  0
   21.7527   17.7938   22.9798 H   0  0  0  0  0  0  0  0  0  0  0  0
   21.8618   18.0683   24.6984 H   0  0  0  0  0  0  0  0  0  0  0  0
   19.8397   18.1342   23.9891 C   0  0  0  0  0  0  0  0  0  0  0  0
   19.4782   18.7763   24.8052 H   0  0  0  0  0  0  0  0  0  0  0  0
   18.9293   18.3580   22.7553 C   0  0  0  0  0  0  0  0  0  0  0  0
   19.2633   17.7385   21.9139 H   0  0  0  0  0  0  0  0  0  0  0  0
   17.9308   17.9816   23.0132 H   0  0  0  0  0  0  0  0  0  0  0  0
   18.7634   19.8404   22.3258 C   0  0  0  0  0  0  0  0  0  0  0  0
   18.9540   20.5097   23.1724 H   0  0  0  0  0  0  0  0  0  0  0  0
   17.7071   20.0089   22.0751 H   0  0  0  0  0  0  0  0  0  0  0  0
   19.5993   20.2703   21.0932 C   0  0  0  0  0  0  0  0  0  0  0  0
   19.5778   21.3655   21.0124 H   0  0  0  0  0  0  0  0  0  0  0  0
   19.0895   19.8962   20.1948 H   0  0  0  0  0  0  0  0  0  0  0  0
   19.7048   16.7746   24.3839 O   0  0  0  0  0  0  0  0  0  0  0  0
   18.7547   16.6276   24.5727 H   0  0  0  0  0  0  0  0  0  0  0  0
  1  2  1  0  0  0  0
  1  3  1  0  0  0  0
  1  4  1  0  0  0  0
  4  5  1  0  0  0  0
  4  6  1  0  0  0  0
  4  7  1  0  0  0  0
  7  8  1  0  0  0  0
  7  9  1  0  0  0  0
  7 10  1  0  0  0  0
 10 11  1  0  0  0  0
 10 12  1  0  0  0  0
 10 13  1  0  0  0  0
 13 14  1  0  0  0  0
 13 15  1  0  0  0  0
 15 16  1  0  0  0  0
 15 17  1  0  0  0  0
 15 18  1  0  0  0  0
 18 19  1  0  0  0  0
 18 20  1  0  0  0  0
  1 21  1  0  0  0  0
 18 21  1  0  0  0  0
 21 22  1  0  0  0  0
 21 23  1  0  0  0  0
 13 24  1  0  0  0  0
 24 25  1  0  0  0  0
M  END
> <VConfSearch Rank>
292

> <Conf_Id>
24

> <Delta U+W>
-1.236

> <U+W>
9.678

> <U>
11.876

> <W>
-2.199

> <W(PB)>
-4.335

> <W(SA)>
2.137

> <Valence>
17.153

> <Coulomb>
-7.966

> <VdW>
2.689

> <VdW6>
-12.458

> <VdW12>
15.147

> <Bond>
0.421

> <Angle>
5.258

> <Pdih>
11.475

> <Idih>
0.000

> <Tether>
0.000

$$$$
VeraChem MOL file


 25 25  0  0  0  0  0  0  0  0999 V2000     
   22.2531   18.9352   21.8832 C   0  0  0  0  0  0  0  0  0  0  0  0
   22.5289   19.1637   20.8447 H   0  0  0  0  0  0  0  0  0  0  0  0
   23.1590   18.5218   22.3471 H   0  0  0  0  0  0  0  0  0  0  0  0
   21.9051   20.2598   22.6130 C   0  0  0  0  0  0  0  0  0  0  0  0
   21.9455   20.1238   23.7012 H   0  0  0  0  0  0  0  0  0  0  0  0
   22.7138   20.9694   22.3902 H   0  0  0  0  0  0  0  0  0  0  0  0
   20.5650   20.9248   22.2123 C   0  0  0  0  0  0  0  0  0  0  0  0
   20.3530   20.7640   21.1466 H   0  0  0  0  0  0  0  0  0  0  0  0
   20.7023   22.0095   22.3211 H   0  0  0  0  0  0  0  0  0  0  0  0
   19.3444   20.5343   23.0930 C   0  0  0  0  0  0  0  0  0  0  0  0
   19.6433   20.4102   24.1416 H   0  0  0  0  0  0  0  0  0  0  0  0
   18.6616   21.3948   23.0812 H   0  0  0  0  0  0  0  0  0  0  0  0
   18.5537   19.2965   22.6032 C   0  0  0  0  0  0  0  0  0  0  0  0
   18.6591   19.2244   21.5127 H   0  0  0  0  0  0  0  0  0  0  0  0
   18.9646   17.9483   23.2477 C   0  0  0  0  0  0  0  0  0  0  0  0
   18.6179   17.9216   24.2891 H   0  0  0  0  0  0  0  0  0  0  0  0
   18.4181   17.1509   22.7271 H   0  0  0  0  0  0  0  0  0  0  0  0
   20.4734   17.5963   23.2314 C   0  0  0  0  0  0  0  0  0  0  0  0
   20.5787   16.5361   23.4991 H   0  0  0  0  0  0  0  0  0  0  0  0
   20.9884   18.1392   24.0325 H   0  0  0  0  0  0  0  0  0  0  0  0
   21.1639   17.8349   21.8647 C   0  0  0  0  0  0  0  0  0  0  0  0
   20.4277   18.0587   21.0840 H   0  0  0  0  0  0  0  0  0  0  0  0
   21.6354   16.8969   21.5412 H   0  0  0  0  0  0  0  0  0  0  0  0
   17.1773   19.5010   22.8955 O   0  0  0  0  0  0  0  0  0  0  0  0
   17.1099   19.5827   23.8690 H   0  0  0  0  0  0  0  0  0  0  0  0
  1  2  1  0  0  0  0
  1  3  1  0  0  0  0
  1  4  1  0  0  0  0
  4  5  1  0  0  0  0
  4  6  1  0  0  0  0
  4  7  1  0  0  0  0
  7  8  1  0  0  0  0
  7  9  1  0  0  0  0
  7 10  1  0  0  0  0
 10 11  1  0  0  0  0
 10 12  1  0  0  0  0
 10 13  1  0  0  0  0
 13 14  1  0  0  0  0
 13 15  1  0  0  0  0
 15 16  1  0  0  0  0
 15 17  1  0  0  0  0
 15 18  1  0  0  0  0
 18 19  1  0  0  0  0
 18 20  1  0  0  0  0
  1 21  1  0  0  0  0
 18 21  1  0  0  0  0
 21 22  1  0  0  0  0
 21 23  1  0  0  0  0
 13 24  1  0  0  0  0
 24 25  1  0  0  0  0
M  END
> <VConfSearch Rank>
293

> <Conf_Id>
167

> <Delta U+W>
0.388

> <U+W>
11.301

> <U>
13.202

> <W>
-1.901

> <W(PB)>
-4.065

> <W(SA)>
2.163

> <Valence>
18.957

> <Coulomb>
-8.753

> <VdW>
2.998

> <VdW6>
-12.294

> <VdW12>
15.292

> <Bond>
0.419

> <Angle>
4.543

> <Pdih>
13.996

> <Idih>
0.000

> <Tether>
0.000

$$$$
VeraChem MOL file


 25 25  0  0  0  0  0  0  0  0999 V2000     
   22.1590   18.4462   23.1094 C   0  0  0  0  0  0  0  0  0  0  0  0
   22.2766   17.3905   23.3889 H   0  0  0  0  0  0  0  0  0  0  0  0
   23.1733   18.8683   23.1145 H   0  0  0  0  0  0  0  0  0  0  0  0
   21.3417   19.1694   24.2114 C   0  0  0  0  0  0  0  0  0  0  0  0
   20.5175   18.5366   24.5593 H   0  0  0  0  0  0  0  0  0  0  0  0
   21.9982   19.2674   25.0868 H   0  0  0  0  0  0  0  0  0  0  0  0
   20.8230   20.5823   23.8380 C   0  0  0  0  0  0  0  0  0  0  0  0
   21.4526   21.0425   23.0656 H   0  0  0  0  0  0  0  0  0  0  0  0
   20.9416   21.2221   24.7232 H   0  0  0  0  0  0  0  0  0  0  0  0
   19.3244   20.6411   23.4343 C   0  0  0  0  0  0  0  0  0  0  0  0
   18.7125   20.2129   24.2390 H   0  0  0  0  0  0  0  0  0  0  0  0
   19.0392   21.7000   23.3772 H   0  0  0  0  0  0  0  0  0  0  0  0
   18.9353   19.9772   22.0900 C   0  0  0  0  0  0  0  0  0  0  0  0
   19.5710   20.3832   21.2917 H   0  0  0  0  0  0  0  0  0  0  0  0
   19.0273   18.4292   22.0983 C   0  0  0  0  0  0  0  0  0  0  0  0
   18.9718   18.0543   23.1253 H   0  0  0  0  0  0  0  0  0  0  0  0
   18.1409   18.0070   21.6065 H   0  0  0  0  0  0  0  0  0  0  0  0
   20.2707   17.8429   21.3807 C   0  0  0  0  0  0  0  0  0  0  0  0
   20.0888   17.8891   20.2982 H   0  0  0  0  0  0  0  0  0  0  0  0
   20.3516   16.7747   21.6236 H   0  0  0  0  0  0  0  0  0  0  0  0
   21.6297   18.5343   21.6559 C   0  0  0  0  0  0  0  0  0  0  0  0
   21.6058   19.5780   21.3221 H   0  0  0  0  0  0  0  0  0  0  0  0
   22.3760   18.0546   21.0080 H   0  0  0  0  0  0  0  0  0  0  0  0
   17.5884   20.3415   21.8122 O   0  0  0  0  0  0  0  0  0  0  0  0
   17.3750   19.9748   20.9287 H   0  0  0  0  0  0  0  0  0  0  0  0
  1  2  1  0  0  0  0
  1  3  1  0  0  0  0
  1  4  1  0  0  0  0
  4  5  1  0  0  0  0
  4  6  1  0  0  0  0
  4  7  1  0  0  0  0
  7  8  1  0  0  0  0
  7  9  1  0  0  0  0
  7 10  1  0  0  0  0
 10 11  1  0  0  0  0
 10 12  1  0  0  0  0
 10 13  1  0  0  0  0
 13 14  1  0  0  0  0
 13 15  1  0  0  0  0
 15 16  1  0  0  0  0
 15 17  1  0  0  0  0
 15 18  1  0  0  0  0
 18 19  1  0  0  0  0
 18 20  1  0  0  0  0
  1 21  1  0  0  0  0
 18 21  1  0  0  0  0
 21 22  1  0  0  0  0
 21 23  1  0  0  0  0
 13 24  1  0  0  0  0
 24 25  1  0  0  0  0
M  END
> <VConfSearch Rank>
294

> <Conf_Id>
60

> <Delta U+W>
-1.838

> <U+W>
9.075

> <U>
11.150

> <W>
-2.074

> <W(PB)>
-4.196

> <W(SA)>
2.121

> <Valence>
16.582

> <Coulomb>
-8.361

> <VdW>
2.928

> <VdW6>
-12.539

> <VdW12>
15.467

> <Bond>
0.441

> <Angle>
5.093

> <Pdih>
11.049

> <Idih>
0.000

> <Tether>
0.000

$$$$
VeraChem MOL file


 25 25  0  0  0  0  0  0  0  0999 V2000     
   19.0708   18.4226   21.2045 C   0  0  0  0  0  0  0  0  0  0  0  0
   19.3281   18.4819   20.1383 H   0  0  0  0  0  0  0  0  0  0  0  0
   18.0857   17.9379   21.2446 H   0  0  0  0  0  0  0  0  0  0  0  0
   18.9037   19.8552   21.7705 C   0  0  0  0  0  0  0  0  0  0  0  0
   18.0866   20.3325   21.2124 H   0  0  0  0  0  0  0  0  0  0  0  0
   18.5442   19.8162   22.8051 H   0  0  0  0  0  0  0  0  0  0  0  0
   20.1397   20.7828   21.6577 C   0  0  0  0  0  0  0  0  0  0  0  0
   19.8334   21.7844   21.9890 H   0  0  0  0  0  0  0  0  0  0  0  0
   20.4166   20.8908   20.6002 H   0  0  0  0  0  0  0  0  0  0  0  0
   21.3978   20.3766   22.4682 C   0  0  0  0  0  0  0  0  0  0  0  0
   21.9647   19.6116   21.9281 H   0  0  0  0  0  0  0  0  0  0  0  0
   22.0661   21.2478   22.4865 H   0  0  0  0  0  0  0  0  0  0  0  0
   21.1189   19.9082   23.9199 C   0  0  0  0  0  0  0  0  0  0  0  0
   20.1319   20.2655   24.2428 H   0  0  0  0  0  0  0  0  0  0  0  0
   21.1902   18.3730   24.1138 C   0  0  0  0  0  0  0  0  0  0  0  0
   22.1641   18.0093   23.7611 H   0  0  0  0  0  0  0  0  0  0  0  0
   21.1728   18.1730   25.1934 H   0  0  0  0  0  0  0  0  0  0  0  0
   20.0583   17.5306   23.4645 C   0  0  0  0  0  0  0  0  0  0  0  0
   19.0750   17.8494   23.8337 H   0  0  0  0  0  0  0  0  0  0  0  0
   20.1794   16.4999   23.8248 H   0  0  0  0  0  0  0  0  0  0  0  0
   20.0851   17.4887   21.9146 C   0  0  0  0  0  0  0  0  0  0  0  0
   19.8547   16.4625   21.5971 H   0  0  0  0  0  0  0  0  0  0  0  0
   21.1004   17.6667   21.5426 H   0  0  0  0  0  0  0  0  0  0  0  0
   22.1003   20.4883   24.7711 O   0  0  0  0  0  0  0  0  0  0  0  0
   22.0003   21.4601   24.6931 H   0  0  0  0  0  0  0  0  0  0  0  0
  1  2  1  0  0  0  0
  1  3  1  0  0  0  0
  1  4  1  0  0  0  0
  4  5  1  0  0  0  0
  4  6  1  0  0  0  0
  4  7  1  0  0  0  0
  7  8  1  0  0  0  0
  7  9  1  0  0  0  0
  7 10  1  0  0  0  0
 10 11  1  0  0  0  0
 10 12  1  0  0  0  0
 10 13  1  0  0  0  0
 13 14  1  0  0  0  0
 13 15  1  0  0  0  0
 15 16  1  0  0  0  0
 15 17  1  0  0  0  0
 15 18  1  0  0  0  0
 18 19  1  0  0  0  0
 18 20  1  0  0  0  0
  1 21  1  0  0  0  0
 18 21  1  0  0  0  0
 21 22  1  0  0  0  0
 21 23  1  0  0  0  0
 13 24  1  0  0  0  0
 24 25  1  0  0  0  0
M  END
> <VConfSearch Rank>
295

> <Conf_Id>
129

> <Delta U+W>
-1.846

> <U+W>
9.067

> <U>
11.150

> <W>
-2.083

> <W(PB)>
-4.217

> <W(SA)>
2.134

> <Valence>
16.583

> <Coulomb>
-8.361

> <VdW>
2.928

> <VdW6>
-12.539

> <VdW12>
15.467

> <Bond>
0.441

> <Angle>
5.093

> <Pdih>
11.049

> <Idih>
0.000

> <Tether>
0.000

$$$$
VeraChem MOL file


 25 25  0  0  0  0  0  0  0  0999 V2000     
   20.4690   20.3612   20.9446 C   0  0  0  0  0  0  0  0  0  0  0  0
   20.1667   19.9714   19.9632 H   0  0  0  0  0  0  0  0  0  0  0  0
   20.8388   21.3787   20.7579 H   0  0  0  0  0  0  0  0  0  0  0  0
   21.6599   19.5279   21.4811 C   0  0  0  0  0  0  0  0  0  0  0  0
   22.4840   19.6379   20.7630 H   0  0  0  0  0  0  0  0  0  0  0  0
   22.0438   19.9654   22.4098 H   0  0  0  0  0  0  0  0  0  0  0  0
   21.4057   18.0101   21.6594 C   0  0  0  0  0  0  0  0  0  0  0  0
   22.3633   17.5443   21.9298 H   0  0  0  0  0  0  0  0  0  0  0  0
   21.1248   17.5729   20.6917 H   0  0  0  0  0  0  0  0  0  0  0  0
   20.3579   17.5927   22.7239 C   0  0  0  0  0  0  0  0  0  0  0  0
   19.3473   17.6717   22.3103 H   0  0  0  0  0  0  0  0  0  0  0  0
   20.4990   16.5189   22.9072 H   0  0  0  0  0  0  0  0  0  0  0  0
   20.4492   18.3573   24.0699 C   0  0  0  0  0  0  0  0  0  0  0  0
   21.4460   18.8061   24.1736 H   0  0  0  0  0  0  0  0  0  0  0  0
   19.3726   19.4566   24.2520 C   0  0  0  0  0  0  0  0  0  0  0  0
   18.3753   19.0173   24.1187 H   0  0  0  0  0  0  0  0  0  0  0  0
   19.4129   19.7930   25.2967 H   0  0  0  0  0  0  0  0  0  0  0  0
   19.4985   20.7169   23.3537 C   0  0  0  0  0  0  0  0  0  0  0  0
   20.4720   21.2029   23.4985 H   0  0  0  0  0  0  0  0  0  0  0  0
   18.7588   21.4440   23.7159 H   0  0  0  0  0  0  0  0  0  0  0  0
   19.2144   20.4734   21.8488 C   0  0  0  0  0  0  0  0  0  0  0  0
   18.6205   21.3177   21.4725 H   0  0  0  0  0  0  0  0  0  0  0  0
   18.5633   19.6021   21.7159 H   0  0  0  0  0  0  0  0  0  0  0  0
   20.2782   17.4201   25.1256 O   0  0  0  0  0  0  0  0  0  0  0  0
   19.3836   17.0379   25.0141 H   0  0  0  0  0  0  0  0  0  0  0  0
  1  2  1  0  0  0  0
  1  3  1  0  0  0  0
  1  4  1  0  0  0  0
  4  5  1  0  0  0  0
  4  6  1  0  0  0  0
  4  7  1  0  0  0  0
  7  8  1  0  0  0  0
  7  9  1  0  0  0  0
  7 10  1  0  0  0  0
 10 11  1  0  0  0  0
 10 12  1  0  0  0  0
 10 13  1  0  0  0  0
 13 14  1  0  0  0  0
 13 15  1  0  0  0  0
 15 16  1  0  0  0  0
 15 17  1  0  0  0  0
 15 18  1  0  0  0  0
 18 19  1  0  0  0  0
 18 20  1  0  0  0  0
  1 21  1  0  0  0  0
 18 21  1  0  0  0  0
 21 22  1  0  0  0  0
 21 23  1  0  0  0  0
 13 24  1  0  0  0  0
 24 25  1  0  0  0  0
M  END
> <VConfSearch Rank>
296

> <Conf_Id>
140

> <Delta U+W>
-1.702

> <U+W>
9.211

> <U>
11.181

> <W>
-1.969

> <W(PB)>
-4.093

> <W(SA)>
2.124

> <Valence>
16.954

> <Coulomb>
-8.661

> <VdW>
2.887

> <VdW6>
-12.561

> <VdW12>
15.448

> <Bond>
0.433

> <Angle>
5.120

> <Pdih>
11.401

> <Idih>
0.000

> <Tether>
0.000

$$$$
VeraChem MOL file


 25 25  0  0  0  0  0  0  0  0999 V2000     
   20.1862   17.1775   22.1550 C   0  0  0  0  0  0  0  0  0  0  0  0
   19.2203   16.6596   22.0815 H   0  0  0  0  0  0  0  0  0  0  0  0
   20.9473   16.4174   21.9317 H   0  0  0  0  0  0  0  0  0  0  0  0
   20.3975   17.6410   23.6196 C   0  0  0  0  0  0  0  0  0  0  0  0
   19.4645   18.0340   24.0388 H   0  0  0  0  0  0  0  0  0  0  0  0
   20.6067   16.7417   24.2151 H   0  0  0  0  0  0  0  0  0  0  0  0
   21.5588   18.6450   23.8386 C   0  0  0  0  0  0  0  0  0  0  0  0
   22.3185   18.5481   23.0524 H   0  0  0  0  0  0  0  0  0  0  0  0
   22.0707   18.3600   24.7680 H   0  0  0  0  0  0  0  0  0  0  0  0
   21.1179   20.1250   23.9997 C   0  0  0  0  0  0  0  0  0  0  0  0
   20.3917   20.1975   24.8199 H   0  0  0  0  0  0  0  0  0  0  0  0
   21.9969   20.6954   24.3286 H   0  0  0  0  0  0  0  0  0  0  0  0
   20.5464   20.8257   22.7413 C   0  0  0  0  0  0  0  0  0  0  0  0
   21.2620   20.7248   21.9145 H   0  0  0  0  0  0  0  0  0  0  0  0
   19.1564   20.3019   22.2963 C   0  0  0  0  0  0  0  0  0  0  0  0
   18.6433   19.8252   23.1377 H   0  0  0  0  0  0  0  0  0  0  0  0
   18.5171   21.1542   22.0288 H   0  0  0  0  0  0  0  0  0  0  0  0
   19.1747   19.3500   21.0720 C   0  0  0  0  0  0  0  0  0  0  0  0
   19.3003   19.9648   20.1702 H   0  0  0  0  0  0  0  0  0  0  0  0
   18.1888   18.8758   20.9741 H   0  0  0  0  0  0  0  0  0  0  0  0
   20.2731   18.2576   21.0478 C   0  0  0  0  0  0  0  0  0  0  0  0
   21.2694   18.7141   21.0376 H   0  0  0  0  0  0  0  0  0  0  0  0
   20.1966   17.7404   20.0816 H   0  0  0  0  0  0  0  0  0  0  0  0
   20.4227   22.2088   23.0479 O   0  0  0  0  0  0  0  0  0  0  0  0
   19.7848   22.2721   23.7881 H   0  0  0  0  0  0  0  0  0  0  0  0
  1  2  1  0  0  0  0
  1  3  1  0  0  0  0
  1  4  1  0  0  0  0
  4  5  1  0  0  0  0
  4  6  1  0  0  0  0
  4  7  1  0  0  0  0
  7  8  1  0  0  0  0
  7  9  1  0  0  0  0
  7 10  1  0  0  0  0
 10 11  1  0  0  0  0
 10 12  1  0  0  0  0
 10 13  1  0  0  0  0
 13 14  1  0  0  0  0
 13 15  1  0  0  0  0
 15 16  1  0  0  0  0
 15 17  1  0  0  0  0
 15 18  1  0  0  0  0
 18 19  1  0  0  0  0
 18 20  1  0  0  0  0
  1 21  1  0  0  0  0
 18 21  1  0  0  0  0
 21 22  1  0  0  0  0
 21 23  1  0  0  0  0
 13 24  1  0  0  0  0
 24 25  1  0  0  0  0
M  END
> <VConfSearch Rank>
297

> <Conf_Id>
68

> <Delta U+W>
-1.765

> <U+W>
9.148

> <U>
11.181

> <W>
-2.032

> <W(PB)>
-4.147

> <W(SA)>
2.114

> <Valence>
16.955

> <Coulomb>
-8.661

> <VdW>
2.887

> <VdW6>
-12.561

> <VdW12>
15.448

> <Bond>
0.433

> <Angle>
5.121

> <Pdih>
11.402

> <Idih>
0.000

> <Tether>
0.000

$$$$
VeraChem MOL file


 25 25  0  0  0  0  0  0  0  0999 V2000     
   20.9191   20.1816   21.2296 C   0  0  0  0  0  0  0  0  0  0  0  0
   21.2051   20.7735   20.3494 H   0  0  0  0  0  0  0  0  0  0  0  0
   21.8611   19.7457   21.5811 H   0  0  0  0  0  0  0  0  0  0  0  0
   19.9433   19.0693   20.7649 C   0  0  0  0  0  0  0  0  0  0  0  0
   18.8986   19.3805   20.8931 H   0  0  0  0  0  0  0  0  0  0  0  0
   20.0740   18.9474   19.6809 H   0  0  0  0  0  0  0  0  0  0  0  0
   20.1864   17.6791   21.4089 C   0  0  0  0  0  0  0  0  0  0  0  0
   21.2245   17.3692   21.2257 H   0  0  0  0  0  0  0  0  0  0  0  0
   19.5630   16.9499   20.8736 H   0  0  0  0  0  0  0  0  0  0  0  0
   19.8718   17.5479   22.9229 C   0  0  0  0  0  0  0  0  0  0  0  0
   18.8295   17.8247   23.1214 H   0  0  0  0  0  0  0  0  0  0  0  0
   19.9380   16.4792   23.1680 H   0  0  0  0  0  0  0  0  0  0  0  0
   20.8389   18.3286   23.8504 C   0  0  0  0  0  0  0  0  0  0  0  0
   21.7635   18.5440   23.3025 H   0  0  0  0  0  0  0  0  0  0  0  0
   20.2663   19.6500   24.4198 C   0  0  0  0  0  0  0  0  0  0  0  0
   19.5756   19.4066   25.2378 H   0  0  0  0  0  0  0  0  0  0  0  0
   21.0885   20.2144   24.8787 H   0  0  0  0  0  0  0  0  0  0  0  0
   19.5080   20.5760   23.4341 C   0  0  0  0  0  0  0  0  0  0  0  0
   19.1101   21.4179   24.0169 H   0  0  0  0  0  0  0  0  0  0  0  0
   18.6202   20.0697   23.0383 H   0  0  0  0  0  0  0  0  0  0  0  0
   20.3481   21.1725   22.2771 C   0  0  0  0  0  0  0  0  0  0  0  0
   21.1737   21.7643   22.6950 H   0  0  0  0  0  0  0  0  0  0  0  0
   19.7092   21.8903   21.7447 H   0  0  0  0  0  0  0  0  0  0  0  0
   21.1764   17.4983   24.9546 O   0  0  0  0  0  0  0  0  0  0  0  0
   20.3377   17.3023   25.4205 H   0  0  0  0  0  0  0  0  0  0  0  0
  1  2  1  0  0  0  0
  1  3  1  0  0  0  0
  1  4  1  0  0  0  0
  4  5  1  0  0  0  0
  4  6  1  0  0  0  0
  4  7  1  0  0  0  0
  7  8  1  0  0  0  0
  7  9  1  0  0  0  0
  7 10  1  0  0  0  0
 10 11  1  0  0  0  0
 10 12  1  0  0  0  0
 10 13  1  0  0  0  0
 13 14  1  0  0  0  0
 13 15  1  0  0  0  0
 15 16  1  0  0  0  0
 15 17  1  0  0  0  0
 15 18  1  0  0  0  0
 18 19  1  0  0  0  0
 18 20  1  0  0  0  0
  1 21  1  0  0  0  0
 18 21  1  0  0  0  0
 21 22  1  0  0  0  0
 21 23  1  0  0  0  0
 13 24  1  0  0  0  0
 24 25  1  0  0  0  0
M  END
> <VConfSearch Rank>
298

> <Conf_Id>
165

> <Delta U+W>
-1.999

> <U+W>
8.915

> <U>
10.935

> <W>
-2.020

> <W(PB)>
-4.135

> <W(SA)>
2.115

> <Valence>
16.757

> <Coulomb>
-8.731

> <VdW>
2.908

> <VdW6>
-12.597

> <VdW12>
15.506

> <Bond>
0.434

> <Angle>
5.069

> <Pdih>
11.254

> <Idih>
0.000

> <Tether>
0.000

$$$$
VeraChem MOL file


 25 25  0  0  0  0  0  0  0  0999 V2000     
   19.3967   17.6102   22.3791 C   0  0  0  0  0  0  0  0  0  0  0  0
   18.8555   16.6573   22.3004 H   0  0  0  0  0  0  0  0  0  0  0  0
   19.3233   18.0472   21.3769 H   0  0  0  0  0  0  0  0  0  0  0  0
   20.8699   17.2682   22.7229 C   0  0  0  0  0  0  0  0  0  0  0  0
   20.8602   16.4640   23.4714 H   0  0  0  0  0  0  0  0  0  0  0  0
   21.3532   16.8395   21.8346 H   0  0  0  0  0  0  0  0  0  0  0  0
   21.7516   18.4113   23.2853 C   0  0  0  0  0  0  0  0  0  0  0  0
   22.7201   17.9724   23.5610 H   0  0  0  0  0  0  0  0  0  0  0  0
   21.3375   18.7822   24.2299 H   0  0  0  0  0  0  0  0  0  0  0  0
   22.0373   19.5898   22.3190 C   0  0  0  0  0  0  0  0  0  0  0  0
   22.7546   20.2564   22.8167 H   0  0  0  0  0  0  0  0  0  0  0  0
   22.5508   19.2025   21.4296 H   0  0  0  0  0  0  0  0  0  0  0  0
   20.8256   20.4385   21.8616 C   0  0  0  0  0  0  0  0  0  0  0  0
   20.2774   19.8959   21.0825 H   0  0  0  0  0  0  0  0  0  0  0  0
   19.8404   20.8224   22.9957 C   0  0  0  0  0  0  0  0  0  0  0  0
   20.3366   20.7859   23.9728 H   0  0  0  0  0  0  0  0  0  0  0  0
   19.5501   21.8733   22.8620 H   0  0  0  0  0  0  0  0  0  0  0  0
   18.5297   19.9915   23.0202 C   0  0  0  0  0  0  0  0  0  0  0  0
   18.0336   20.0676   22.0429 H   0  0  0  0  0  0  0  0  0  0  0  0
   17.8455   20.4681   23.7354 H   0  0  0  0  0  0  0  0  0  0  0  0
   18.6598   18.4972   23.4163 C   0  0  0  0  0  0  0  0  0  0  0  0
   17.6394   18.1038   23.5213 H   0  0  0  0  0  0  0  0  0  0  0  0
   19.1084   18.3963   24.4129 H   0  0  0  0  0  0  0  0  0  0  0  0
   21.3370   21.6341   21.2833 O   0  0  0  0  0  0  0  0  0  0  0  0
   21.9195   21.3630   20.5433 H   0  0  0  0  0  0  0  0  0  0  0  0
  1  2  1  0  0  0  0
  1  3  1  0  0  0  0
  1  4  1  0  0  0  0
  4  5  1  0  0  0  0
  4  6  1  0  0  0  0
  4  7  1  0  0  0  0
  7  8  1  0  0  0  0
  7  9  1  0  0  0  0
  7 10  1  0  0  0  0
 10 11  1  0  0  0  0
 10 12  1  0  0  0  0
 10 13  1  0  0  0  0
 13 14  1  0  0  0  0
 13 15  1  0  0  0  0
 15 16  1  0  0  0  0
 15 17  1  0  0  0  0
 15 18  1  0  0  0  0
 18 19  1  0  0  0  0
 18 20  1  0  0  0  0
  1 21  1  0  0  0  0
 18 21  1  0  0  0  0
 21 22  1  0  0  0  0
 21 23  1  0  0  0  0
 13 24  1  0  0  0  0
 24 25  1  0  0  0  0
M  END
> <VConfSearch Rank>
299

> <Conf_Id>
133

> <Delta U+W>
-2.139

> <U+W>
8.774

> <U>
10.905

> <W>
-2.131

> <W(PB)>
-4.281

> <W(SA)>
2.150

> <Valence>
16.378

> <Coulomb>
-8.448

> <VdW>
2.976

> <VdW6>
-12.570

> <VdW12>
15.545

> <Bond>
0.439

> <Angle>
5.049

> <Pdih>
10.889

> <Idih>
0.000

> <Tether>
0.000

$$$$
VeraChem MOL file


 25 25  0  0  0  0  0  0  0  0999 V2000     
   21.0127   20.8581   23.1180 C   0  0  0  0  0  0  0  0  0  0  0  0
   21.5232   21.8016   23.3552 H   0  0  0  0  0  0  0  0  0  0  0  0
   20.0504   20.9328   23.6368 H   0  0  0  0  0  0  0  0  0  0  0  0
   21.8574   19.6949   23.7003 C   0  0  0  0  0  0  0  0  0  0  0  0
   22.5348   19.2802   22.9429 H   0  0  0  0  0  0  0  0  0  0  0  0
   22.5158   20.1187   24.4709 H   0  0  0  0  0  0  0  0  0  0  0  0
   21.0345   18.5681   24.3786 C   0  0  0  0  0  0  0  0  0  0  0  0
   20.4020   19.0017   25.1652 H   0  0  0  0  0  0  0  0  0  0  0  0
   21.7401   17.9067   24.8995 H   0  0  0  0  0  0  0  0  0  0  0  0
   20.1610   17.6860   23.4469 C   0  0  0  0  0  0  0  0  0  0  0  0
   20.7787   17.2174   22.6717 H   0  0  0  0  0  0  0  0  0  0  0  0
   19.7858   16.8523   24.0557 H   0  0  0  0  0  0  0  0  0  0  0  0
   18.9474   18.4181   22.8181 C   0  0  0  0  0  0  0  0  0  0  0  0
   18.7284   19.3157   23.4082 H   0  0  0  0  0  0  0  0  0  0  0  0
   19.1320   18.8155   21.3330 C   0  0  0  0  0  0  0  0  0  0  0  0
   19.0010   17.9148   20.7181 H   0  0  0  0  0  0  0  0  0  0  0  0
   18.3202   19.4971   21.0482 H   0  0  0  0  0  0  0  0  0  0  0  0
   20.4867   19.4561   20.9349 C   0  0  0  0  0  0  0  0  0  0  0  0
   20.4717   19.6026   19.8463 H   0  0  0  0  0  0  0  0  0  0  0  0
   21.3088   18.7520   21.1074 H   0  0  0  0  0  0  0  0  0  0  0  0
   20.8075   20.8272   21.5810 C   0  0  0  0  0  0  0  0  0  0  0  0
   20.0244   21.5486   21.3111 H   0  0  0  0  0  0  0  0  0  0  0  0
   21.7285   21.2017   21.1135 H   0  0  0  0  0  0  0  0  0  0  0  0
   17.8143   17.5600   22.8918 O   0  0  0  0  0  0  0  0  0  0  0  0
   17.0552   18.0633   22.5301 H   0  0  0  0  0  0  0  0  0  0  0  0
  1  2  1  0  0  0  0
  1  3  1  0  0  0  0
  1  4  1  0  0  0  0
  4  5  1  0  0  0  0
  4  6  1  0  0  0  0
  4  7  1  0  0  0  0
  7  8  1  0  0  0  0
  7  9  1  0  0  0  0
  7 10  1  0  0  0  0
 10 11  1  0  0  0  0
 10 12  1  0  0  0  0
 10 13  1  0  0  0  0
 13 14  1  0  0  0  0
 13 15  1  0  0  0  0
 15 16  1  0  0  0  0
 15 17  1  0  0  0  0
 15 18  1  0  0  0  0
 18 19  1  0  0  0  0
 18 20  1  0  0  0  0
  1 21  1  0  0  0  0
 18 21  1  0  0  0  0
 21 22  1  0  0  0  0
 21 23  1  0  0  0  0
 13 24  1  0  0  0  0
 24 25  1  0  0  0  0
M  END
> <VConfSearch Rank>
300

> <Conf_Id>
95

> <Delta U+W>
-2.190

> <U+W>
8.723

> <U>
10.905

> <W>
-2.182

> <W(PB)>
-4.296

> <W(SA)>
2.114

> <Valence>
16.377

> <Coulomb>
-8.448

> <VdW>
2.976

> <VdW6>
-12.570

> <VdW12>
15.546

> <Bond>
0.439

> <Angle>
5.049

> <Pdih>
10.889

> <Idih>
0.000

> <Tether>
0.000

$$$$
VeraChem MOL file


 25 25  0  0  0  0  0  0  0  0999 V2000     
   19.7096   17.9465   21.4402 C   0  0  0  0  0  0  0  0  0  0  0  0
   19.3727   17.2944   20.6228 H   0  0  0  0  0  0  0  0  0  0  0  0
   19.3240   17.4500   22.3363 H   0  0  0  0  0  0  0  0  0  0  0  0
   19.0252   19.3293   21.2310 C   0  0  0  0  0  0  0  0  0  0  0  0
   18.9532   19.4988   20.1480 H   0  0  0  0  0  0  0  0  0  0  0  0
   17.9876   19.2708   21.5868 H   0  0  0  0  0  0  0  0  0  0  0  0
   19.7056   20.5837   21.8394 C   0  0  0  0  0  0  0  0  0  0  0  0
   19.1504   21.4651   21.4905 H   0  0  0  0  0  0  0  0  0  0  0  0
   20.6958   20.7111   21.3908 H   0  0  0  0  0  0  0  0  0  0  0  0
   19.7839   20.6756   23.3924 C   0  0  0  0  0  0  0  0  0  0  0  0
   20.5777   21.3829   23.6663 H   0  0  0  0  0  0  0  0  0  0  0  0
   18.8468   21.1340   23.7346 H   0  0  0  0  0  0  0  0  0  0  0  0
   19.9741   19.3645   24.1964 C   0  0  0  0  0  0  0  0  0  0  0  0
   19.1492   18.6898   23.9452 H   0  0  0  0  0  0  0  0  0  0  0  0
   21.3282   18.6191   24.0190 C   0  0  0  0  0  0  0  0  0  0  0  0
   22.0489   19.0552   24.7238 H   0  0  0  0  0  0  0  0  0  0  0  0
   21.1935   17.5787   24.3410 H   0  0  0  0  0  0  0  0  0  0  0  0
   22.0025   18.6305   22.6203 C   0  0  0  0  0  0  0  0  0  0  0  0
   22.9860   18.1520   22.7224 H   0  0  0  0  0  0  0  0  0  0  0  0
   22.2471   19.6614   22.3453 H   0  0  0  0  0  0  0  0  0  0  0  0
   21.2606   17.9083   21.4579 C   0  0  0  0  0  0  0  0  0  0  0  0
   21.5543   16.8501   21.4879 H   0  0  0  0  0  0  0  0  0  0  0  0
   21.6421   18.2904   20.5014 H   0  0  0  0  0  0  0  0  0  0  0  0
   19.8483   19.6898   25.5759 O   0  0  0  0  0  0  0  0  0  0  0  0
   18.9658   20.0999   25.6905 H   0  0  0  0  0  0  0  0  0  0  0  0
  1  2  1  0  0  0  0
  1  3  1  0  0  0  0
  1  4  1  0  0  0  0
  4  5  1  0  0  0  0
  4  6  1  0  0  0  0
  4  7  1  0  0  0  0
  7  8  1  0  0  0  0
  7  9  1  0  0  0  0
  7 10  1  0  0  0  0
 10 11  1  0  0  0  0
 10 12  1  0  0  0  0
 10 13  1  0  0  0  0
 13 14  1  0  0  0  0
 13 15  1  0  0  0  0
 15 16  1  0  0  0  0
 15 17  1  0  0  0  0
 15 18  1  0  0  0  0
 18 19  1  0  0  0  0
 18 20  1  0  0  0  0
  1 21  1  0  0  0  0
 18 21  1  0  0  0  0
 21 22  1  0  0  0  0
 21 23  1  0  0  0  0
 13 24  1  0  0  0  0
 24 25  1  0  0  0  0
M  END
> <VConfSearch Rank>
301

> <Conf_Id>
161

> <Delta U+W>
2.120

> <U+W>
13.033

> <U>
15.076

> <W>
-2.043

> <W(PB)>
-4.186

> <W(SA)>
2.143

> <Valence>
18.884

> <Coulomb>
-8.074

> <VdW>
4.266

> <VdW6>
-13.486

> <VdW12>
17.752

> <Bond>
0.713

> <Angle>
8.955

> <Pdih>
9.215

> <Idih>
0.000

> <Tether>
0.000

$$$$
VeraChem MOL file


 25 25  0  0  0  0  0  0  0  0999 V2000     
   19.2752   19.5502   24.2818 C   0  0  0  0  0  0  0  0  0  0  0  0
   18.5165   19.8349   25.0236 H   0  0  0  0  0  0  0  0  0  0  0  0
   20.1814   19.3557   24.8694 H   0  0  0  0  0  0  0  0  0  0  0  0
   19.5041   20.7607   23.3427 C   0  0  0  0  0  0  0  0  0  0  0  0
   18.7813   20.7555   22.5159 H   0  0  0  0  0  0  0  0  0  0  0  0
   19.2725   21.6633   23.9249 H   0  0  0  0  0  0  0  0  0  0  0  0
   20.9576   20.9251   22.8178 C   0  0  0  0  0  0  0  0  0  0  0  0
   21.6908   20.6544   23.5895 H   0  0  0  0  0  0  0  0  0  0  0  0
   21.1099   21.9980   22.6366 H   0  0  0  0  0  0  0  0  0  0  0  0
   21.2668   20.1967   21.4843 C   0  0  0  0  0  0  0  0  0  0  0  0
   20.3770   20.2007   20.8430 H   0  0  0  0  0  0  0  0  0  0  0  0
   22.0094   20.7962   20.9413 H   0  0  0  0  0  0  0  0  0  0  0  0
   21.8569   18.7687   21.6045 C   0  0  0  0  0  0  0  0  0  0  0  0
   22.8822   18.8588   21.9912 H   0  0  0  0  0  0  0  0  0  0  0  0
   21.0988   17.7862   22.5269 C   0  0  0  0  0  0  0  0  0  0  0  0
   21.4814   16.7739   22.3399 H   0  0  0  0  0  0  0  0  0  0  0  0
   21.3714   17.9927   23.5675 H   0  0  0  0  0  0  0  0  0  0  0  0
   19.5569   17.7795   22.3487 C   0  0  0  0  0  0  0  0  0  0  0  0
   19.2337   16.7579   22.1066 H   0  0  0  0  0  0  0  0  0  0  0  0
   19.2541   18.3827   21.4853 H   0  0  0  0  0  0  0  0  0  0  0  0
   18.7762   18.2490   23.5996 C   0  0  0  0  0  0  0  0  0  0  0  0
   18.7905   17.4440   24.3470 H   0  0  0  0  0  0  0  0  0  0  0  0
   17.7219   18.3771   23.3189 H   0  0  0  0  0  0  0  0  0  0  0  0
   21.9073   18.2041   20.3018 O   0  0  0  0  0  0  0  0  0  0  0  0
   20.9792   18.0143   20.0560 H   0  0  0  0  0  0  0  0  0  0  0  0
  1  2  1  0  0  0  0
  1  3  1  0  0  0  0
  1  4  1  0  0  0  0
  4  5  1  0  0  0  0
  4  6  1  0  0  0  0
  4  7  1  0  0  0  0
  7  8  1  0  0  0  0
  7  9  1  0  0  0  0
  7 10  1  0  0  0  0
 10 11  1  0  0  0  0
 10 12  1  0  0  0  0
 10 13  1  0  0  0  0
 13 14  1  0  0  0  0
 13 15  1  0  0  0  0
 15 16  1  0  0  0  0
 15 17  1  0  0  0  0
 15 18  1  0  0  0  0
 18 19  1  0  0  0  0
 18 20  1  0  0  0  0
  1 21  1  0  0  0  0
 18 21  1  0  0  0  0
 21 22  1  0  0  0  0
 21 23  1  0  0  0  0
 13 24  1  0  0  0  0
 24 25  1  0  0  0  0
M  END
> <VConfSearch Rank>
302

> <Conf_Id>
164

> <Delta U+W>
0.008

> <U+W>
10.922

> <U>
12.433

> <W>
-1.511

> <W(PB)>
-3.669

> <W(SA)>
2.157

> <Valence>
19.007

> <Coulomb>
-9.373

> <VdW>
2.799

> <VdW6>
-12.597

> <VdW12>
15.396

> <Bond>
0.425

> <Angle>
4.784

> <Pdih>
13.799

> <Idih>
0.000

> <Tether>
0.000

$$$$
VeraChem MOL file


 25 25  0  0  0  0  0  0  0  0999 V2000     
   18.7602   18.5590   23.3255 C   0  0  0  0  0  0  0  0  0  0  0  0
   18.5438   19.6029   23.0720 H   0  0  0  0  0  0  0  0  0  0  0  0
   17.8185   18.1743   23.7399 H   0  0  0  0  0  0  0  0  0  0  0  0
   19.8220   18.4849   24.4510 C   0  0  0  0  0  0  0  0  0  0  0  0
   19.4118   19.0089   25.3251 H   0  0  0  0  0  0  0  0  0  0  0  0
   19.9472   17.4394   24.7636 H   0  0  0  0  0  0  0  0  0  0  0  0
   21.2168   19.0896   24.1479 C   0  0  0  0  0  0  0  0  0  0  0  0
   21.8391   18.3690   23.6051 H   0  0  0  0  0  0  0  0  0  0  0  0
   21.7281   19.2232   25.1110 H   0  0  0  0  0  0  0  0  0  0  0  0
   21.2009   20.4569   23.4137 C   0  0  0  0  0  0  0  0  0  0  0  0
   20.2586   20.9882   23.5937 H   0  0  0  0  0  0  0  0  0  0  0  0
   21.9788   21.0822   23.8722 H   0  0  0  0  0  0  0  0  0  0  0  0
   21.5126   20.3865   21.8977 C   0  0  0  0  0  0  0  0  0  0  0  0
   22.4593   19.8429   21.7676 H   0  0  0  0  0  0  0  0  0  0  0  0
   20.4427   19.7140   21.0012 C   0  0  0  0  0  0  0  0  0  0  0  0
   19.4754   20.2209   21.1018 H   0  0  0  0  0  0  0  0  0  0  0  0
   20.7490   19.8772   19.9592 H   0  0  0  0  0  0  0  0  0  0  0  0
   20.2911   18.1825   21.2024 C   0  0  0  0  0  0  0  0  0  0  0  0
   21.2131   17.7556   21.6132 H   0  0  0  0  0  0  0  0  0  0  0  0
   20.1889   17.7151   20.2135 H   0  0  0  0  0  0  0  0  0  0  0  0
   19.0656   17.7437   22.0441 C   0  0  0  0  0  0  0  0  0  0  0  0
   19.1750   16.6827   22.3066 H   0  0  0  0  0  0  0  0  0  0  0  0
   18.1780   17.8000   21.3993 H   0  0  0  0  0  0  0  0  0  0  0  0
   21.6900   21.7173   21.4321 O   0  0  0  0  0  0  0  0  0  0  0  0
   20.8324   22.1718   21.5618 H   0  0  0  0  0  0  0  0  0  0  0  0
  1  2  1  0  0  0  0
  1  3  1  0  0  0  0
  1  4  1  0  0  0  0
  4  5  1  0  0  0  0
  4  6  1  0  0  0  0
  4  7  1  0  0  0  0
  7  8  1  0  0  0  0
  7  9  1  0  0  0  0
  7 10  1  0  0  0  0
 10 11  1  0  0  0  0
 10 12  1  0  0  0  0
 10 13  1  0  0  0  0
 13 14  1  0  0  0  0
 13 15  1  0  0  0  0
 15 16  1  0  0  0  0
 15 17  1  0  0  0  0
 15 18  1  0  0  0  0
 18 19  1  0  0  0  0
 18 20  1  0  0  0  0
  1 21  1  0  0  0  0
 18 21  1  0  0  0  0
 21 22  1  0  0  0  0
 21 23  1  0  0  0  0
 13 24  1  0  0  0  0
 24 25  1  0  0  0  0
M  END
> <VConfSearch Rank>
303

> <Conf_Id>
15

> <Delta U+W>
-1.271

> <U+W>
9.643

> <U>
11.413

> <W>
-1.770

> <W(PB)>
-3.908

> <W(SA)>
2.138

> <Valence>
17.496

> <Coulomb>
-8.736

> <VdW>
2.653

> <VdW6>
-12.485

> <VdW12>
15.138

> <Bond>
0.414

> <Angle>
5.295

> <Pdih>
11.787

> <Idih>
0.000

> <Tether>
0.000

$$$$
VeraChem MOL file


 25 25  0  0  0  0  0  0  0  0999 V2000     
   18.8935   18.6666   23.7740 C   0  0  0  0  0  0  0  0  0  0  0  0
   18.1872   18.4038   24.5734 H   0  0  0  0  0  0  0  0  0  0  0  0
   18.6461   17.9880   22.9480 H   0  0  0  0  0  0  0  0  0  0  0  0
   18.6028   20.1384   23.3786 C   0  0  0  0  0  0  0  0  0  0  0  0
   17.6067   20.1768   22.9169 H   0  0  0  0  0  0  0  0  0  0  0  0
   18.5319   20.7444   24.2920 H   0  0  0  0  0  0  0  0  0  0  0  0
   19.6174   20.8144   22.4252 C   0  0  0  0  0  0  0  0  0  0  0  0
   20.5035   21.1234   22.9920 H   0  0  0  0  0  0  0  0  0  0  0  0
   19.1738   21.7526   22.0651 H   0  0  0  0  0  0  0  0  0  0  0  0
   20.0120   19.9476   21.2011 C   0  0  0  0  0  0  0  0  0  0  0  0
   19.3788   19.0561   21.1329 H   0  0  0  0  0  0  0  0  0  0  0  0
   19.7958   20.5177   20.2882 H   0  0  0  0  0  0  0  0  0  0  0  0
   21.5036   19.5435   21.1558 C   0  0  0  0  0  0  0  0  0  0  0  0
   22.0813   20.4360   20.8754 H   0  0  0  0  0  0  0  0  0  0  0  0
   22.1148   18.9999   22.4731 C   0  0  0  0  0  0  0  0  0  0  0  0
   23.1101   18.6066   22.2262 H   0  0  0  0  0  0  0  0  0  0  0  0
   22.3119   19.8276   23.1648 H   0  0  0  0  0  0  0  0  0  0  0  0
   21.3259   17.8819   23.2057 C   0  0  0  0  0  0  0  0  0  0  0  0
   22.0679   17.2580   23.7228 H   0  0  0  0  0  0  0  0  0  0  0  0
   20.8327   17.2106   22.4909 H   0  0  0  0  0  0  0  0  0  0  0  0
   20.3257   18.3762   24.2869 C   0  0  0  0  0  0  0  0  0  0  0  0
   20.7269   19.2395   24.8345 H   0  0  0  0  0  0  0  0  0  0  0  0
   20.2406   17.5735   25.0323 H   0  0  0  0  0  0  0  0  0  0  0  0
   21.6659   18.5593   20.1441 O   0  0  0  0  0  0  0  0  0  0  0  0
   21.2178   17.7561   20.4777 H   0  0  0  0  0  0  0  0  0  0  0  0
  1  2  1  0  0  0  0
  1  3  1  0  0  0  0
  1  4  1  0  0  0  0
  4  5  1  0  0  0  0
  4  6  1  0  0  0  0
  4  7  1  0  0  0  0
  7  8  1  0  0  0  0
  7  9  1  0  0  0  0
  7 10  1  0  0  0  0
 10 11  1  0  0  0  0
 10 12  1  0  0  0  0
 10 13  1  0  0  0  0
 13 14  1  0  0  0  0
 13 15  1  0  0  0  0
 15 16  1  0  0  0  0
 15 17  1  0  0  0  0
 15 18  1  0  0  0  0
 18 19  1  0  0  0  0
 18 20  1  0  0  0  0
  1 21  1  0  0  0  0
 18 21  1  0  0  0  0
 21 22  1  0  0  0  0
 21 23  1  0  0  0  0
 13 24  1  0  0  0  0
 24 25  1  0  0  0  0
M  END
> <VConfSearch Rank>
304

> <Conf_Id>
115

> <Delta U+W>
0.038

> <U+W>
10.952

> <U>
12.526

> <W>
-1.575

> <W(PB)>
-3.698

> <W(SA)>
2.123

> <Valence>
19.016

> <Coulomb>
-9.226

> <VdW>
2.737

> <VdW6>
-12.612

> <VdW12>
15.349

> <Bond>
0.421

> <Angle>
4.883

> <Pdih>
13.711

> <Idih>
0.000

> <Tether>
0.000

$$$$
VeraChem MOL file


 25 25  0  0  0  0  0  0  0  0999 V2000     
   18.4156   18.3066   22.7829 C   0  0  0  0  0  0  0  0  0  0  0  0
   17.4988   17.8796   22.3539 H   0  0  0  0  0  0  0  0  0  0  0  0
   18.4200   17.9957   23.8364 H   0  0  0  0  0  0  0  0  0  0  0  0
   18.2972   19.8453   22.6839 C   0  0  0  0  0  0  0  0  0  0  0  0
   18.1698   20.1471   21.6354 H   0  0  0  0  0  0  0  0  0  0  0  0
   17.3663   20.1362   23.1897 H   0  0  0  0  0  0  0  0  0  0  0  0
   19.4574   20.6370   23.3303 C   0  0  0  0  0  0  0  0  0  0  0  0
   19.7419   20.1823   24.2886 H   0  0  0  0  0  0  0  0  0  0  0  0
   19.0733   21.6347   23.5839 H   0  0  0  0  0  0  0  0  0  0  0  0
   20.6897   20.8330   22.4068 C   0  0  0  0  0  0  0  0  0  0  0  0
   20.4508   20.5850   21.3650 H   0  0  0  0  0  0  0  0  0  0  0  0
   20.9297   21.9049   22.4043 H   0  0  0  0  0  0  0  0  0  0  0  0
   21.9533   20.0651   22.8559 C   0  0  0  0  0  0  0  0  0  0  0  0
   21.9943   20.0592   23.9545 H   0  0  0  0  0  0  0  0  0  0  0  0
   22.0399   18.6107   22.3425 C   0  0  0  0  0  0  0  0  0  0  0  0
   22.0626   18.6018   21.2448 H   0  0  0  0  0  0  0  0  0  0  0  0
   23.0072   18.2031   22.6645 H   0  0  0  0  0  0  0  0  0  0  0  0
   20.9361   17.6567   22.8603 C   0  0  0  0  0  0  0  0  0  0  0  0
   20.7456   17.8351   23.9270 H   0  0  0  0  0  0  0  0  0  0  0  0
   21.3347   16.6344   22.8033 H   0  0  0  0  0  0  0  0  0  0  0  0
   19.6215   17.6879   22.0375 C   0  0  0  0  0  0  0  0  0  0  0  0
   19.3589   16.6481   21.7989 H   0  0  0  0  0  0  0  0  0  0  0  0
   19.7659   18.1806   21.0669 H   0  0  0  0  0  0  0  0  0  0  0  0
   23.0907   20.7614   22.3608 O   0  0  0  0  0  0  0  0  0  0  0  0
   23.8806   20.2912   22.7002 H   0  0  0  0  0  0  0  0  0  0  0  0
  1  2  1  0  0  0  0
  1  3  1  0  0  0  0
  1  4  1  0  0  0  0
  4  5  1  0  0  0  0
  4  6  1  0  0  0  0
  4  7  1  0  0  0  0
  7  8  1  0  0  0  0
  7  9  1  0  0  0  0
  7 10  1  0  0  0  0
 10 11  1  0  0  0  0
 10 12  1  0  0  0  0
 10 13  1  0  0  0  0
 13 14  1  0  0  0  0
 13 15  1  0  0  0  0
 15 16  1  0  0  0  0
 15 17  1  0  0  0  0
 15 18  1  0  0  0  0
 18 19  1  0  0  0  0
 18 20  1  0  0  0  0
  1 21  1  0  0  0  0
 18 21  1  0  0  0  0
 21 22  1  0  0  0  0
 21 23  1  0  0  0  0
 13 24  1  0  0  0  0
 24 25  1  0  0  0  0
M  END
> <VConfSearch Rank>
305

> <Conf_Id>
30

> <Delta U+W>
0.000

> <U+W>
10.913

> <U>
13.140

> <W>
-2.227

> <W(PB)>
-4.367

> <W(SA)>
2.140

> <Valence>
19.155

> <Coulomb>
-8.157

> <VdW>
2.142

> <VdW6>
-11.576

> <VdW12>
13.718

> <Bond>
0.294

> <Angle>
3.547

> <Pdih>
15.314

> <Idih>
0.000

> <Tether>
0.000

$$$$
VeraChem MOL file


 25 25  0  0  0  0  0  0  0  0999 V2000     
   19.2860   20.6678   21.4181 C   0  0  0  0  0  0  0  0  0  0  0  0
   18.7546   20.5856   20.4602 H   0  0  0  0  0  0  0  0  0  0  0  0
   19.2819   21.7374   21.6689 H   0  0  0  0  0  0  0  0  0  0  0  0
   20.7547   20.2257   21.2044 C   0  0  0  0  0  0  0  0  0  0  0  0
   21.1113   20.6776   20.2687 H   0  0  0  0  0  0  0  0  0  0  0  0
   21.3886   20.6654   21.9831 H   0  0  0  0  0  0  0  0  0  0  0  0
   20.9562   18.6914   21.1210 C   0  0  0  0  0  0  0  0  0  0  0  0
   21.4634   18.4530   20.1763 H   0  0  0  0  0  0  0  0  0  0  0  0
   19.9934   18.1708   21.0606 H   0  0  0  0  0  0  0  0  0  0  0  0
   21.7979   18.1004   22.2803 C   0  0  0  0  0  0  0  0  0  0  0  0
   21.7250   17.0055   22.2385 H   0  0  0  0  0  0  0  0  0  0  0  0
   22.8540   18.3392   22.0994 H   0  0  0  0  0  0  0  0  0  0  0  0
   21.4474   18.5757   23.7126 C   0  0  0  0  0  0  0  0  0  0  0  0
   21.7633   19.6205   23.8341 H   0  0  0  0  0  0  0  0  0  0  0  0
   19.9513   18.4635   24.0949 C   0  0  0  0  0  0  0  0  0  0  0  0
   19.4881   17.6135   23.5777 H   0  0  0  0  0  0  0  0  0  0  0  0
   19.8895   18.2209   25.1642 H   0  0  0  0  0  0  0  0  0  0  0  0
   19.1212   19.7610   23.8823 C   0  0  0  0  0  0  0  0  0  0  0  0
   19.7111   20.6550   24.1252 H   0  0  0  0  0  0  0  0  0  0  0  0
   18.3053   19.7417   24.6179 H   0  0  0  0  0  0  0  0  0  0  0  0
   18.4641   19.8988   22.4865 C   0  0  0  0  0  0  0  0  0  0  0  0
   17.5168   20.4409   22.6118 H   0  0  0  0  0  0  0  0  0  0  0  0
   18.1717   18.9100   22.1107 H   0  0  0  0  0  0  0  0  0  0  0  0
   22.2032   17.7781   24.6164 O   0  0  0  0  0  0  0  0  0  0  0  0
   22.0387   18.1358   25.5139 H   0  0  0  0  0  0  0  0  0  0  0  0
  1  2  1  0  0  0  0
  1  3  1  0  0  0  0
  1  4  1  0  0  0  0
  4  5  1  0  0  0  0
  4  6  1  0  0  0  0
  4  7  1  0  0  0  0
  7  8  1  0  0  0  0
  7  9  1  0  0  0  0
  7 10  1  0  0  0  0
 10 11  1  0  0  0  0
 10 12  1  0  0  0  0
 10 13  1  0  0  0  0
 13 14  1  0  0  0  0
 13 15  1  0  0  0  0
 15 16  1  0  0  0  0
 15 17  1  0  0  0  0
 15 18  1  0  0  0  0
 18 19  1  0  0  0  0
 18 20  1  0  0  0  0
  1 21  1  0  0  0  0
 18 21  1  0  0  0  0
 21 22  1  0  0  0  0
 21 23  1  0  0  0  0
 13 24  1  0  0  0  0
 24 25  1  0  0  0  0
M  END
> <VConfSearch Rank>
306

> <Conf_Id>
162

> <Delta U+W>
0.219

> <U+W>
11.132

> <U>
13.296

> <W>
-2.164

> <W(PB)>
-4.311

> <W(SA)>
2.148

> <Valence>
18.607

> <Coulomb>
-8.339

> <VdW>
3.028

> <VdW6>
-12.271

> <VdW12>
15.299

> <Bond>
0.423

> <Angle>
4.488

> <Pdih>
13.696

> <Idih>
0.000

> <Tether>
0.000

$$$$
VeraChem MOL file


 25 25  0  0  0  0  0  0  0  0999 V2000     
   20.6425   19.6870   20.7428 C   0  0  0  0  0  0  0  0  0  0  0  0
   21.5227   19.0321   20.7693 H   0  0  0  0  0  0  0  0  0  0  0  0
   20.5821   20.0322   19.7016 H   0  0  0  0  0  0  0  0  0  0  0  0
   19.3644   18.8673   21.0496 C   0  0  0  0  0  0  0  0  0  0  0  0
   18.5480   19.5256   21.3758 H   0  0  0  0  0  0  0  0  0  0  0  0
   19.0267   18.4357   20.0973 H   0  0  0  0  0  0  0  0  0  0  0  0
   19.5589   17.6826   22.0366 C   0  0  0  0  0  0  0  0  0  0  0  0
   20.5298   17.1929   21.8825 H   0  0  0  0  0  0  0  0  0  0  0  0
   18.8072   16.9252   21.7752 H   0  0  0  0  0  0  0  0  0  0  0  0
   19.3463   18.0271   23.5337 C   0  0  0  0  0  0  0  0  0  0  0  0
   18.5692   18.7948   23.6344 H   0  0  0  0  0  0  0  0  0  0  0  0
   18.9309   17.1384   24.0266 H   0  0  0  0  0  0  0  0  0  0  0  0
   20.6118   18.4248   24.3348 C   0  0  0  0  0  0  0  0  0  0  0  0
   21.2277   17.5227   24.4606 H   0  0  0  0  0  0  0  0  0  0  0  0
   21.5118   19.5110   23.6989 C   0  0  0  0  0  0  0  0  0  0  0  0
   22.2390   19.8458   24.4499 H   0  0  0  0  0  0  0  0  0  0  0  0
   22.1224   19.0520   22.9141 H   0  0  0  0  0  0  0  0  0  0  0  0
   20.7508   20.7490   23.1553 C   0  0  0  0  0  0  0  0  0  0  0  0
   21.1430   21.6490   23.6478 H   0  0  0  0  0  0  0  0  0  0  0  0
   19.6925   20.7141   23.4398 H   0  0  0  0  0  0  0  0  0  0  0  0
   20.8692   20.9438   21.6243 C   0  0  0  0  0  0  0  0  0  0  0  0
   21.8660   21.3454   21.3964 H   0  0  0  0  0  0  0  0  0  0  0  0
   20.1569   21.7232   21.3212 H   0  0  0  0  0  0  0  0  0  0  0  0
   20.1905   18.8783   25.6158 O   0  0  0  0  0  0  0  0  0  0  0  0
   21.0004   19.1273   26.1068 H   0  0  0  0  0  0  0  0  0  0  0  0
  1  2  1  0  0  0  0
  1  3  1  0  0  0  0
  1  4  1  0  0  0  0
  4  5  1  0  0  0  0
  4  6  1  0  0  0  0
  4  7  1  0  0  0  0
  7  8  1  0  0  0  0
  7  9  1  0  0  0  0
  7 10  1  0  0  0  0
 10 11  1  0  0  0  0
 10 12  1  0  0  0  0
 10 13  1  0  0  0  0
 13 14  1  0  0  0  0
 13 15  1  0  0  0  0
 15 16  1  0  0  0  0
 15 17  1  0  0  0  0
 15 18  1  0  0  0  0
 18 19  1  0  0  0  0
 18 20  1  0  0  0  0
  1 21  1  0  0  0  0
 18 21  1  0  0  0  0
 21 22  1  0  0  0  0
 21 23  1  0  0  0  0
 13 24  1  0  0  0  0
 24 25  1  0  0  0  0
M  END
> <VConfSearch Rank>
307

> <Conf_Id>
155

> <Delta U+W>
0.339

> <U+W>
11.252

> <U>
13.420

> <W>
-2.167

> <W(PB)>
-4.325

> <W(SA)>
2.157

> <Valence>
18.609

> <Coulomb>
-8.052

> <VdW>
2.863

> <VdW6>
-12.524

> <VdW12>
15.387

> <Bond>
0.430

> <Angle>
4.724

> <Pdih>
13.455

> <Idih>
0.000

> <Tether>
0.000

$$$$
VeraChem MOL file


 25 25  0  0  0  0  0  0  0  0999 V2000     
   20.9647   21.1265   22.8218 C   0  0  0  0  0  0  0  0  0  0  0  0
   20.3647   21.7465   23.5015 H   0  0  0  0  0  0  0  0  0  0  0  0
   21.7528   21.7898   22.4402 H   0  0  0  0  0  0  0  0  0  0  0  0
   21.6702   20.0106   23.6366 C   0  0  0  0  0  0  0  0  0  0  0  0
   22.3582   19.4655   22.9827 H   0  0  0  0  0  0  0  0  0  0  0  0
   22.3366   20.4991   24.3604 H   0  0  0  0  0  0  0  0  0  0  0  0
   20.7697   19.0250   24.4372 C   0  0  0  0  0  0  0  0  0  0  0  0
   20.5664   19.4846   25.4139 H   0  0  0  0  0  0  0  0  0  0  0  0
   21.3445   18.1145   24.6550 H   0  0  0  0  0  0  0  0  0  0  0  0
   19.3975   18.6266   23.8287 C   0  0  0  0  0  0  0  0  0  0  0  0
   18.8560   18.0504   24.5902 H   0  0  0  0  0  0  0  0  0  0  0  0
   18.7824   19.5231   23.7119 H   0  0  0  0  0  0  0  0  0  0  0  0
   19.3963   17.7953   22.5122 C   0  0  0  0  0  0  0  0  0  0  0  0
   18.4301   17.9588   22.0137 H   0  0  0  0  0  0  0  0  0  0  0  0
   20.5177   18.0780   21.4811 C   0  0  0  0  0  0  0  0  0  0  0  0
   21.4870   17.8601   21.9388 H   0  0  0  0  0  0  0  0  0  0  0  0
   20.4319   17.3257   20.6859 H   0  0  0  0  0  0  0  0  0  0  0  0
   20.5337   19.4726   20.7861 C   0  0  0  0  0  0  0  0  0  0  0  0
   19.8720   19.4116   19.9112 H   0  0  0  0  0  0  0  0  0  0  0  0
   21.5380   19.6559   20.3810 H   0  0  0  0  0  0  0  0  0  0  0  0
   20.0824   20.7076   21.6094 C   0  0  0  0  0  0  0  0  0  0  0  0
   19.0385   20.5804   21.9128 H   0  0  0  0  0  0  0  0  0  0  0  0
   20.0470   21.5665   20.9253 H   0  0  0  0  0  0  0  0  0  0  0  0
   19.4957   16.4198   22.8650 O   0  0  0  0  0  0  0  0  0  0  0  0
   18.7547   16.2304   23.4769 H   0  0  0  0  0  0  0  0  0  0  0  0
  1  2  1  0  0  0  0
  1  3  1  0  0  0  0
  1  4  1  0  0  0  0
  4  5  1  0  0  0  0
  4  6  1  0  0  0  0
  4  7  1  0  0  0  0
  7  8  1  0  0  0  0
  7  9  1  0  0  0  0
  7 10  1  0  0  0  0
 10 11  1  0  0  0  0
 10 12  1  0  0  0  0
 10 13  1  0  0  0  0
 13 14  1  0  0  0  0
 13 15  1  0  0  0  0
 15 16  1  0  0  0  0
 15 17  1  0  0  0  0
 15 18  1  0  0  0  0
 18 19  1  0  0  0  0
 18 20  1  0  0  0  0
  1 21  1  0  0  0  0
 18 21  1  0  0  0  0
 21 22  1  0  0  0  0
 21 23  1  0  0  0  0
 13 24  1  0  0  0  0
 24 25  1  0  0  0  0
M  END
> <VConfSearch Rank>
308

> <Conf_Id>
146

> <Delta U+W>
2.553

> <U+W>
13.466

> <U>
15.643

> <W>
-2.176

> <W(PB)>
-4.307

> <W(SA)>
2.131

> <Valence>
18.916

> <Coulomb>
-7.506

> <VdW>
4.232

> <VdW6>
-13.632

> <VdW12>
17.864

> <Bond>
0.735

> <Angle>
9.140

> <Pdih>
9.042

> <Idih>
0.000

> <Tether>
0.000

$$$$
VeraChem MOL file


 25 25  0  0  0  0  0  0  0  0999 V2000     
   21.0517   19.0807   20.7317 C   0  0  0  0  0  0  0  0  0  0  0  0
   21.7904   19.7786   20.3149 H   0  0  0  0  0  0  0  0  0  0  0  0
   20.8405   18.3596   19.9303 H   0  0  0  0  0  0  0  0  0  0  0  0
   19.7360   19.8440   21.0254 C   0  0  0  0  0  0  0  0  0  0  0  0
   19.3746   20.2496   20.0705 H   0  0  0  0  0  0  0  0  0  0  0  0
   18.9528   19.1459   21.3422 H   0  0  0  0  0  0  0  0  0  0  0  0
   19.8416   21.0294   22.0174 C   0  0  0  0  0  0  0  0  0  0  0  0
   18.8672   21.5366   22.0315 H   0  0  0  0  0  0  0  0  0  0  0  0
   20.5557   21.7671   21.6271 H   0  0  0  0  0  0  0  0  0  0  0  0
   20.2200   20.6886   23.4824 C   0  0  0  0  0  0  0  0  0  0  0  0
   21.3038   20.5689   23.5774 H   0  0  0  0  0  0  0  0  0  0  0  0
   19.9877   21.5737   24.0900 H   0  0  0  0  0  0  0  0  0  0  0  0
   19.4911   19.4580   24.0813 C   0  0  0  0  0  0  0  0  0  0  0  0
   18.5816   19.2506   23.5016 H   0  0  0  0  0  0  0  0  0  0  0  0
   20.3605   18.1768   24.1479 C   0  0  0  0  0  0  0  0  0  0  0  0
   21.2842   18.3962   24.6996 H   0  0  0  0  0  0  0  0  0  0  0  0
   19.8236   17.4339   24.7521 H   0  0  0  0  0  0  0  0  0  0  0  0
   20.7186   17.5005   22.7966 C   0  0  0  0  0  0  0  0  0  0  0  0
   19.8101   17.2344   22.2411 H   0  0  0  0  0  0  0  0  0  0  0  0
   21.1991   16.5419   23.0355 H   0  0  0  0  0  0  0  0  0  0  0  0
   21.7013   18.3045   21.9064 C   0  0  0  0  0  0  0  0  0  0  0  0
   22.4203   17.5989   21.4680 H   0  0  0  0  0  0  0  0  0  0  0  0
   22.3158   18.9739   22.5189 H   0  0  0  0  0  0  0  0  0  0  0  0
   19.1059   19.7776   25.4135 O   0  0  0  0  0  0  0  0  0  0  0  0
   18.5970   19.0119   25.7527 H   0  0  0  0  0  0  0  0  0  0  0  0
  1  2  1  0  0  0  0
  1  3  1  0  0  0  0
  1  4  1  0  0  0  0
  4  5  1  0  0  0  0
  4  6  1  0  0  0  0
  4  7  1  0  0  0  0
  7  8  1  0  0  0  0
  7  9  1  0  0  0  0
  7 10  1  0  0  0  0
 10 11  1  0  0  0  0
 10 12  1  0  0  0  0
 10 13  1  0  0  0  0
 13 14  1  0  0  0  0
 13 15  1  0  0  0  0
 15 16  1  0  0  0  0
 15 17  1  0  0  0  0
 15 18  1  0  0  0  0
 18 19  1  0  0  0  0
 18 20  1  0  0  0  0
  1 21  1  0  0  0  0
 18 21  1  0  0  0  0
 21 22  1  0  0  0  0
 21 23  1  0  0  0  0
 13 24  1  0  0  0  0
 24 25  1  0  0  0  0
M  END
> <VConfSearch Rank>
309

> <Conf_Id>
62

> <Delta U+W>
-1.779

> <U+W>
9.134

> <U>
11.364

> <W>
-2.230

> <W(PB)>
-4.359

> <W(SA)>
2.129

> <Valence>
16.582

> <Coulomb>
-8.150

> <VdW>
2.933

> <VdW6>
-12.531

> <VdW12>
15.464

> <Bond>
0.439

> <Angle>
5.099

> <Pdih>
11.044

> <Idih>
0.000

> <Tether>
0.000

$$$$
VeraChem MOL file


 25 25  0  0  0  0  0  0  0  0999 V2000     
   19.2816   18.6033   21.2715 C   0  0  0  0  0  0  0  0  0  0  0  0
   19.5537   19.6254   20.9846 H   0  0  0  0  0  0  0  0  0  0  0  0
   18.6272   18.2536   20.4615 H   0  0  0  0  0  0  0  0  0  0  0  0
   18.4394   18.6133   22.5716 C   0  0  0  0  0  0  0  0  0  0  0  0
   17.5349   19.2043   22.3729 H   0  0  0  0  0  0  0  0  0  0  0  0
   18.0876   17.5946   22.7839 H   0  0  0  0  0  0  0  0  0  0  0  0
   19.1113   19.1888   23.8443 C   0  0  0  0  0  0  0  0  0  0  0  0
   19.7321   18.4272   24.3296 H   0  0  0  0  0  0  0  0  0  0  0  0
   18.3109   19.3928   24.5687 H   0  0  0  0  0  0  0  0  0  0  0  0
   19.9196   20.4971   23.6336 C   0  0  0  0  0  0  0  0  0  0  0  0
   19.5657   21.0414   22.7494 H   0  0  0  0  0  0  0  0  0  0  0  0
   19.7000   21.1545   24.4850 H   0  0  0  0  0  0  0  0  0  0  0  0
   21.4572   20.3124   23.5779 C   0  0  0  0  0  0  0  0  0  0  0  0
   21.7703   19.7578   24.4742 H   0  0  0  0  0  0  0  0  0  0  0  0
   22.0178   19.5755   22.3359 C   0  0  0  0  0  0  0  0  0  0  0  0
   21.7251   20.0955   21.4157 H   0  0  0  0  0  0  0  0  0  0  0  0
   23.1116   19.6613   22.3800 H   0  0  0  0  0  0  0  0  0  0  0  0
   21.6743   18.0636   22.2593 C   0  0  0  0  0  0  0  0  0  0  0  0
   21.4657   17.6660   23.2590 H   0  0  0  0  0  0  0  0  0  0  0  0
   22.5733   17.5241   21.9314 H   0  0  0  0  0  0  0  0  0  0  0  0
   20.5345   17.6922   21.2766 C   0  0  0  0  0  0  0  0  0  0  0  0
   20.2277   16.6540   21.4624 H   0  0  0  0  0  0  0  0  0  0  0  0
   20.9515   17.7013   20.2603 H   0  0  0  0  0  0  0  0  0  0  0  0
   22.0486   21.6053   23.6111 O   0  0  0  0  0  0  0  0  0  0  0  0
   21.7406   22.0364   24.4354 H   0  0  0  0  0  0  0  0  0  0  0  0
  1  2  1  0  0  0  0
  1  3  1  0  0  0  0
  1  4  1  0  0  0  0
  4  5  1  0  0  0  0
  4  6  1  0  0  0  0
  4  7  1  0  0  0  0
  7  8  1  0  0  0  0
  7  9  1  0  0  0  0
  7 10  1  0  0  0  0
 10 11  1  0  0  0  0
 10 12  1  0  0  0  0
 10 13  1  0  0  0  0
 13 14  1  0  0  0  0
 13 15  1  0  0  0  0
 15 16  1  0  0  0  0
 15 17  1  0  0  0  0
 15 18  1  0  0  0  0
 18 19  1  0  0  0  0
 18 20  1  0  0  0  0
  1 21  1  0  0  0  0
 18 21  1  0  0  0  0
 21 22  1  0  0  0  0
 21 23  1  0  0  0  0
 13 24  1  0  0  0  0
 24 25  1  0  0  0  0
M  END
> <VConfSearch Rank>
310

> <Conf_Id>
121

> <Delta U+W>
-1.283

> <U+W>
9.630

> <U>
11.876

> <W>
-2.246

> <W(PB)>
-4.376

> <W(SA)>
2.130

> <Valence>
17.153

> <Coulomb>
-7.966

> <VdW>
2.689

> <VdW6>
-12.458

> <VdW12>
15.147

> <Bond>
0.421

> <Angle>
5.258

> <Pdih>
11.475

> <Idih>
0.000

> <Tether>
0.000

$$$$
VeraChem MOL file


 25 25  0  0  0  0  0  0  0  0999 V2000     
   21.3805   17.8625   23.3504 C   0  0  0  0  0  0  0  0  0  0  0  0
   21.4774   17.7635   22.2632 H   0  0  0  0  0  0  0  0  0  0  0  0
   22.0038   17.0551   23.7582 H   0  0  0  0  0  0  0  0  0  0  0  0
   19.9214   17.5842   23.7901 C   0  0  0  0  0  0  0  0  0  0  0  0
   19.6746   16.5595   23.4802 H   0  0  0  0  0  0  0  0  0  0  0  0
   19.8665   17.5840   24.8871 H   0  0  0  0  0  0  0  0  0  0  0  0
   18.8234   18.5251   23.2315 C   0  0  0  0  0  0  0  0  0  0  0  0
   18.7574   19.4392   23.8323 H   0  0  0  0  0  0  0  0  0  0  0  0
   17.8580   18.0242   23.3868 H   0  0  0  0  0  0  0  0  0  0  0  0
   18.9517   18.8727   21.7241 C   0  0  0  0  0  0  0  0  0  0  0  0
   19.5158   18.1014   21.1860 H   0  0  0  0  0  0  0  0  0  0  0  0
   17.9417   18.8438   21.2940 H   0  0  0  0  0  0  0  0  0  0  0  0
   19.5300   20.2780   21.4230 C   0  0  0  0  0  0  0  0  0  0  0  0
   18.9393   21.0175   21.9826 H   0  0  0  0  0  0  0  0  0  0  0  0
   21.0265   20.4943   21.7625 C   0  0  0  0  0  0  0  0  0  0  0  0
   21.6507   19.7679   21.2277 H   0  0  0  0  0  0  0  0  0  0  0  0
   21.3145   21.4745   21.3605 H   0  0  0  0  0  0  0  0  0  0  0  0
   21.3576   20.5056   23.2789 C   0  0  0  0  0  0  0  0  0  0  0  0
   20.4717   20.7773   23.8640 H   0  0  0  0  0  0  0  0  0  0  0  0
   22.0717   21.3188   23.4682 H   0  0  0  0  0  0  0  0  0  0  0  0
   21.9935   19.2027   23.8276 C   0  0  0  0  0  0  0  0  0  0  0  0
   21.9832   19.2360   24.9254 H   0  0  0  0  0  0  0  0  0  0  0  0
   23.0539   19.2000   23.5405 H   0  0  0  0  0  0  0  0  0  0  0  0
   19.3640   20.5196   20.0314 O   0  0  0  0  0  0  0  0  0  0  0  0
   19.6698   21.4354   19.8646 H   0  0  0  0  0  0  0  0  0  0  0  0
  1  2  1  0  0  0  0
  1  3  1  0  0  0  0
  1  4  1  0  0  0  0
  4  5  1  0  0  0  0
  4  6  1  0  0  0  0
  4  7  1  0  0  0  0
  7  8  1  0  0  0  0
  7  9  1  0  0  0  0
  7 10  1  0  0  0  0
 10 11  1  0  0  0  0
 10 12  1  0  0  0  0
 10 13  1  0  0  0  0
 13 14  1  0  0  0  0
 13 15  1  0  0  0  0
 15 16  1  0  0  0  0
 15 17  1  0  0  0  0
 15 18  1  0  0  0  0
 18 19  1  0  0  0  0
 18 20  1  0  0  0  0
  1 21  1  0  0  0  0
 18 21  1  0  0  0  0
 21 22  1  0  0  0  0
 21 23  1  0  0  0  0
 13 24  1  0  0  0  0
 24 25  1  0  0  0  0
M  END
> <VConfSearch Rank>
311

> <Conf_Id>
24

> <Delta U+W>
-1.236

> <U+W>
9.678

> <U>
11.876

> <W>
-2.199

> <W(PB)>
-4.335

> <W(SA)>
2.137

> <Valence>
17.153

> <Coulomb>
-7.966

> <VdW>
2.689

> <VdW6>
-12.458

> <VdW12>
15.147

> <Bond>
0.421

> <Angle>
5.258

> <Pdih>
11.475

> <Idih>
0.000

> <Tether>
0.000

$$$$
VeraChem MOL file


 25 25  0  0  0  0  0  0  0  0999 V2000     
   19.7155   17.3828   23.6744 C   0  0  0  0  0  0  0  0  0  0  0  0
   19.2531   16.5237   23.1696 H   0  0  0  0  0  0  0  0  0  0  0  0
   19.7500   17.1179   24.7400 H   0  0  0  0  0  0  0  0  0  0  0  0
   21.1762   17.5332   23.1723 C   0  0  0  0  0  0  0  0  0  0  0  0
   21.7624   18.1480   23.8671 H   0  0  0  0  0  0  0  0  0  0  0  0
   21.6364   16.5369   23.2250 H   0  0  0  0  0  0  0  0  0  0  0  0
   21.3470   18.0602   21.7261 C   0  0  0  0  0  0  0  0  0  0  0  0
   20.5347   17.6992   21.0809 H   0  0  0  0  0  0  0  0  0  0  0  0
   22.2619   17.6020   21.3258 H   0  0  0  0  0  0  0  0  0  0  0  0
   21.5219   19.6002   21.6005 C   0  0  0  0  0  0  0  0  0  0  0  0
   22.1095   19.9960   22.4387 H   0  0  0  0  0  0  0  0  0  0  0  0
   22.1333   19.7739   20.7044 H   0  0  0  0  0  0  0  0  0  0  0  0
   20.2047   20.3970   21.4361 C   0  0  0  0  0  0  0  0  0  0  0  0
   19.4660   19.7517   20.9424 H   0  0  0  0  0  0  0  0  0  0  0  0
   19.5994   20.9575   22.7481 C   0  0  0  0  0  0  0  0  0  0  0  0
   20.2146   21.7938   23.1050 H   0  0  0  0  0  0  0  0  0  0  0  0
   18.6185   21.3867   22.5047 H   0  0  0  0  0  0  0  0  0  0  0  0
   19.4174   19.9576   23.9176 C   0  0  0  0  0  0  0  0  0  0  0  0
   18.7758   20.4306   24.6734 H   0  0  0  0  0  0  0  0  0  0  0  0
   20.3773   19.8021   24.4238 H   0  0  0  0  0  0  0  0  0  0  0  0
   18.7826   18.6065   23.5017 C   0  0  0  0  0  0  0  0  0  0  0  0
   18.4126   18.6447   22.4705 H   0  0  0  0  0  0  0  0  0  0  0  0
   17.8854   18.4373   24.1127 H   0  0  0  0  0  0  0  0  0  0  0  0
   20.4561   21.5049   20.5811 O   0  0  0  0  0  0  0  0  0  0  0  0
   21.1306   22.0543   21.0307 H   0  0  0  0  0  0  0  0  0  0  0  0
  1  2  1  0  0  0  0
  1  3  1  0  0  0  0
  1  4  1  0  0  0  0
  4  5  1  0  0  0  0
  4  6  1  0  0  0  0
  4  7  1  0  0  0  0
  7  8  1  0  0  0  0
  7  9  1  0  0  0  0
  7 10  1  0  0  0  0
 10 11  1  0  0  0  0
 10 12  1  0  0  0  0
 10 13  1  0  0  0  0
 13 14  1  0  0  0  0
 13 15  1  0  0  0  0
 15 16  1  0  0  0  0
 15 17  1  0  0  0  0
 15 18  1  0  0  0  0
 18 19  1  0  0  0  0
 18 20  1  0  0  0  0
  1 21  1  0  0  0  0
 18 21  1  0  0  0  0
 21 22  1  0  0  0  0
 21 23  1  0  0  0  0
 13 24  1  0  0  0  0
 24 25  1  0  0  0  0
M  END
> <VConfSearch Rank>
312

> <Conf_Id>
167

> <Delta U+W>
0.388

> <U+W>
11.301

> <U>
13.202

> <W>
-1.901

> <W(PB)>
-4.065

> <W(SA)>
2.163

> <Valence>
18.957

> <Coulomb>
-8.753

> <VdW>
2.998

> <VdW6>
-12.294

> <VdW12>
15.292

> <Bond>
0.419

> <Angle>
4.543

> <Pdih>
13.996

> <Idih>
0.000

> <Tether>
0.000

$$$$
VeraChem MOL file


 25 25  0  0  0  0  0  0  0  0999 V2000     
   20.6956   21.1025   23.4474 C   0  0  0  0  0  0  0  0  0  0  0  0
   21.5415   21.7082   23.0950 H   0  0  0  0  0  0  0  0  0  0  0  0
   20.1874   21.7159   24.2040 H   0  0  0  0  0  0  0  0  0  0  0  0
   21.2449   19.8377   24.1572 C   0  0  0  0  0  0  0  0  0  0  0  0
   22.1004   19.4275   23.6088 H   0  0  0  0  0  0  0  0  0  0  0  0
   21.6682   20.1653   25.1166 H   0  0  0  0  0  0  0  0  0  0  0  0
   20.2005   18.7282   24.4455 C   0  0  0  0  0  0  0  0  0  0  0  0
   19.1893   19.1482   24.5212 H   0  0  0  0  0  0  0  0  0  0  0  0
   20.4175   18.3217   25.4428 H   0  0  0  0  0  0  0  0  0  0  0  0
   20.2279   17.5333   23.4537 C   0  0  0  0  0  0  0  0  0  0  0  0
   21.2384   17.1050   23.4261 H   0  0  0  0  0  0  0  0  0  0  0  0
   19.5840   16.7459   23.8675 H   0  0  0  0  0  0  0  0  0  0  0  0
   19.7538   17.8145   22.0061 C   0  0  0  0  0  0  0  0  0  0  0  0
   18.7564   18.2731   22.0376 H   0  0  0  0  0  0  0  0  0  0  0  0
   20.7183   18.7109   21.1870 C   0  0  0  0  0  0  0  0  0  0  0  0
   21.7242   18.6728   21.6169 H   0  0  0  0  0  0  0  0  0  0  0  0
   20.8380   18.2939   20.1781 H   0  0  0  0  0  0  0  0  0  0  0  0
   20.2622   20.1837   21.0213 C   0  0  0  0  0  0  0  0  0  0  0  0
   19.4809   20.2105   20.2494 H   0  0  0  0  0  0  0  0  0  0  0  0
   21.0979   20.7725   20.6194 H   0  0  0  0  0  0  0  0  0  0  0  0
   19.6988   20.8889   22.2807 C   0  0  0  0  0  0  0  0  0  0  0  0
   18.7981   20.3771   22.6385 H   0  0  0  0  0  0  0  0  0  0  0  0
   19.3463   21.8812   21.9678 H   0  0  0  0  0  0  0  0  0  0  0  0
   19.6436   16.5593   21.3455 O   0  0  0  0  0  0  0  0  0  0  0  0
   19.2778   16.7421   20.4548 H   0  0  0  0  0  0  0  0  0  0  0  0
  1  2  1  0  0  0  0
  1  3  1  0  0  0  0
  1  4  1  0  0  0  0
  4  5  1  0  0  0  0
  4  6  1  0  0  0  0
  4  7  1  0  0  0  0
  7  8  1  0  0  0  0
  7  9  1  0  0  0  0
  7 10  1  0  0  0  0
 10 11  1  0  0  0  0
 10 12  1  0  0  0  0
 10 13  1  0  0  0  0
 13 14  1  0  0  0  0
 13 15  1  0  0  0  0
 15 16  1  0  0  0  0
 15 17  1  0  0  0  0
 15 18  1  0  0  0  0
 18 19  1  0  0  0  0
 18 20  1  0  0  0  0
  1 21  1  0  0  0  0
 18 21  1  0  0  0  0
 21 22  1  0  0  0  0
 21 23  1  0  0  0  0
 13 24  1  0  0  0  0
 24 25  1  0  0  0  0
M  END
> <VConfSearch Rank>
313

> <Conf_Id>
60

> <Delta U+W>
-1.838

> <U+W>
9.075

> <U>
11.150

> <W>
-2.074

> <W(PB)>
-4.196

> <W(SA)>
2.121

> <Valence>
16.582

> <Coulomb>
-8.361

> <VdW>
2.928

> <VdW6>
-12.539

> <VdW12>
15.467

> <Bond>
0.441

> <Angle>
5.093

> <Pdih>
11.049

> <Idih>
0.000

> <Tether>
0.000

$$$$
VeraChem MOL file


 25 25  0  0  0  0  0  0  0  0999 V2000     
   21.7378   20.6906   22.6726 C   0  0  0  0  0  0  0  0  0  0  0  0
   22.0332   21.1865   23.6071 H   0  0  0  0  0  0  0  0  0  0  0  0
   22.3133   21.1872   21.8794 H   0  0  0  0  0  0  0  0  0  0  0  0
   20.2384   20.9684   22.3981 C   0  0  0  0  0  0  0  0  0  0  0  0
   20.1216   22.0562   22.2996 H   0  0  0  0  0  0  0  0  0  0  0  0
   19.9509   20.5709   21.4180 H   0  0  0  0  0  0  0  0  0  0  0  0
   19.2453   20.4970   23.4900 C   0  0  0  0  0  0  0  0  0  0  0  0
   18.2481   20.8642   23.2114 H   0  0  0  0  0  0  0  0  0  0  0  0
   19.4897   20.9911   24.4401 H   0  0  0  0  0  0  0  0  0  0  0  0
   19.1404   18.9685   23.7301 C   0  0  0  0  0  0  0  0  0  0  0  0
   19.9577   18.6303   24.3751 H   0  0  0  0  0  0  0  0  0  0  0  0
   18.2345   18.7962   24.3264 H   0  0  0  0  0  0  0  0  0  0  0  0
   19.0846   18.1054   22.4431 C   0  0  0  0  0  0  0  0  0  0  0  0
   18.7828   18.7283   21.5904 H   0  0  0  0  0  0  0  0  0  0  0  0
   20.4162   17.3911   22.1024 C   0  0  0  0  0  0  0  0  0  0  0  0
   20.7366   16.7935   22.9658 H   0  0  0  0  0  0  0  0  0  0  0  0
   20.2104   16.6680   21.3020 H   0  0  0  0  0  0  0  0  0  0  0  0
   21.5927   18.2883   21.6301 C   0  0  0  0  0  0  0  0  0  0  0  0
   21.3090   18.8664   20.7412 H   0  0  0  0  0  0  0  0  0  0  0  0
   22.3924   17.6156   21.2913 H   0  0  0  0  0  0  0  0  0  0  0  0
   22.1906   19.2082   22.7260 C   0  0  0  0  0  0  0  0  0  0  0  0
   23.2839   19.2015   22.6177 H   0  0  0  0  0  0  0  0  0  0  0  0
   22.0137   18.7856   23.7215 H   0  0  0  0  0  0  0  0  0  0  0  0
   18.0980   17.0968   22.6260 O   0  0  0  0  0  0  0  0  0  0  0  0
   17.2468   17.5600   22.7723 H   0  0  0  0  0  0  0  0  0  0  0  0
  1  2  1  0  0  0  0
  1  3  1  0  0  0  0
  1  4  1  0  0  0  0
  4  5  1  0  0  0  0
  4  6  1  0  0  0  0
  4  7  1  0  0  0  0
  7  8  1  0  0  0  0
  7  9  1  0  0  0  0
  7 10  1  0  0  0  0
 10 11  1  0  0  0  0
 10 12  1  0  0  0  0
 10 13  1  0  0  0  0
 13 14  1  0  0  0  0
 13 15  1  0  0  0  0
 15 16  1  0  0  0  0
 15 17  1  0  0  0  0
 15 18  1  0  0  0  0
 18 19  1  0  0  0  0
 18 20  1  0  0  0  0
  1 21  1  0  0  0  0
 18 21  1  0  0  0  0
 21 22  1  0  0  0  0
 21 23  1  0  0  0  0
 13 24  1  0  0  0  0
 24 25  1  0  0  0  0
M  END
> <VConfSearch Rank>
314

> <Conf_Id>
129

> <Delta U+W>
-1.846

> <U+W>
9.067

> <U>
11.150

> <W>
-2.083

> <W(PB)>
-4.217

> <W(SA)>
2.134

> <Valence>
16.583

> <Coulomb>
-8.361

> <VdW>
2.928

> <VdW6>
-12.539

> <VdW12>
15.467

> <Bond>
0.441

> <Angle>
5.093

> <Pdih>
11.049

> <Idih>
0.000

> <Tether>
0.000

$$$$
VeraChem MOL file


 25 25  0  0  0  0  0  0  0  0999 V2000     
   22.3265   19.1749   22.6441 C   0  0  0  0  0  0  0  0  0  0  0  0
   22.8779   18.6034   21.8853 H   0  0  0  0  0  0  0  0  0  0  0  0
   23.0929   19.6412   23.2783 H   0  0  0  0  0  0  0  0  0  0  0  0
   21.5212   18.1969   23.5359 C   0  0  0  0  0  0  0  0  0  0  0  0
   22.2447   17.5281   24.0216 H   0  0  0  0  0  0  0  0  0  0  0  0
   21.0474   18.7374   24.3634 H   0  0  0  0  0  0  0  0  0  0  0  0
   20.4867   17.3030   22.8073 C   0  0  0  0  0  0  0  0  0  0  0  0
   20.0870   16.5926   23.5440 H   0  0  0  0  0  0  0  0  0  0  0  0
   21.0017   16.6921   22.0537 H   0  0  0  0  0  0  0  0  0  0  0  0
   19.2846   18.0197   22.1389 C   0  0  0  0  0  0  0  0  0  0  0  0
   19.5757   18.4111   21.1588 H   0  0  0  0  0  0  0  0  0  0  0  0
   18.5352   17.2478   21.9176 H   0  0  0  0  0  0  0  0  0  0  0  0
   18.6304   19.1377   22.9914 C   0  0  0  0  0  0  0  0  0  0  0  0
   18.8921   18.9980   24.0487 H   0  0  0  0  0  0  0  0  0  0  0  0
   19.0114   20.5754   22.5567 C   0  0  0  0  0  0  0  0  0  0  0  0
   18.7791   20.7089   21.4921 H   0  0  0  0  0  0  0  0  0  0  0  0
   18.3541   21.2716   23.0947 H   0  0  0  0  0  0  0  0  0  0  0  0
   20.4750   21.0225   22.8191 C   0  0  0  0  0  0  0  0  0  0  0  0
   20.7223   20.9403   23.8853 H   0  0  0  0  0  0  0  0  0  0  0  0
   20.5271   22.0968   22.5950 H   0  0  0  0  0  0  0  0  0  0  0  0
   21.5387   20.3116   21.9429 C   0  0  0  0  0  0  0  0  0  0  0  0
   22.2738   21.0624   21.6218 H   0  0  0  0  0  0  0  0  0  0  0  0
   21.0911   19.9524   21.0094 H   0  0  0  0  0  0  0  0  0  0  0  0
   17.2185   19.0202   22.8700 O   0  0  0  0  0  0  0  0  0  0  0  0
   17.0104   19.1524   21.9223 H   0  0  0  0  0  0  0  0  0  0  0  0
  1  2  1  0  0  0  0
  1  3  1  0  0  0  0
  1  4  1  0  0  0  0
  4  5  1  0  0  0  0
  4  6  1  0  0  0  0
  4  7  1  0  0  0  0
  7  8  1  0  0  0  0
  7  9  1  0  0  0  0
  7 10  1  0  0  0  0
 10 11  1  0  0  0  0
 10 12  1  0  0  0  0
 10 13  1  0  0  0  0
 13 14  1  0  0  0  0
 13 15  1  0  0  0  0
 15 16  1  0  0  0  0
 15 17  1  0  0  0  0
 15 18  1  0  0  0  0
 18 19  1  0  0  0  0
 18 20  1  0  0  0  0
  1 21  1  0  0  0  0
 18 21  1  0  0  0  0
 21 22  1  0  0  0  0
 21 23  1  0  0  0  0
 13 24  1  0  0  0  0
 24 25  1  0  0  0  0
M  END
> <VConfSearch Rank>
315

> <Conf_Id>
140

> <Delta U+W>
-1.702

> <U+W>
9.211

> <U>
11.181

> <W>
-1.969

> <W(PB)>
-4.093

> <W(SA)>
2.124

> <Valence>
16.954

> <Coulomb>
-8.661

> <VdW>
2.887

> <VdW6>
-12.561

> <VdW12>
15.448

> <Bond>
0.433

> <Angle>
5.120

> <Pdih>
11.401

> <Idih>
0.000

> <Tether>
0.000

$$$$
VeraChem MOL file


 25 25  0  0  0  0  0  0  0  0999 V2000     
   21.7518   17.7327   22.6611 C   0  0  0  0  0  0  0  0  0  0  0  0
   22.4174   17.5972   21.7979 H   0  0  0  0  0  0  0  0  0  0  0  0
   22.0623   16.9772   23.3958 H   0  0  0  0  0  0  0  0  0  0  0  0
   20.2986   17.4039   22.2315 C   0  0  0  0  0  0  0  0  0  0  0  0
   20.0898   17.8079   21.2345 H   0  0  0  0  0  0  0  0  0  0  0  0
   20.2395   16.3144   22.1022 H   0  0  0  0  0  0  0  0  0  0  0  0
   19.1956   17.8307   23.2344 C   0  0  0  0  0  0  0  0  0  0  0  0
   19.5926   17.8921   24.2559 H   0  0  0  0  0  0  0  0  0  0  0  0
   18.4484   17.0260   23.2655 H   0  0  0  0  0  0  0  0  0  0  0  0
   18.4420   19.1347   22.8568 C   0  0  0  0  0  0  0  0  0  0  0  0
   18.0199   19.0280   21.8489 H   0  0  0  0  0  0  0  0  0  0  0  0
   17.5808   19.2234   23.5326 H   0  0  0  0  0  0  0  0  0  0  0  0
   19.2453   20.4569   22.9424 C   0  0  0  0  0  0  0  0  0  0  0  0
   19.6911   20.5455   23.9420 H   0  0  0  0  0  0  0  0  0  0  0  0
   20.3491   20.6029   21.8631 C   0  0  0  0  0  0  0  0  0  0  0  0
   20.1268   19.9619   21.0038 H   0  0  0  0  0  0  0  0  0  0  0  0
   20.3280   21.6244   21.4595 H   0  0  0  0  0  0  0  0  0  0  0  0
   21.7944   20.3452   22.3631 C   0  0  0  0  0  0  0  0  0  0  0  0
   22.1249   21.2387   22.9103 H   0  0  0  0  0  0  0  0  0  0  0  0
   22.4628   20.2633   21.4953 H   0  0  0  0  0  0  0  0  0  0  0  0
   22.0092   19.1240   23.2920 C   0  0  0  0  0  0  0  0  0  0  0  0
   21.4304   19.2369   24.2158 H   0  0  0  0  0  0  0  0  0  0  0  0
   23.0577   19.1443   23.6192 H   0  0  0  0  0  0  0  0  0  0  0  0
   18.3200   21.5243   22.7788 O   0  0  0  0  0  0  0  0  0  0  0  0
   17.9342   21.4213   21.8847 H   0  0  0  0  0  0  0  0  0  0  0  0
  1  2  1  0  0  0  0
  1  3  1  0  0  0  0
  1  4  1  0  0  0  0
  4  5  1  0  0  0  0
  4  6  1  0  0  0  0
  4  7  1  0  0  0  0
  7  8  1  0  0  0  0
  7  9  1  0  0  0  0
  7 10  1  0  0  0  0
 10 11  1  0  0  0  0
 10 12  1  0  0  0  0
 10 13  1  0  0  0  0
 13 14  1  0  0  0  0
 13 15  1  0  0  0  0
 15 16  1  0  0  0  0
 15 17  1  0  0  0  0
 15 18  1  0  0  0  0
 18 19  1  0  0  0  0
 18 20  1  0  0  0  0
  1 21  1  0  0  0  0
 18 21  1  0  0  0  0
 21 22  1  0  0  0  0
 21 23  1  0  0  0  0
 13 24  1  0  0  0  0
 24 25  1  0  0  0  0
M  END
> <VConfSearch Rank>
316

> <Conf_Id>
68

> <Delta U+W>
-1.765

> <U+W>
9.148

> <U>
11.181

> <W>
-2.032

> <W(PB)>
-4.147

> <W(SA)>
2.114

> <Valence>
16.955

> <Coulomb>
-8.661

> <VdW>
2.887

> <VdW6>
-12.561

> <VdW12>
15.448

> <Bond>
0.433

> <Angle>
5.121

> <Pdih>
11.402

> <Idih>
0.000

> <Tether>
0.000

$$$$
VeraChem MOL file


 25 25  0  0  0  0  0  0  0  0999 V2000     
   21.3248   18.3635   23.9345 C   0  0  0  0  0  0  0  0  0  0  0  0
   21.8623   17.8558   24.7472 H   0  0  0  0  0  0  0  0  0  0  0  0
   22.1087   18.8890   23.3776 H   0  0  0  0  0  0  0  0  0  0  0  0
   20.3359   19.3750   24.5703 C   0  0  0  0  0  0  0  0  0  0  0  0
   19.3357   18.9362   24.6780 H   0  0  0  0  0  0  0  0  0  0  0  0
   20.6754   19.5674   25.5973 H   0  0  0  0  0  0  0  0  0  0  0  0
   20.2599   20.7491   23.8543 C   0  0  0  0  0  0  0  0  0  0  0  0
   21.2655   21.1886   23.8018 H   0  0  0  0  0  0  0  0  0  0  0  0
   19.6759   21.4260   24.4927 H   0  0  0  0  0  0  0  0  0  0  0  0
   19.6196   20.7637   22.4407 C   0  0  0  0  0  0  0  0  0  0  0  0
   18.6025   20.3556   22.4783 H   0  0  0  0  0  0  0  0  0  0  0  0
   19.4968   21.8186   22.1603 H   0  0  0  0  0  0  0  0  0  0  0  0
   20.4606   20.0560   21.3467 C   0  0  0  0  0  0  0  0  0  0  0  0
   21.4995   19.9801   21.6878 H   0  0  0  0  0  0  0  0  0  0  0  0
   19.9531   18.6485   20.9474 C   0  0  0  0  0  0  0  0  0  0  0  0
   19.0804   18.7658   20.2915 H   0  0  0  0  0  0  0  0  0  0  0  0
   20.7249   18.1624   20.3366 H   0  0  0  0  0  0  0  0  0  0  0  0
   19.5428   17.6914   22.0963 C   0  0  0  0  0  0  0  0  0  0  0  0
   19.1409   16.7794   21.6342 H   0  0  0  0  0  0  0  0  0  0  0  0
   18.7014   18.1089   22.6611 H   0  0  0  0  0  0  0  0  0  0  0  0
   20.6763   17.2592   23.0599 C   0  0  0  0  0  0  0  0  0  0  0  0
   21.4636   16.7484   22.4891 H   0  0  0  0  0  0  0  0  0  0  0  0
   20.2600   16.4992   23.7353 H   0  0  0  0  0  0  0  0  0  0  0  0
   20.4501   20.8622   20.1751 O   0  0  0  0  0  0  0  0  0  0  0  0
   19.5142   20.9332   19.8960 H   0  0  0  0  0  0  0  0  0  0  0  0
  1  2  1  0  0  0  0
  1  3  1  0  0  0  0
  1  4  1  0  0  0  0
  4  5  1  0  0  0  0
  4  6  1  0  0  0  0
  4  7  1  0  0  0  0
  7  8  1  0  0  0  0
  7  9  1  0  0  0  0
  7 10  1  0  0  0  0
 10 11  1  0  0  0  0
 10 12  1  0  0  0  0
 10 13  1  0  0  0  0
 13 14  1  0  0  0  0
 13 15  1  0  0  0  0
 15 16  1  0  0  0  0
 15 17  1  0  0  0  0
 15 18  1  0  0  0  0
 18 19  1  0  0  0  0
 18 20  1  0  0  0  0
  1 21  1  0  0  0  0
 18 21  1  0  0  0  0
 21 22  1  0  0  0  0
 21 23  1  0  0  0  0
 13 24  1  0  0  0  0
 24 25  1  0  0  0  0
M  END
> <VConfSearch Rank>
317

> <Conf_Id>
165

> <Delta U+W>
-1.999

> <U+W>
8.915

> <U>
10.935

> <W>
-2.020

> <W(PB)>
-4.135

> <W(SA)>
2.115

> <Valence>
16.757

> <Coulomb>
-8.731

> <VdW>
2.908

> <VdW6>
-12.597

> <VdW12>
15.506

> <Bond>
0.434

> <Angle>
5.069

> <Pdih>
11.254

> <Idih>
0.000

> <Tether>
0.000

$$$$
VeraChem MOL file


 25 25  0  0  0  0  0  0  0  0999 V2000     
   19.6813   18.6070   24.2862 C   0  0  0  0  0  0  0  0  0  0  0  0
   19.2343   18.2320   25.2171 H   0  0  0  0  0  0  0  0  0  0  0  0
   20.6806   18.9452   24.5826 H   0  0  0  0  0  0  0  0  0  0  0  0
   18.8134   19.8032   23.8158 C   0  0  0  0  0  0  0  0  0  0  0  0
   17.7597   19.5305   23.9653 H   0  0  0  0  0  0  0  0  0  0  0  0
   18.9946   20.6586   24.4806 H   0  0  0  0  0  0  0  0  0  0  0  0
   18.9681   20.2566   22.3424 C   0  0  0  0  0  0  0  0  0  0  0  0
   18.2180   21.0381   22.1599 H   0  0  0  0  0  0  0  0  0  0  0  0
   18.6903   19.4431   21.6624 H   0  0  0  0  0  0  0  0  0  0  0  0
   20.3493   20.8423   21.9511 C   0  0  0  0  0  0  0  0  0  0  0  0
   20.2686   21.2144   20.9208 H   0  0  0  0  0  0  0  0  0  0  0  0
   20.5512   21.7219   22.5757 H   0  0  0  0  0  0  0  0  0  0  0  0
   21.5681   19.8901   22.0272 C   0  0  0  0  0  0  0  0  0  0  0  0
   21.8785   19.7828   23.0731 H   0  0  0  0  0  0  0  0  0  0  0  0
   21.3258   18.4811   21.4270 C   0  0  0  0  0  0  0  0  0  0  0  0
   20.5009   18.5009   20.7050 H   0  0  0  0  0  0  0  0  0  0  0  0
   22.2108   18.1966   20.8418 H   0  0  0  0  0  0  0  0  0  0  0  0
   21.1011   17.3619   22.4786 C   0  0  0  0  0  0  0  0  0  0  0  0
   21.9531   17.3392   23.1719 H   0  0  0  0  0  0  0  0  0  0  0  0
   21.1250   16.3985   21.9513 H   0  0  0  0  0  0  0  0  0  0  0  0
   19.7797   17.4231   23.2891 C   0  0  0  0  0  0  0  0  0  0  0  0
   19.7186   16.4942   23.8726 H   0  0  0  0  0  0  0  0  0  0  0  0
   18.9107   17.3969   22.6193 H   0  0  0  0  0  0  0  0  0  0  0  0
   22.6355   20.5068   21.3161 O   0  0  0  0  0  0  0  0  0  0  0  0
   22.7960   21.3737   21.7440 H   0  0  0  0  0  0  0  0  0  0  0  0
  1  2  1  0  0  0  0
  1  3  1  0  0  0  0
  1  4  1  0  0  0  0
  4  5  1  0  0  0  0
  4  6  1  0  0  0  0
  4  7  1  0  0  0  0
  7  8  1  0  0  0  0
  7  9  1  0  0  0  0
  7 10  1  0  0  0  0
 10 11  1  0  0  0  0
 10 12  1  0  0  0  0
 10 13  1  0  0  0  0
 13 14  1  0  0  0  0
 13 15  1  0  0  0  0
 15 16  1  0  0  0  0
 15 17  1  0  0  0  0
 15 18  1  0  0  0  0
 18 19  1  0  0  0  0
 18 20  1  0  0  0  0
  1 21  1  0  0  0  0
 18 21  1  0  0  0  0
 21 22  1  0  0  0  0
 21 23  1  0  0  0  0
 13 24  1  0  0  0  0
 24 25  1  0  0  0  0
M  END
> <VConfSearch Rank>
318

> <Conf_Id>
133

> <Delta U+W>
-2.139

> <U+W>
8.774

> <U>
10.905

> <W>
-2.131

> <W(PB)>
-4.281

> <W(SA)>
2.150

> <Valence>
16.378

> <Coulomb>
-8.448

> <VdW>
2.976

> <VdW6>
-12.570

> <VdW12>
15.545

> <Bond>
0.439

> <Angle>
5.049

> <Pdih>
10.889

> <Idih>
0.000

> <Tether>
0.000

$$$$
VeraChem MOL file


 25 25  0  0  0  0  0  0  0  0999 V2000     
   19.1159   20.6250   22.4135 C   0  0  0  0  0  0  0  0  0  0  0  0
   18.3534   21.4096   22.3140 H   0  0  0  0  0  0  0  0  0  0  0  0
   19.9271   20.9500   21.7524 H   0  0  0  0  0  0  0  0  0  0  0  0
   18.5028   19.2923   21.9100 C   0  0  0  0  0  0  0  0  0  0  0  0
   18.0885   18.7083   22.7418 H   0  0  0  0  0  0  0  0  0  0  0  0
   17.6390   19.5437   21.2796 H   0  0  0  0  0  0  0  0  0  0  0  0
   19.4543   18.4222   21.0471 C   0  0  0  0  0  0  0  0  0  0  0  0
   19.8161   19.0135   20.1947 H   0  0  0  0  0  0  0  0  0  0  0  0
   18.8588   17.6093   20.6098 H   0  0  0  0  0  0  0  0  0  0  0  0
   20.6649   17.7806   21.7764 C   0  0  0  0  0  0  0  0  0  0  0  0
   20.3241   17.1596   22.6132 H   0  0  0  0  0  0  0  0  0  0  0  0
   21.1281   17.0786   21.0699 H   0  0  0  0  0  0  0  0  0  0  0  0
   21.7454   18.7903   22.2426 C   0  0  0  0  0  0  0  0  0  0  0  0
   21.6302   19.7218   21.6760 H   0  0  0  0  0  0  0  0  0  0  0  0
   21.7210   19.1078   23.7579 C   0  0  0  0  0  0  0  0  0  0  0  0
   22.1748   18.2626   24.2928 H   0  0  0  0  0  0  0  0  0  0  0  0
   22.3728   19.9706   23.9467 H   0  0  0  0  0  0  0  0  0  0  0  0
   20.3366   19.3756   24.4028 C   0  0  0  0  0  0  0  0  0  0  0  0
   20.4982   19.5068   25.4814 H   0  0  0  0  0  0  0  0  0  0  0  0
   19.6996   18.4871   24.3251 H   0  0  0  0  0  0  0  0  0  0  0  0
   19.5790   20.6274   23.8937 C   0  0  0  0  0  0  0  0  0  0  0  0
   20.1910   21.5215   24.0745 H   0  0  0  0  0  0  0  0  0  0  0  0
   18.6863   20.7479   24.5228 H   0  0  0  0  0  0  0  0  0  0  0  0
   23.0276   18.2515   21.9408 O   0  0  0  0  0  0  0  0  0  0  0  0
   23.6868   18.9274   22.2039 H   0  0  0  0  0  0  0  0  0  0  0  0
  1  2  1  0  0  0  0
  1  3  1  0  0  0  0
  1  4  1  0  0  0  0
  4  5  1  0  0  0  0
  4  6  1  0  0  0  0
  4  7  1  0  0  0  0
  7  8  1  0  0  0  0
  7  9  1  0  0  0  0
  7 10  1  0  0  0  0
 10 11  1  0  0  0  0
 10 12  1  0  0  0  0
 10 13  1  0  0  0  0
 13 14  1  0  0  0  0
 13 15  1  0  0  0  0
 15 16  1  0  0  0  0
 15 17  1  0  0  0  0
 15 18  1  0  0  0  0
 18 19  1  0  0  0  0
 18 20  1  0  0  0  0
  1 21  1  0  0  0  0
 18 21  1  0  0  0  0
 21 22  1  0  0  0  0
 21 23  1  0  0  0  0
 13 24  1  0  0  0  0
 24 25  1  0  0  0  0
M  END
> <VConfSearch Rank>
319

> <Conf_Id>
95

> <Delta U+W>
-2.190

> <U+W>
8.723

> <U>
10.905

> <W>
-2.182

> <W(PB)>
-4.296

> <W(SA)>
2.114

> <Valence>
16.377

> <Coulomb>
-8.448

> <VdW>
2.976

> <VdW6>
-12.570

> <VdW12>
15.546

> <Bond>
0.439

> <Angle>
5.049

> <Pdih>
10.889

> <Idih>
0.000

> <Tether>
0.000

$$$$
VeraChem MOL file


 25 25  0  0  0  0  0  0  0  0999 V2000     
   21.1773   20.2111   21.4454 C   0  0  0  0  0  0  0  0  0  0  0  0
   21.7378   20.9075   20.8069 H   0  0  0  0  0  0  0  0  0  0  0  0
   20.5467   19.6670   20.7351 H   0  0  0  0  0  0  0  0  0  0  0  0
   20.3128   21.0739   22.4109 C   0  0  0  0  0  0  0  0  0  0  0  0
   20.8919   21.9760   22.6518 H   0  0  0  0  0  0  0  0  0  0  0  0
   19.4257   21.4322   21.8712 H   0  0  0  0  0  0  0  0  0  0  0  0
   19.8732   20.4470   23.7601 C   0  0  0  0  0  0  0  0  0  0  0  0
   19.3820   21.2342   24.3481 H   0  0  0  0  0  0  0  0  0  0  0  0
   20.7612   20.2025   24.3514 H   0  0  0  0  0  0  0  0  0  0  0  0
   18.8935   19.2372   23.7039 C   0  0  0  0  0  0  0  0  0  0  0  0
   18.9597   18.6830   24.6493 H   0  0  0  0  0  0  0  0  0  0  0  0
   17.8763   19.6489   23.6717 H   0  0  0  0  0  0  0  0  0  0  0  0
   19.0237   18.2418   22.5232 C   0  0  0  0  0  0  0  0  0  0  0  0
   18.9096   18.8046   21.5910 H   0  0  0  0  0  0  0  0  0  0  0  0
   20.3235   17.3891   22.4603 C   0  0  0  0  0  0  0  0  0  0  0  0
   20.1731   16.4974   23.0836 H   0  0  0  0  0  0  0  0  0  0  0  0
   20.4412   17.0158   21.4350 H   0  0  0  0  0  0  0  0  0  0  0  0
   21.6582   18.0380   22.9167 C   0  0  0  0  0  0  0  0  0  0  0  0
   22.4295   17.2559   22.9017 H   0  0  0  0  0  0  0  0  0  0  0  0
   21.5865   18.3059   23.9756 H   0  0  0  0  0  0  0  0  0  0  0  0
   22.2012   19.2324   22.0788 C   0  0  0  0  0  0  0  0  0  0  0  0
   22.7948   18.8129   21.2551 H   0  0  0  0  0  0  0  0  0  0  0  0
   22.9132   19.8015   22.6917 H   0  0  0  0  0  0  0  0  0  0  0  0
   17.9284   17.3374   22.6070 O   0  0  0  0  0  0  0  0  0  0  0  0
   17.1120   17.8785   22.5804 H   0  0  0  0  0  0  0  0  0  0  0  0
  1  2  1  0  0  0  0
  1  3  1  0  0  0  0
  1  4  1  0  0  0  0
  4  5  1  0  0  0  0
  4  6  1  0  0  0  0
  4  7  1  0  0  0  0
  7  8  1  0  0  0  0
  7  9  1  0  0  0  0
  7 10  1  0  0  0  0
 10 11  1  0  0  0  0
 10 12  1  0  0  0  0
 10 13  1  0  0  0  0
 13 14  1  0  0  0  0
 13 15  1  0  0  0  0
 15 16  1  0  0  0  0
 15 17  1  0  0  0  0
 15 18  1  0  0  0  0
 18 19  1  0  0  0  0
 18 20  1  0  0  0  0
  1 21  1  0  0  0  0
 18 21  1  0  0  0  0
 21 22  1  0  0  0  0
 21 23  1  0  0  0  0
 13 24  1  0  0  0  0
 24 25  1  0  0  0  0
M  END
> <VConfSearch Rank>
320

> <Conf_Id>
161

> <Delta U+W>
2.120

> <U+W>
13.033

> <U>
15.076

> <W>
-2.043

> <W(PB)>
-4.186

> <W(SA)>
2.143

> <Valence>
18.884

> <Coulomb>
-8.074

> <VdW>
4.266

> <VdW6>
-13.486

> <VdW12>
17.752

> <Bond>
0.713

> <Angle>
8.955

> <Pdih>
9.215

> <Idih>
0.000

> <Tether>
0.000

$$$$
VeraChem MOL file


 25 25  0  0  0  0  0  0  0  0999 V2000     
   20.2186   19.8221   20.7582 C   0  0  0  0  0  0  0  0  0  0  0  0
   19.9369   20.2770   19.7987 H   0  0  0  0  0  0  0  0  0  0  0  0
   21.0408   19.1382   20.5125 H   0  0  0  0  0  0  0  0  0  0  0  0
   19.0020   19.0192   21.2826 C   0  0  0  0  0  0  0  0  0  0  0  0
   18.3256   19.6662   21.8570 H   0  0  0  0  0  0  0  0  0  0  0  0
   18.4248   18.7050   20.4021 H   0  0  0  0  0  0  0  0  0  0  0  0
   19.3528   17.7287   22.0742 C   0  0  0  0  0  0  0  0  0  0  0  0
   20.2268   17.2235   21.6415 H   0  0  0  0  0  0  0  0  0  0  0  0
   18.5152   17.0319   21.9320 H   0  0  0  0  0  0  0  0  0  0  0  0
   19.5256   17.9160   23.6037 C   0  0  0  0  0  0  0  0  0  0  0  0
   18.8379   18.6908   23.9639 H   0  0  0  0  0  0  0  0  0  0  0  0
   19.1912   16.9915   24.0927 H   0  0  0  0  0  0  0  0  0  0  0  0
   20.9689   18.1804   24.1027 C   0  0  0  0  0  0  0  0  0  0  0  0
   21.5442   17.2518   23.9787 H   0  0  0  0  0  0  0  0  0  0  0  0
   21.7488   19.3075   23.3870 C   0  0  0  0  0  0  0  0  0  0  0  0
   22.6442   19.5367   23.9802 H   0  0  0  0  0  0  0  0  0  0  0  0
   22.1407   18.9227   22.4393 H   0  0  0  0  0  0  0  0  0  0  0  0
   20.9471   20.6178   23.1640 C   0  0  0  0  0  0  0  0  0  0  0  0
   21.4911   21.4490   23.6330 H   0  0  0  0  0  0  0  0  0  0  0  0
   19.9815   20.5858   23.6813 H   0  0  0  0  0  0  0  0  0  0  0  0
   20.7179   20.9703   21.6747 C   0  0  0  0  0  0  0  0  0  0  0  0
   21.6562   21.3587   21.2557 H   0  0  0  0  0  0  0  0  0  0  0  0
   20.0017   21.8017   21.6244 H   0  0  0  0  0  0  0  0  0  0  0  0
   20.9033   18.4965   25.4862 O   0  0  0  0  0  0  0  0  0  0  0  0
   20.5092   19.3908   25.5383 H   0  0  0  0  0  0  0  0  0  0  0  0
  1  2  1  0  0  0  0
  1  3  1  0  0  0  0
  1  4  1  0  0  0  0
  4  5  1  0  0  0  0
  4  6  1  0  0  0  0
  4  7  1  0  0  0  0
  7  8  1  0  0  0  0
  7  9  1  0  0  0  0
  7 10  1  0  0  0  0
 10 11  1  0  0  0  0
 10 12  1  0  0  0  0
 10 13  1  0  0  0  0
 13 14  1  0  0  0  0
 13 15  1  0  0  0  0
 15 16  1  0  0  0  0
 15 17  1  0  0  0  0
 15 18  1  0  0  0  0
 18 19  1  0  0  0  0
 18 20  1  0  0  0  0
  1 21  1  0  0  0  0
 18 21  1  0  0  0  0
 21 22  1  0  0  0  0
 21 23  1  0  0  0  0
 13 24  1  0  0  0  0
 24 25  1  0  0  0  0
M  END
> <VConfSearch Rank>
321

> <Conf_Id>
164

> <Delta U+W>
0.008

> <U+W>
10.922

> <U>
12.433

> <W>
-1.511

> <W(PB)>
-3.669

> <W(SA)>
2.157

> <Valence>
19.007

> <Coulomb>
-9.373

> <VdW>
2.799

> <VdW6>
-12.597

> <VdW12>
15.396

> <Bond>
0.425

> <Angle>
4.784

> <Pdih>
13.799

> <Idih>
0.000

> <Tether>
0.000

$$$$
VeraChem MOL file


 25 25  0  0  0  0  0  0  0  0999 V2000     
   19.2084   20.1051   21.5004 C   0  0  0  0  0  0  0  0  0  0  0  0
   19.4142   19.1488   21.0062 H   0  0  0  0  0  0  0  0  0  0  0  0
   18.5422   20.6365   20.8072 H   0  0  0  0  0  0  0  0  0  0  0  0
   20.5068   20.9411   21.6221 C   0  0  0  0  0  0  0  0  0  0  0  0
   20.8828   21.1146   20.6045 H   0  0  0  0  0  0  0  0  0  0  0  0
   20.2624   21.9347   22.0216 H   0  0  0  0  0  0  0  0  0  0  0  0
   21.6629   20.3337   22.4570 C   0  0  0  0  0  0  0  0  0  0  0  0
   21.5135   20.5338   23.5241 H   0  0  0  0  0  0  0  0  0  0  0  0
   22.5753   20.8887   22.1987 H   0  0  0  0  0  0  0  0  0  0  0  0
   21.9304   18.8237   22.2185 C   0  0  0  0  0  0  0  0  0  0  0  0
   21.5775   18.5143   21.2272 H   0  0  0  0  0  0  0  0  0  0  0  0
   23.0196   18.6850   22.1951 H   0  0  0  0  0  0  0  0  0  0  0  0
   21.3782   17.8821   23.3181 C   0  0  0  0  0  0  0  0  0  0  0  0
   21.7530   18.2338   24.2899 H   0  0  0  0  0  0  0  0  0  0  0  0
   19.8368   17.7562   23.4122 C   0  0  0  0  0  0  0  0  0  0  0  0
   19.4151   17.4117   22.4602 H   0  0  0  0  0  0  0  0  0  0  0  0
   19.6241   16.9537   24.1312 H   0  0  0  0  0  0  0  0  0  0  0  0
   19.1070   19.0305   23.9144 C   0  0  0  0  0  0  0  0  0  0  0  0
   19.7851   19.6525   24.5097 H   0  0  0  0  0  0  0  0  0  0  0  0
   18.3253   18.7217   24.6219 H   0  0  0  0  0  0  0  0  0  0  0  0
   18.4182   19.8762   22.8130 C   0  0  0  0  0  0  0  0  0  0  0  0
   18.1303   20.8476   23.2373 H   0  0  0  0  0  0  0  0  0  0  0  0
   17.4761   19.3776   22.5469 H   0  0  0  0  0  0  0  0  0  0  0  0
   21.9025   16.5837   23.0766 O   0  0  0  0  0  0  0  0  0  0  0  0
   21.5511   16.3013   22.2074 H   0  0  0  0  0  0  0  0  0  0  0  0
  1  2  1  0  0  0  0
  1  3  1  0  0  0  0
  1  4  1  0  0  0  0
  4  5  1  0  0  0  0
  4  6  1  0  0  0  0
  4  7  1  0  0  0  0
  7  8  1  0  0  0  0
  7  9  1  0  0  0  0
  7 10  1  0  0  0  0
 10 11  1  0  0  0  0
 10 12  1  0  0  0  0
 10 13  1  0  0  0  0
 13 14  1  0  0  0  0
 13 15  1  0  0  0  0
 15 16  1  0  0  0  0
 15 17  1  0  0  0  0
 15 18  1  0  0  0  0
 18 19  1  0  0  0  0
 18 20  1  0  0  0  0
  1 21  1  0  0  0  0
 18 21  1  0  0  0  0
 21 22  1  0  0  0  0
 21 23  1  0  0  0  0
 13 24  1  0  0  0  0
 24 25  1  0  0  0  0
M  END
> <VConfSearch Rank>
322

> <Conf_Id>
15

> <Delta U+W>
-1.271

> <U+W>
9.643

> <U>
11.413

> <W>
-1.770

> <W(PB)>
-3.908

> <W(SA)>
2.138

> <Valence>
17.496

> <Coulomb>
-8.736

> <VdW>
2.653

> <VdW6>
-12.485

> <VdW12>
15.138

> <Bond>
0.414

> <Angle>
5.295

> <Pdih>
11.787

> <Idih>
0.000

> <Tether>
0.000

$$$$
VeraChem MOL file


 25 25  0  0  0  0  0  0  0  0999 V2000     
   21.6478   18.2984   23.6963 C   0  0  0  0  0  0  0  0  0  0  0  0
   22.5318   17.8586   24.1781 H   0  0  0  0  0  0  0  0  0  0  0  0
   20.8470   17.5660   23.8596 H   0  0  0  0  0  0  0  0  0  0  0  0
   21.3377   19.6232   24.4416 C   0  0  0  0  0  0  0  0  0  0  0  0
   21.0231   19.3736   25.4641 H   0  0  0  0  0  0  0  0  0  0  0  0
   22.2682   20.1976   24.5475 H   0  0  0  0  0  0  0  0  0  0  0  0
   20.2690   20.5441   23.8050 C   0  0  0  0  0  0  0  0  0  0  0  0
   20.7126   21.0976   22.9692 H   0  0  0  0  0  0  0  0  0  0  0  0
   20.0010   21.3145   24.5408 H   0  0  0  0  0  0  0  0  0  0  0  0
   18.9782   19.8063   23.3635 C   0  0  0  0  0  0  0  0  0  0  0  0
   18.9761   18.7718   23.7243 H   0  0  0  0  0  0  0  0  0  0  0  0
   18.1210   20.2799   23.8596 H   0  0  0  0  0  0  0  0  0  0  0  0
   18.7108   19.8375   21.8410 C   0  0  0  0  0  0  0  0  0  0  0  0
   18.3758   20.8524   21.5832 H   0  0  0  0  0  0  0  0  0  0  0  0
   19.9130   19.5061   20.9193 C   0  0  0  0  0  0  0  0  0  0  0  0
   19.5168   19.4052   19.8999 H   0  0  0  0  0  0  0  0  0  0  0  0
   20.5920   20.3654   20.8648 H   0  0  0  0  0  0  0  0  0  0  0  0
   20.7193   18.2216   21.2495 C   0  0  0  0  0  0  0  0  0  0  0  0
   21.1088   17.8388   20.2961 H   0  0  0  0  0  0  0  0  0  0  0  0
   20.0636   17.4288   21.6321 H   0  0  0  0  0  0  0  0  0  0  0  0
   21.9444   18.4296   22.1819 C   0  0  0  0  0  0  0  0  0  0  0  0
   22.4529   19.3785   21.9645 H   0  0  0  0  0  0  0  0  0  0  0  0
   22.6722   17.6458   21.9306 H   0  0  0  0  0  0  0  0  0  0  0  0
   17.6600   18.9247   21.5565 O   0  0  0  0  0  0  0  0  0  0  0  0
   18.0317   18.0326   21.7087 H   0  0  0  0  0  0  0  0  0  0  0  0
  1  2  1  0  0  0  0
  1  3  1  0  0  0  0
  1  4  1  0  0  0  0
  4  5  1  0  0  0  0
  4  6  1  0  0  0  0
  4  7  1  0  0  0  0
  7  8  1  0  0  0  0
  7  9  1  0  0  0  0
  7 10  1  0  0  0  0
 10 11  1  0  0  0  0
 10 12  1  0  0  0  0
 10 13  1  0  0  0  0
 13 14  1  0  0  0  0
 13 15  1  0  0  0  0
 15 16  1  0  0  0  0
 15 17  1  0  0  0  0
 15 18  1  0  0  0  0
 18 19  1  0  0  0  0
 18 20  1  0  0  0  0
  1 21  1  0  0  0  0
 18 21  1  0  0  0  0
 21 22  1  0  0  0  0
 21 23  1  0  0  0  0
 13 24  1  0  0  0  0
 24 25  1  0  0  0  0
M  END
> <VConfSearch Rank>
323

> <Conf_Id>
115

> <Delta U+W>
0.038

> <U+W>
10.952

> <U>
12.526

> <W>
-1.575

> <W(PB)>
-3.698

> <W(SA)>
2.123

> <Valence>
19.016

> <Coulomb>
-9.226

> <VdW>
2.737

> <VdW6>
-12.612

> <VdW12>
15.349

> <Bond>
0.421

> <Angle>
4.883

> <Pdih>
13.711

> <Idih>
0.000

> <Tether>
0.000

$$$$
VeraChem MOL file


 25 25  0  0  0  0  0  0  0  0999 V2000     
   20.2687   21.0337   21.4724 C   0  0  0  0  0  0  0  0  0  0  0  0
   19.9471   22.0616   21.2557 H   0  0  0  0  0  0  0  0  0  0  0  0
   21.0814   20.8242   20.7638 H   0  0  0  0  0  0  0  0  0  0  0  0
   19.0648   20.1052   21.1894 C   0  0  0  0  0  0  0  0  0  0  0  0
   18.2096   20.3953   21.8147 H   0  0  0  0  0  0  0  0  0  0  0  0
   18.7473   20.2858   20.1533 H   0  0  0  0  0  0  0  0  0  0  0  0
   19.3502   18.5933   21.3430 C   0  0  0  0  0  0  0  0  0  0  0  0
   20.3305   18.3449   20.9147 H   0  0  0  0  0  0  0  0  0  0  0  0
   18.6177   18.0562   20.7249 H   0  0  0  0  0  0  0  0  0  0  0  0
   19.2138   18.0617   22.7951 C   0  0  0  0  0  0  0  0  0  0  0  0
   18.7077   18.7904   23.4407 H   0  0  0  0  0  0  0  0  0  0  0  0
   18.5483   17.1883   22.7627 H   0  0  0  0  0  0  0  0  0  0  0  0
   20.5459   17.6191   23.4413 C   0  0  0  0  0  0  0  0  0  0  0  0
   21.1815   17.1626   22.6692 H   0  0  0  0  0  0  0  0  0  0  0  0
   21.3338   18.7529   24.1342 C   0  0  0  0  0  0  0  0  0  0  0  0
   20.7361   19.1797   24.9505 H   0  0  0  0  0  0  0  0  0  0  0  0
   22.2127   18.3008   24.6124 H   0  0  0  0  0  0  0  0  0  0  0  0
   21.8388   19.8785   23.1990 C   0  0  0  0  0  0  0  0  0  0  0  0
   22.2274   19.4535   22.2639 H   0  0  0  0  0  0  0  0  0  0  0  0
   22.7049   20.3455   23.6879 H   0  0  0  0  0  0  0  0  0  0  0  0
   20.8023   20.9991   22.9238 C   0  0  0  0  0  0  0  0  0  0  0  0
   21.3006   21.9603   23.1112 H   0  0  0  0  0  0  0  0  0  0  0  0
   19.9688   20.9605   23.6377 H   0  0  0  0  0  0  0  0  0  0  0  0
   20.2516   16.6381   24.4286 O   0  0  0  0  0  0  0  0  0  0  0  0
   21.1102   16.3316   24.7881 H   0  0  0  0  0  0  0  0  0  0  0  0
  1  2  1  0  0  0  0
  1  3  1  0  0  0  0
  1  4  1  0  0  0  0
  4  5  1  0  0  0  0
  4  6  1  0  0  0  0
  4  7  1  0  0  0  0
  7  8  1  0  0  0  0
  7  9  1  0  0  0  0
  7 10  1  0  0  0  0
 10 11  1  0  0  0  0
 10 12  1  0  0  0  0
 10 13  1  0  0  0  0
 13 14  1  0  0  0  0
 13 15  1  0  0  0  0
 15 16  1  0  0  0  0
 15 17  1  0  0  0  0
 15 18  1  0  0  0  0
 18 19  1  0  0  0  0
 18 20  1  0  0  0  0
  1 21  1  0  0  0  0
 18 21  1  0  0  0  0
 21 22  1  0  0  0  0
 21 23  1  0  0  0  0
 13 24  1  0  0  0  0
 24 25  1  0  0  0  0
M  END
> <VConfSearch Rank>
324

> <Conf_Id>
30

> <Delta U+W>
0.000

> <U+W>
10.913

> <U>
13.140

> <W>
-2.227

> <W(PB)>
-4.367

> <W(SA)>
2.140

> <Valence>
19.155

> <Coulomb>
-8.157

> <VdW>
2.142

> <VdW6>
-11.576

> <VdW12>
13.718

> <Bond>
0.294

> <Angle>
3.547

> <Pdih>
15.314

> <Idih>
0.000

> <Tether>
0.000

$$$$
VeraChem MOL file


 25 25  0  0  0  0  0  0  0  0999 V2000     
   19.0023   19.6516   24.3051 C   0  0  0  0  0  0  0  0  0  0  0  0
   18.3862   19.0106   24.9504 H   0  0  0  0  0  0  0  0  0  0  0  0
   18.7939   20.6818   24.6244 H   0  0  0  0  0  0  0  0  0  0  0  0
   18.5163   19.4892   22.8438 C   0  0  0  0  0  0  0  0  0  0  0  0
   17.4178   19.5053   22.8488 H   0  0  0  0  0  0  0  0  0  0  0  0
   18.8032   20.3716   22.2601 H   0  0  0  0  0  0  0  0  0  0  0  0
   18.9887   18.1850   22.1527 C   0  0  0  0  0  0  0  0  0  0  0  0
   18.1077   17.6408   21.7862 H   0  0  0  0  0  0  0  0  0  0  0  0
   19.4573   17.5051   22.8736 H   0  0  0  0  0  0  0  0  0  0  0  0
   19.9440   18.4149   20.9542 C   0  0  0  0  0  0  0  0  0  0  0  0
   20.3668   17.4460   20.6572 H   0  0  0  0  0  0  0  0  0  0  0  0
   19.3499   18.7597   20.0978 H   0  0  0  0  0  0  0  0  0  0  0  0
   21.0981   19.4270   21.1634 C   0  0  0  0  0  0  0  0  0  0  0  0
   20.6844   20.4435   21.2044 H   0  0  0  0  0  0  0  0  0  0  0  0
   21.9580   19.1914   22.4292 C   0  0  0  0  0  0  0  0  0  0  0  0
   22.0028   18.1206   22.6659 H   0  0  0  0  0  0  0  0  0  0  0  0
   22.9918   19.4807   22.1982 H   0  0  0  0  0  0  0  0  0  0  0  0
   21.5304   20.0172   23.6753 C   0  0  0  0  0  0  0  0  0  0  0  0
   21.1915   21.0221   23.3894 H   0  0  0  0  0  0  0  0  0  0  0  0
   22.4349   20.1756   24.2786 H   0  0  0  0  0  0  0  0  0  0  0  0
   20.4922   19.3281   24.5951 C   0  0  0  0  0  0  0  0  0  0  0  0
   20.6929   19.6459   25.6275 H   0  0  0  0  0  0  0  0  0  0  0  0
   20.6578   18.2433   24.6003 H   0  0  0  0  0  0  0  0  0  0  0  0
   21.9443   19.3406   20.0229 O   0  0  0  0  0  0  0  0  0  0  0  0
   22.6257   20.0377   20.1235 H   0  0  0  0  0  0  0  0  0  0  0  0
  1  2  1  0  0  0  0
  1  3  1  0  0  0  0
  1  4  1  0  0  0  0
  4  5  1  0  0  0  0
  4  6  1  0  0  0  0
  4  7  1  0  0  0  0
  7  8  1  0  0  0  0
  7  9  1  0  0  0  0
  7 10  1  0  0  0  0
 10 11  1  0  0  0  0
 10 12  1  0  0  0  0
 10 13  1  0  0  0  0
 13 14  1  0  0  0  0
 13 15  1  0  0  0  0
 15 16  1  0  0  0  0
 15 17  1  0  0  0  0
 15 18  1  0  0  0  0
 18 19  1  0  0  0  0
 18 20  1  0  0  0  0
  1 21  1  0  0  0  0
 18 21  1  0  0  0  0
 21 22  1  0  0  0  0
 21 23  1  0  0  0  0
 13 24  1  0  0  0  0
 24 25  1  0  0  0  0
M  END
> <VConfSearch Rank>
325

> <Conf_Id>
162

> <Delta U+W>
0.219

> <U+W>
11.132

> <U>
13.296

> <W>
-2.164

> <W(PB)>
-4.311

> <W(SA)>
2.148

> <Valence>
18.607

> <Coulomb>
-8.339

> <VdW>
3.028

> <VdW6>
-12.271

> <VdW12>
15.299

> <Bond>
0.423

> <Angle>
4.488

> <Pdih>
13.696

> <Idih>
0.000

> <Tether>
0.000

$$$$
VeraChem MOL file


 25 25  0  0  0  0  0  0  0  0999 V2000     
   20.9373   17.8039   21.3965 C   0  0  0  0  0  0  0  0  0  0  0  0
   21.5818   18.5552   20.9230 H   0  0  0  0  0  0  0  0  0  0  0  0
   21.1438   16.8736   20.8497 H   0  0  0  0  0  0  0  0  0  0  0  0
   21.3631   17.5961   22.8714 C   0  0  0  0  0  0  0  0  0  0  0  0
   20.5489   17.1419   23.4519 H   0  0  0  0  0  0  0  0  0  0  0  0
   22.1690   16.8494   22.8679 H   0  0  0  0  0  0  0  0  0  0  0  0
   21.9231   18.8593   23.5828 C   0  0  0  0  0  0  0  0  0  0  0  0
   22.5229   19.4695   22.8943 H   0  0  0  0  0  0  0  0  0  0  0  0
   22.6287   18.5061   24.3474 H   0  0  0  0  0  0  0  0  0  0  0  0
   20.8678   19.7291   24.3143 C   0  0  0  0  0  0  0  0  0  0  0  0
   20.0739   19.0909   24.7213 H   0  0  0  0  0  0  0  0  0  0  0  0
   21.3514   20.1740   25.1937 H   0  0  0  0  0  0  0  0  0  0  0  0
   20.2616   20.9023   23.5035 C   0  0  0  0  0  0  0  0  0  0  0  0
   21.0439   21.6649   23.3789 H   0  0  0  0  0  0  0  0  0  0  0  0
   19.7277   20.5566   22.0930 C   0  0  0  0  0  0  0  0  0  0  0  0
   19.1446   21.4092   21.7213 H   0  0  0  0  0  0  0  0  0  0  0  0
   20.5734   20.4825   21.4010 H   0  0  0  0  0  0  0  0  0  0  0  0
   18.8450   19.2822   22.0266 C   0  0  0  0  0  0  0  0  0  0  0  0
   17.8654   19.5525   21.6099 H   0  0  0  0  0  0  0  0  0  0  0  0
   18.6258   18.9050   23.0324 H   0  0  0  0  0  0  0  0  0  0  0  0
   19.4408   18.1429   21.1647 C   0  0  0  0  0  0  0  0  0  0  0  0
   19.3087   18.3975   20.1043 H   0  0  0  0  0  0  0  0  0  0  0  0
   18.8417   17.2373   21.3312 H   0  0  0  0  0  0  0  0  0  0  0  0
   19.1966   21.4545   24.2683 O   0  0  0  0  0  0  0  0  0  0  0  0
   18.8239   22.1912   23.7415 H   0  0  0  0  0  0  0  0  0  0  0  0
  1  2  1  0  0  0  0
  1  3  1  0  0  0  0
  1  4  1  0  0  0  0
  4  5  1  0  0  0  0
  4  6  1  0  0  0  0
  4  7  1  0  0  0  0
  7  8  1  0  0  0  0
  7  9  1  0  0  0  0
  7 10  1  0  0  0  0
 10 11  1  0  0  0  0
 10 12  1  0  0  0  0
 10 13  1  0  0  0  0
 13 14  1  0  0  0  0
 13 15  1  0  0  0  0
 15 16  1  0  0  0  0
 15 17  1  0  0  0  0
 15 18  1  0  0  0  0
 18 19  1  0  0  0  0
 18 20  1  0  0  0  0
  1 21  1  0  0  0  0
 18 21  1  0  0  0  0
 21 22  1  0  0  0  0
 21 23  1  0  0  0  0
 13 24  1  0  0  0  0
 24 25  1  0  0  0  0
M  END
> <VConfSearch Rank>
326

> <Conf_Id>
155

> <Delta U+W>
0.339

> <U+W>
11.252

> <U>
13.420

> <W>
-2.167

> <W(PB)>
-4.325

> <W(SA)>
2.157

> <Valence>
18.609

> <Coulomb>
-8.052

> <VdW>
2.863

> <VdW6>
-12.524

> <VdW12>
15.387

> <Bond>
0.430

> <Angle>
4.724

> <Pdih>
13.455

> <Idih>
0.000

> <Tether>
0.000

$$$$
VeraChem MOL file


 25 25  0  0  0  0  0  0  0  0999 V2000     
   18.5749   18.7500   23.4814 C   0  0  0  0  0  0  0  0  0  0  0  0
   18.2103   19.4668   24.2295 H   0  0  0  0  0  0  0  0  0  0  0  0
   17.7945   17.9801   23.4097 H   0  0  0  0  0  0  0  0  0  0  0  0
   18.6481   19.4480   22.0978 C   0  0  0  0  0  0  0  0  0  0  0  0
   18.8981   18.7070   21.3319 H   0  0  0  0  0  0  0  0  0  0  0  0
   17.6298   19.7609   21.8298 H   0  0  0  0  0  0  0  0  0  0  0  0
   19.5600   20.7033   21.9721 C   0  0  0  0  0  0  0  0  0  0  0  0
   18.9650   21.5741   22.2791 H   0  0  0  0  0  0  0  0  0  0  0  0
   19.7954   20.8675   20.9118 H   0  0  0  0  0  0  0  0  0  0  0  0
   20.8756   20.7391   22.7965 C   0  0  0  0  0  0  0  0  0  0  0  0
   21.3025   21.7449   22.6895 H   0  0  0  0  0  0  0  0  0  0  0  0
   20.6339   20.6842   23.8616 H   0  0  0  0  0  0  0  0  0  0  0  0
   21.9882   19.7093   22.4413 C   0  0  0  0  0  0  0  0  0  0  0  0
   22.6238   19.5833   23.3295 H   0  0  0  0  0  0  0  0  0  0  0  0
   21.5428   18.3018   21.9711 C   0  0  0  0  0  0  0  0  0  0  0  0
   20.9603   18.4004   21.0505 H   0  0  0  0  0  0  0  0  0  0  0  0
   22.4431   17.7608   21.6510 H   0  0  0  0  0  0  0  0  0  0  0  0
   20.8068   17.3896   22.9979 C   0  0  0  0  0  0  0  0  0  0  0  0
   21.5752   16.8535   23.5714 H   0  0  0  0  0  0  0  0  0  0  0  0
   20.2548   16.6132   22.4513 H   0  0  0  0  0  0  0  0  0  0  0  0
   19.8594   18.0600   24.0274 C   0  0  0  0  0  0  0  0  0  0  0  0
   20.4338   18.7479   24.6557 H   0  0  0  0  0  0  0  0  0  0  0  0
   19.5325   17.2828   24.7316 H   0  0  0  0  0  0  0  0  0  0  0  0
   22.7782   20.2644   21.3953 O   0  0  0  0  0  0  0  0  0  0  0  0
   23.1015   21.1319   21.7148 H   0  0  0  0  0  0  0  0  0  0  0  0
  1  2  1  0  0  0  0
  1  3  1  0  0  0  0
  1  4  1  0  0  0  0
  4  5  1  0  0  0  0
  4  6  1  0  0  0  0
  4  7  1  0  0  0  0
  7  8  1  0  0  0  0
  7  9  1  0  0  0  0
  7 10  1  0  0  0  0
 10 11  1  0  0  0  0
 10 12  1  0  0  0  0
 10 13  1  0  0  0  0
 13 14  1  0  0  0  0
 13 15  1  0  0  0  0
 15 16  1  0  0  0  0
 15 17  1  0  0  0  0
 15 18  1  0  0  0  0
 18 19  1  0  0  0  0
 18 20  1  0  0  0  0
  1 21  1  0  0  0  0
 18 21  1  0  0  0  0
 21 22  1  0  0  0  0
 21 23  1  0  0  0  0
 13 24  1  0  0  0  0
 24 25  1  0  0  0  0
M  END
> <VConfSearch Rank>
327

> <Conf_Id>
146

> <Delta U+W>
2.553

> <U+W>
13.466

> <U>
15.643

> <W>
-2.176

> <W(PB)>
-4.307

> <W(SA)>
2.131

> <Valence>
18.916

> <Coulomb>
-7.506

> <VdW>
4.232

> <VdW6>
-13.632

> <VdW12>
17.864

> <Bond>
0.735

> <Angle>
9.140

> <Pdih>
9.042

> <Idih>
0.000

> <Tether>
0.000

$$$$
VeraChem MOL file


 25 25  0  0  0  0  0  0  0  0999 V2000     
   21.8479   20.6296   22.8917 C   0  0  0  0  0  0  0  0  0  0  0  0
   22.3486   20.8046   23.8536 H   0  0  0  0  0  0  0  0  0  0  0  0
   22.3306   21.3115   22.1783 H   0  0  0  0  0  0  0  0  0  0  0  0
   20.3622   21.0540   23.0040 C   0  0  0  0  0  0  0  0  0  0  0  0
   20.3468   22.1251   23.2476 H   0  0  0  0  0  0  0  0  0  0  0  0
   19.8716   20.9868   22.0262 H   0  0  0  0  0  0  0  0  0  0  0  0
   19.5241   20.3251   24.0841 C   0  0  0  0  0  0  0  0  0  0  0  0
   18.5393   20.8106   24.1220 H   0  0  0  0  0  0  0  0  0  0  0  0
   19.9773   20.4935   25.0704 H   0  0  0  0  0  0  0  0  0  0  0  0
   19.2953   18.8035   23.8883 C   0  0  0  0  0  0  0  0  0  0  0  0
   20.1637   18.2396   24.2433 H   0  0  0  0  0  0  0  0  0  0  0  0
   18.4821   18.5097   24.5656 H   0  0  0  0  0  0  0  0  0  0  0  0
   18.9316   18.3731   22.4438 C   0  0  0  0  0  0  0  0  0  0  0  0
   18.5526   19.2397   21.8857 H   0  0  0  0  0  0  0  0  0  0  0  0
   20.1038   17.7304   21.6598 C   0  0  0  0  0  0  0  0  0  0  0  0
   20.5020   16.8846   22.2359 H   0  0  0  0  0  0  0  0  0  0  0  0
   19.6967   17.2956   20.7376 H   0  0  0  0  0  0  0  0  0  0  0  0
   21.2723   18.6679   21.2509 C   0  0  0  0  0  0  0  0  0  0  0  0
   20.9065   19.5028   20.6394 H   0  0  0  0  0  0  0  0  0  0  0  0
   21.9280   18.0908   20.5846 H   0  0  0  0  0  0  0  0  0  0  0  0
   22.1404   19.1785   22.4300 C   0  0  0  0  0  0  0  0  0  0  0  0
   23.1933   19.1457   22.1181 H   0  0  0  0  0  0  0  0  0  0  0  0
   22.0856   18.4852   23.2768 H   0  0  0  0  0  0  0  0  0  0  0  0
   17.8920   17.4042   22.5199 O   0  0  0  0  0  0  0  0  0  0  0  0
   17.6367   17.1896   21.5985 H   0  0  0  0  0  0  0  0  0  0  0  0
  1  2  1  0  0  0  0
  1  3  1  0  0  0  0
  1  4  1  0  0  0  0
  4  5  1  0  0  0  0
  4  6  1  0  0  0  0
  4  7  1  0  0  0  0
  7  8  1  0  0  0  0
  7  9  1  0  0  0  0
  7 10  1  0  0  0  0
 10 11  1  0  0  0  0
 10 12  1  0  0  0  0
 10 13  1  0  0  0  0
 13 14  1  0  0  0  0
 13 15  1  0  0  0  0
 15 16  1  0  0  0  0
 15 17  1  0  0  0  0
 15 18  1  0  0  0  0
 18 19  1  0  0  0  0
 18 20  1  0  0  0  0
  1 21  1  0  0  0  0
 18 21  1  0  0  0  0
 21 22  1  0  0  0  0
 21 23  1  0  0  0  0
 13 24  1  0  0  0  0
 24 25  1  0  0  0  0
M  END
> <VConfSearch Rank>
328

> <Conf_Id>
62

> <Delta U+W>
-1.779

> <U+W>
9.134

> <U>
11.364

> <W>
-2.230

> <W(PB)>
-4.359

> <W(SA)>
2.129

> <Valence>
16.582

> <Coulomb>
-8.150

> <VdW>
2.933

> <VdW6>
-12.531

> <VdW12>
15.464

> <Bond>
0.439

> <Angle>
5.099

> <Pdih>
11.044

> <Idih>
0.000

> <Tether>
0.000

$$$$
VeraChem MOL file


 25 25  0  0  0  0  0  0  0  0999 V2000     
   20.8698   17.4779   22.1464 C   0  0  0  0  0  0  0  0  0  0  0  0
   21.7214   17.8403   22.7334 H   0  0  0  0  0  0  0  0  0  0  0  0
   21.1673   16.4723   21.8194 H   0  0  0  0  0  0  0  0  0  0  0  0
   20.6856   18.3402   20.8728 C   0  0  0  0  0  0  0  0  0  0  0  0
   21.6109   18.2618   20.2859 H   0  0  0  0  0  0  0  0  0  0  0  0
   19.8985   17.8989   20.2466 H   0  0  0  0  0  0  0  0  0  0  0  0
   20.3805   19.8462   21.0772 C   0  0  0  0  0  0  0  0  0  0  0  0
   19.3107   20.0009   21.2579 H   0  0  0  0  0  0  0  0  0  0  0  0
   20.5724   20.3482   20.1190 H   0  0  0  0  0  0  0  0  0  0  0  0
   21.2254   20.5513   22.1718 C   0  0  0  0  0  0  0  0  0  0  0  0
   22.1716   20.0229   22.3414 H   0  0  0  0  0  0  0  0  0  0  0  0
   21.5105   21.5355   21.7774 H   0  0  0  0  0  0  0  0  0  0  0  0
   20.4879   20.7882   23.5139 C   0  0  0  0  0  0  0  0  0  0  0  0
   19.5444   21.3112   23.3011 H   0  0  0  0  0  0  0  0  0  0  0  0
   20.1603   19.5269   24.3516 C   0  0  0  0  0  0  0  0  0  0  0  0
   21.0768   18.9714   24.5847 H   0  0  0  0  0  0  0  0  0  0  0  0
   19.7810   19.8766   25.3210 H   0  0  0  0  0  0  0  0  0  0  0  0
   19.0798   18.5952   23.7400 C   0  0  0  0  0  0  0  0  0  0  0  0
   18.4303   19.1559   23.0584 H   0  0  0  0  0  0  0  0  0  0  0  0
   18.4119   18.2679   24.5486 H   0  0  0  0  0  0  0  0  0  0  0  0
   19.6211   17.3176   23.0490 C   0  0  0  0  0  0  0  0  0  0  0  0
   18.8108   16.8554   22.4689 H   0  0  0  0  0  0  0  0  0  0  0  0
   19.8744   16.5928   23.8348 H   0  0  0  0  0  0  0  0  0  0  0  0
   21.3073   21.6317   24.3136 O   0  0  0  0  0  0  0  0  0  0  0  0
   21.4515   22.4545   23.8013 H   0  0  0  0  0  0  0  0  0  0  0  0
  1  2  1  0  0  0  0
  1  3  1  0  0  0  0
  1  4  1  0  0  0  0
  4  5  1  0  0  0  0
  4  6  1  0  0  0  0
  4  7  1  0  0  0  0
  7  8  1  0  0  0  0
  7  9  1  0  0  0  0
  7 10  1  0  0  0  0
 10 11  1  0  0  0  0
 10 12  1  0  0  0  0
 10 13  1  0  0  0  0
 13 14  1  0  0  0  0
 13 15  1  0  0  0  0
 15 16  1  0  0  0  0
 15 17  1  0  0  0  0
 15 18  1  0  0  0  0
 18 19  1  0  0  0  0
 18 20  1  0  0  0  0
  1 21  1  0  0  0  0
 18 21  1  0  0  0  0
 21 22  1  0  0  0  0
 21 23  1  0  0  0  0
 13 24  1  0  0  0  0
 24 25  1  0  0  0  0
M  END
> <VConfSearch Rank>
329

> <Conf_Id>
121

> <Delta U+W>
-1.283

> <U+W>
9.630

> <U>
11.876

> <W>
-2.246

> <W(PB)>
-4.376

> <W(SA)>
2.130

> <Valence>
17.153

> <Coulomb>
-7.966

> <VdW>
2.689

> <VdW6>
-12.458

> <VdW12>
15.147

> <Bond>
0.421

> <Angle>
5.258

> <Pdih>
11.475

> <Idih>
0.000

> <Tether>
0.000

$$$$
VeraChem MOL file


 25 25  0  0  0  0  0  0  0  0999 V2000     
   19.1941   20.6585   23.1170 C   0  0  0  0  0  0  0  0  0  0  0  0
   18.9375   20.4215   22.0782 H   0  0  0  0  0  0  0  0  0  0  0  0
   18.5077   21.4704   23.3931 H   0  0  0  0  0  0  0  0  0  0  0  0
   20.6338   21.2242   23.2020 C   0  0  0  0  0  0  0  0  0  0  0  0
   20.6660   22.1343   22.5875 H   0  0  0  0  0  0  0  0  0  0  0  0
   20.8344   21.5532   24.2305 H   0  0  0  0  0  0  0  0  0  0  0  0
   21.7858   20.2975   22.7362 C   0  0  0  0  0  0  0  0  0  0  0  0
   22.0802   19.6148   23.5413 H   0  0  0  0  0  0  0  0  0  0  0  0
   22.6684   20.9324   22.5781 H   0  0  0  0  0  0  0  0  0  0  0  0
   21.5151   19.5097   21.4264 C   0  0  0  0  0  0  0  0  0  0  0  0
   20.7655   20.0166   20.8067 H   0  0  0  0  0  0  0  0  0  0  0  0
   22.4398   19.5302   20.8345 H   0  0  0  0  0  0  0  0  0  0  0  0
   21.1390   18.0199   21.6240 C   0  0  0  0  0  0  0  0  0  0  0  0
   21.9123   17.5527   22.2508 H   0  0  0  0  0  0  0  0  0  0  0  0
   19.7572   17.7376   22.2662 C   0  0  0  0  0  0  0  0  0  0  0  0
   18.9567   18.1956   21.6723 H   0  0  0  0  0  0  0  0  0  0  0  0
   19.5820   16.6557   22.2021 H   0  0  0  0  0  0  0  0  0  0  0  0
   19.6388   18.1332   23.7624 C   0  0  0  0  0  0  0  0  0  0  0  0
   20.6275   18.1521   24.2347 H   0  0  0  0  0  0  0  0  0  0  0  0
   19.0991   17.3330   24.2873 H   0  0  0  0  0  0  0  0  0  0  0  0
   18.8779   19.4550   24.0396 C   0  0  0  0  0  0  0  0  0  0  0  0
   19.0407   19.7472   25.0858 H   0  0  0  0  0  0  0  0  0  0  0  0
   17.8025   19.2478   23.9530 H   0  0  0  0  0  0  0  0  0  0  0  0
   21.1541   17.4016   20.3434 O   0  0  0  0  0  0  0  0  0  0  0  0
   20.9825   16.4477   20.4876 H   0  0  0  0  0  0  0  0  0  0  0  0
  1  2  1  0  0  0  0
  1  3  1  0  0  0  0
  1  4  1  0  0  0  0
  4  5  1  0  0  0  0
  4  6  1  0  0  0  0
  4  7  1  0  0  0  0
  7  8  1  0  0  0  0
  7  9  1  0  0  0  0
  7 10  1  0  0  0  0
 10 11  1  0  0  0  0
 10 12  1  0  0  0  0
 10 13  1  0  0  0  0
 13 14  1  0  0  0  0
 13 15  1  0  0  0  0
 15 16  1  0  0  0  0
 15 17  1  0  0  0  0
 15 18  1  0  0  0  0
 18 19  1  0  0  0  0
 18 20  1  0  0  0  0
  1 21  1  0  0  0  0
 18 21  1  0  0  0  0
 21 22  1  0  0  0  0
 21 23  1  0  0  0  0
 13 24  1  0  0  0  0
 24 25  1  0  0  0  0
M  END
> <VConfSearch Rank>
330

> <Conf_Id>
24

> <Delta U+W>
-1.236

> <U+W>
9.678

> <U>
11.876

> <W>
-2.199

> <W(PB)>
-4.335

> <W(SA)>
2.137

> <Valence>
17.153

> <Coulomb>
-7.966

> <VdW>
2.689

> <VdW6>
-12.458

> <VdW12>
15.147

> <Bond>
0.421

> <Angle>
5.258

> <Pdih>
11.475

> <Idih>
0.000

> <Tether>
0.000

$$$$
VeraChem MOL file


 25 25  0  0  0  0  0  0  0  0999 V2000     
   21.3355   17.3843   22.1928 C   0  0  0  0  0  0  0  0  0  0  0  0
   21.5274   16.5990   22.9366 H   0  0  0  0  0  0  0  0  0  0  0  0
   21.8491   17.0586   21.2779 H   0  0  0  0  0  0  0  0  0  0  0  0
   19.8133   17.4319   21.8946 C   0  0  0  0  0  0  0  0  0  0  0  0
   19.6210   17.9528   20.9481 H   0  0  0  0  0  0  0  0  0  0  0  0
   19.4905   16.3973   21.7145 H   0  0  0  0  0  0  0  0  0  0  0  0
   18.9196   18.0211   23.0139 C   0  0  0  0  0  0  0  0  0  0  0  0
   19.3199   17.7700   24.0055 H   0  0  0  0  0  0  0  0  0  0  0  0
   17.9509   17.5063   22.9524 H   0  0  0  0  0  0  0  0  0  0  0  0
   18.6293   19.5440   22.8944 C   0  0  0  0  0  0  0  0  0  0  0  0
   18.5179   19.8390   21.8432 H   0  0  0  0  0  0  0  0  0  0  0  0
   17.6453   19.7122   23.3532 H   0  0  0  0  0  0  0  0  0  0  0  0
   19.6486   20.4626   23.6115 C   0  0  0  0  0  0  0  0  0  0  0  0
   20.0746   19.9139   24.4619 H   0  0  0  0  0  0  0  0  0  0  0  0
   20.7979   21.0010   22.7221 C   0  0  0  0  0  0  0  0  0  0  0  0
   20.4012   21.7582   22.0332 H   0  0  0  0  0  0  0  0  0  0  0  0
   21.5049   21.5285   23.3759 H   0  0  0  0  0  0  0  0  0  0  0  0
   21.5870   19.9579   21.8915 C   0  0  0  0  0  0  0  0  0  0  0  0
   22.4953   20.4434   21.5094 H   0  0  0  0  0  0  0  0  0  0  0  0
   21.0154   19.6899   20.9953 H   0  0  0  0  0  0  0  0  0  0  0  0
   21.9968   18.6937   22.6885 C   0  0  0  0  0  0  0  0  0  0  0  0
   21.8022   18.8217   23.7597 H   0  0  0  0  0  0  0  0  0  0  0  0
   23.0861   18.5712   22.6168 H   0  0  0  0  0  0  0  0  0  0  0  0
   18.9505   21.5895   24.1257 O   0  0  0  0  0  0  0  0  0  0  0  0
   18.5628   22.0510   23.3539 H   0  0  0  0  0  0  0  0  0  0  0  0
  1  2  1  0  0  0  0
  1  3  1  0  0  0  0
  1  4  1  0  0  0  0
  4  5  1  0  0  0  0
  4  6  1  0  0  0  0
  4  7  1  0  0  0  0
  7  8  1  0  0  0  0
  7  9  1  0  0  0  0
  7 10  1  0  0  0  0
 10 11  1  0  0  0  0
 10 12  1  0  0  0  0
 10 13  1  0  0  0  0
 13 14  1  0  0  0  0
 13 15  1  0  0  0  0
 15 16  1  0  0  0  0
 15 17  1  0  0  0  0
 15 18  1  0  0  0  0
 18 19  1  0  0  0  0
 18 20  1  0  0  0  0
  1 21  1  0  0  0  0
 18 21  1  0  0  0  0
 21 22  1  0  0  0  0
 21 23  1  0  0  0  0
 13 24  1  0  0  0  0
 24 25  1  0  0  0  0
M  END
> <VConfSearch Rank>
331

> <Conf_Id>
167

> <Delta U+W>
0.388

> <U+W>
11.301

> <U>
13.202

> <W>
-1.901

> <W(PB)>
-4.065

> <W(SA)>
2.163

> <Valence>
18.957

> <Coulomb>
-8.753

> <VdW>
2.998

> <VdW6>
-12.294

> <VdW12>
15.292

> <Bond>
0.419

> <Angle>
4.543

> <Pdih>
13.996

> <Idih>
0.000

> <Tether>
0.000

$$$$
VeraChem MOL file


 25 25  0  0  0  0  0  0  0  0999 V2000     
   19.1449   18.8944   24.3256 C   0  0  0  0  0  0  0  0  0  0  0  0
   19.4756   18.2146   25.1225 H   0  0  0  0  0  0  0  0  0  0  0  0
   18.1771   19.2929   24.6595 H   0  0  0  0  0  0  0  0  0  0  0  0
   18.8961   18.0715   23.0348 C   0  0  0  0  0  0  0  0  0  0  0  0
   19.6765   17.3135   22.9032 H   0  0  0  0  0  0  0  0  0  0  0  0
   17.9771   17.4912   23.1952 H   0  0  0  0  0  0  0  0  0  0  0  0
   18.7203   18.9027   21.7375 C   0  0  0  0  0  0  0  0  0  0  0  0
   18.3581   19.9140   21.9628 H   0  0  0  0  0  0  0  0  0  0  0  0
   17.9175   18.4345   21.1517 H   0  0  0  0  0  0  0  0  0  0  0  0
   19.9748   18.9578   20.8234 C   0  0  0  0  0  0  0  0  0  0  0  0
   20.2934   17.9361   20.5789 H   0  0  0  0  0  0  0  0  0  0  0  0
   19.6690   19.4086   19.8699 H   0  0  0  0  0  0  0  0  0  0  0  0
   21.1911   19.7582   21.3520 C   0  0  0  0  0  0  0  0  0  0  0  0
   20.8634   20.7697   21.6268 H   0  0  0  0  0  0  0  0  0  0  0  0
   21.9113   19.0948   22.5545 C   0  0  0  0  0  0  0  0  0  0  0  0
   21.6941   18.0221   22.5783 H   0  0  0  0  0  0  0  0  0  0  0  0
   22.9980   19.1487   22.4057 H   0  0  0  0  0  0  0  0  0  0  0  0
   21.6068   19.7336   23.9343 C   0  0  0  0  0  0  0  0  0  0  0  0
   22.1919   20.6600   24.0140 H   0  0  0  0  0  0  0  0  0  0  0  0
   21.9869   19.0724   24.7248 H   0  0  0  0  0  0  0  0  0  0  0  0
   20.1280   20.0882   24.2314 C   0  0  0  0  0  0  0  0  0  0  0  0
   19.7581   20.8303   23.5147 H   0  0  0  0  0  0  0  0  0  0  0  0
   20.1057   20.6055   25.2003 H   0  0  0  0  0  0  0  0  0  0  0  0
   22.1220   19.8695   20.2819 O   0  0  0  0  0  0  0  0  0  0  0  0
   22.8545   20.4349   20.6047 H   0  0  0  0  0  0  0  0  0  0  0  0
  1  2  1  0  0  0  0
  1  3  1  0  0  0  0
  1  4  1  0  0  0  0
  4  5  1  0  0  0  0
  4  6  1  0  0  0  0
  4  7  1  0  0  0  0
  7  8  1  0  0  0  0
  7  9  1  0  0  0  0
  7 10  1  0  0  0  0
 10 11  1  0  0  0  0
 10 12  1  0  0  0  0
 10 13  1  0  0  0  0
 13 14  1  0  0  0  0
 13 15  1  0  0  0  0
 15 16  1  0  0  0  0
 15 17  1  0  0  0  0
 15 18  1  0  0  0  0
 18 19  1  0  0  0  0
 18 20  1  0  0  0  0
  1 21  1  0  0  0  0
 18 21  1  0  0  0  0
 21 22  1  0  0  0  0
 21 23  1  0  0  0  0
 13 24  1  0  0  0  0
 24 25  1  0  0  0  0
M  END
> <VConfSearch Rank>
332

> <Conf_Id>
60

> <Delta U+W>
-1.838

> <U+W>
9.075

> <U>
11.150

> <W>
-2.074

> <W(PB)>
-4.196

> <W(SA)>
2.121

> <Valence>
16.582

> <Coulomb>
-8.361

> <VdW>
2.928

> <VdW6>
-12.539

> <VdW12>
15.467

> <Bond>
0.441

> <Angle>
5.093

> <Pdih>
11.049

> <Idih>
0.000

> <Tether>
0.000

$$$$
VeraChem MOL file


 25 25  0  0  0  0  0  0  0  0999 V2000     
   21.5872   17.5961   23.0063 C   0  0  0  0  0  0  0  0  0  0  0  0
   21.3608   16.5916   22.6239 H   0  0  0  0  0  0  0  0  0  0  0  0
   22.5253   17.4940   23.5689 H   0  0  0  0  0  0  0  0  0  0  0  0
   20.4886   18.0192   24.0136 C   0  0  0  0  0  0  0  0  0  0  0  0
   20.5035   17.2914   24.8363 H   0  0  0  0  0  0  0  0  0  0  0  0
   20.7515   18.9730   24.4852 H   0  0  0  0  0  0  0  0  0  0  0  0
   19.0399   18.0632   23.4658 C   0  0  0  0  0  0  0  0  0  0  0  0
   18.3709   18.2619   24.3143 H   0  0  0  0  0  0  0  0  0  0  0  0
   18.7622   17.0673   23.0948 H   0  0  0  0  0  0  0  0  0  0  0  0
   18.7379   19.1125   22.3647 C   0  0  0  0  0  0  0  0  0  0  0  0
   19.0600   18.7386   21.3877 H   0  0  0  0  0  0  0  0  0  0  0  0
   17.6455   19.1876   22.2803 H   0  0  0  0  0  0  0  0  0  0  0  0
   19.3349   20.5207   22.6202 C   0  0  0  0  0  0  0  0  0  0  0  0
   19.5739   20.6355   23.6860 H   0  0  0  0  0  0  0  0  0  0  0  0
   20.5989   20.8334   21.7811 C   0  0  0  0  0  0  0  0  0  0  0  0
   20.3713   20.6874   20.7171 H   0  0  0  0  0  0  0  0  0  0  0  0
   20.8159   21.9040   21.8931 H   0  0  0  0  0  0  0  0  0  0  0  0
   21.8924   20.0542   22.1441 C   0  0  0  0  0  0  0  0  0  0  0  0
   22.1635   20.2179   23.1951 H   0  0  0  0  0  0  0  0  0  0  0  0
   22.7101   20.5030   21.5638 H   0  0  0  0  0  0  0  0  0  0  0  0
   21.8573   18.5410   21.8065 C   0  0  0  0  0  0  0  0  0  0  0  0
   22.8351   18.2616   21.3906 H   0  0  0  0  0  0  0  0  0  0  0  0
   21.1499   18.3447   20.9930 H   0  0  0  0  0  0  0  0  0  0  0  0
   18.3506   21.4899   22.2800 O   0  0  0  0  0  0  0  0  0  0  0  0
   17.5814   21.3261   22.8649 H   0  0  0  0  0  0  0  0  0  0  0  0
  1  2  1  0  0  0  0
  1  3  1  0  0  0  0
  1  4  1  0  0  0  0
  4  5  1  0  0  0  0
  4  6  1  0  0  0  0
  4  7  1  0  0  0  0
  7  8  1  0  0  0  0
  7  9  1  0  0  0  0
  7 10  1  0  0  0  0
 10 11  1  0  0  0  0
 10 12  1  0  0  0  0
 10 13  1  0  0  0  0
 13 14  1  0  0  0  0
 13 15  1  0  0  0  0
 15 16  1  0  0  0  0
 15 17  1  0  0  0  0
 15 18  1  0  0  0  0
 18 19  1  0  0  0  0
 18 20  1  0  0  0  0
  1 21  1  0  0  0  0
 18 21  1  0  0  0  0
 21 22  1  0  0  0  0
 21 23  1  0  0  0  0
 13 24  1  0  0  0  0
 24 25  1  0  0  0  0
M  END
> <VConfSearch Rank>
333

> <Conf_Id>
129

> <Delta U+W>
-1.846

> <U+W>
9.067

> <U>
11.150

> <W>
-2.083

> <W(PB)>
-4.217

> <W(SA)>
2.134

> <Valence>
16.583

> <Coulomb>
-8.361

> <VdW>
2.928

> <VdW6>
-12.539

> <VdW12>
15.467

> <Bond>
0.441

> <Angle>
5.093

> <Pdih>
11.049

> <Idih>
0.000

> <Tether>
0.000

$$$$
VeraChem MOL file


 25 25  0  0  0  0  0  0  0  0999 V2000     
   19.9619   20.8383   23.8853 C   0  0  0  0  0  0  0  0  0  0  0  0
   19.3491   20.7493   24.7925 H   0  0  0  0  0  0  0  0  0  0  0  0
   20.3071   21.8811   23.8624 H   0  0  0  0  0  0  0  0  0  0  0  0
   19.0667   20.6204   22.6399 C   0  0  0  0  0  0  0  0  0  0  0  0
   18.2965   21.4037   22.6514 H   0  0  0  0  0  0  0  0  0  0  0  0
   19.6367   20.8083   21.7228 H   0  0  0  0  0  0  0  0  0  0  0  0
   18.3345   19.2577   22.5554 C   0  0  0  0  0  0  0  0  0  0  0  0
   17.6579   19.2993   21.6908 H   0  0  0  0  0  0  0  0  0  0  0  0
   17.6870   19.1384   23.4346 H   0  0  0  0  0  0  0  0  0  0  0  0
   19.2185   17.9923   22.4054 C   0  0  0  0  0  0  0  0  0  0  0  0
   19.6003   17.6803   23.3829 H   0  0  0  0  0  0  0  0  0  0  0  0
   18.5553   17.1743   22.0931 H   0  0  0  0  0  0  0  0  0  0  0  0
   20.3833   18.1220   21.3900 C   0  0  0  0  0  0  0  0  0  0  0  0
   20.1784   18.9474   20.6953 H   0  0  0  0  0  0  0  0  0  0  0  0
   21.7738   18.3344   22.0397 C   0  0  0  0  0  0  0  0  0  0  0  0
   21.9691   17.5271   22.7576 H   0  0  0  0  0  0  0  0  0  0  0  0
   22.5306   18.2220   21.2517 H   0  0  0  0  0  0  0  0  0  0  0  0
   22.0232   19.7024   22.7307 C   0  0  0  0  0  0  0  0  0  0  0  0
   21.8770   20.5287   22.0232 H   0  0  0  0  0  0  0  0  0  0  0  0
   23.0886   19.7379   22.9963 H   0  0  0  0  0  0  0  0  0  0  0  0
   21.2108   19.9310   24.0317 C   0  0  0  0  0  0  0  0  0  0  0  0
   21.8720   20.4090   24.7675 H   0  0  0  0  0  0  0  0  0  0  0  0
   20.9407   18.9731   24.4903 H   0  0  0  0  0  0  0  0  0  0  0  0
   20.4498   16.9192   20.6343 O   0  0  0  0  0  0  0  0  0  0  0  0
   20.6369   16.2010   21.2733 H   0  0  0  0  0  0  0  0  0  0  0  0
  1  2  1  0  0  0  0
  1  3  1  0  0  0  0
  1  4  1  0  0  0  0
  4  5  1  0  0  0  0
  4  6  1  0  0  0  0
  4  7  1  0  0  0  0
  7  8  1  0  0  0  0
  7  9  1  0  0  0  0
  7 10  1  0  0  0  0
 10 11  1  0  0  0  0
 10 12  1  0  0  0  0
 10 13  1  0  0  0  0
 13 14  1  0  0  0  0
 13 15  1  0  0  0  0
 15 16  1  0  0  0  0
 15 17  1  0  0  0  0
 15 18  1  0  0  0  0
 18 19  1  0  0  0  0
 18 20  1  0  0  0  0
  1 21  1  0  0  0  0
 18 21  1  0  0  0  0
 21 22  1  0  0  0  0
 21 23  1  0  0  0  0
 13 24  1  0  0  0  0
 24 25  1  0  0  0  0
M  END
> <VConfSearch Rank>
334

> <Conf_Id>
140

> <Delta U+W>
-1.702

> <U+W>
9.211

> <U>
11.181

> <W>
-1.969

> <W(PB)>
-4.093

> <W(SA)>
2.124

> <Valence>
16.954

> <Coulomb>
-8.661

> <VdW>
2.887

> <VdW6>
-12.561

> <VdW12>
15.448

> <Bond>
0.433

> <Angle>
5.120

> <Pdih>
11.401

> <Idih>
0.000

> <Tether>
0.000

$$$$
VeraChem MOL file


 25 25  0  0  0  0  0  0  0  0999 V2000     
   20.9344   21.1174   22.9063 C   0  0  0  0  0  0  0  0  0  0  0  0
   20.5445   21.9323   22.2815 H   0  0  0  0  0  0  0  0  0  0  0  0
   21.6618   21.5857   23.5835 H   0  0  0  0  0  0  0  0  0  0  0  0
   21.7043   20.1176   22.0051 C   0  0  0  0  0  0  0  0  0  0  0  0
   21.1698   19.9571   21.0620 H   0  0  0  0  0  0  0  0  0  0  0  0
   22.6414   20.6077   21.7075 H   0  0  0  0  0  0  0  0  0  0  0  0
   22.0590   18.7614   22.6680 C   0  0  0  0  0  0  0  0  0  0  0  0
   22.1177   18.8586   23.7597 H   0  0  0  0  0  0  0  0  0  0  0  0
   23.0759   18.4942   22.3493 H   0  0  0  0  0  0  0  0  0  0  0  0
   21.1338   17.5801   22.2687 C   0  0  0  0  0  0  0  0  0  0  0  0
   21.1287   17.4800   21.1755 H   0  0  0  0  0  0  0  0  0  0  0  0
   21.5946   16.6590   22.6501 H   0  0  0  0  0  0  0  0  0  0  0  0
   19.6752   17.6269   22.7894 C   0  0  0  0  0  0  0  0  0  0  0  0
   19.6841   17.7576   23.8796 H   0  0  0  0  0  0  0  0  0  0  0  0
   18.8011   18.7297   22.1379 C   0  0  0  0  0  0  0  0  0  0  0  0
   19.2184   19.0215   21.1687 H   0  0  0  0  0  0  0  0  0  0  0  0
   17.8123   18.3145   21.9001 H   0  0  0  0  0  0  0  0  0  0  0  0
   18.5638   19.9845   23.0179 C   0  0  0  0  0  0  0  0  0  0  0  0
   17.7979   19.7318   23.7639 H   0  0  0  0  0  0  0  0  0  0  0  0
   18.1248   20.7775   22.3974 H   0  0  0  0  0  0  0  0  0  0  0  0
   19.7882   20.5497   23.7805 C   0  0  0  0  0  0  0  0  0  0  0  0
   20.1785   19.8071   24.4858 H   0  0  0  0  0  0  0  0  0  0  0  0
   19.4262   21.3698   24.4154 H   0  0  0  0  0  0  0  0  0  0  0  0
   19.0844   16.3653   22.5039 O   0  0  0  0  0  0  0  0  0  0  0  0
   19.0918   16.2706   21.5292 H   0  0  0  0  0  0  0  0  0  0  0  0
  1  2  1  0  0  0  0
  1  3  1  0  0  0  0
  1  4  1  0  0  0  0
  4  5  1  0  0  0  0
  4  6  1  0  0  0  0
  4  7  1  0  0  0  0
  7  8  1  0  0  0  0
  7  9  1  0  0  0  0
  7 10  1  0  0  0  0
 10 11  1  0  0  0  0
 10 12  1  0  0  0  0
 10 13  1  0  0  0  0
 13 14  1  0  0  0  0
 13 15  1  0  0  0  0
 15 16  1  0  0  0  0
 15 17  1  0  0  0  0
 15 18  1  0  0  0  0
 18 19  1  0  0  0  0
 18 20  1  0  0  0  0
  1 21  1  0  0  0  0
 18 21  1  0  0  0  0
 21 22  1  0  0  0  0
 21 23  1  0  0  0  0
 13 24  1  0  0  0  0
 24 25  1  0  0  0  0
M  END
> <VConfSearch Rank>
335

> <Conf_Id>
68

> <Delta U+W>
-1.765

> <U+W>
9.148

> <U>
11.181

> <W>
-2.032

> <W(PB)>
-4.147

> <W(SA)>
2.114

> <Valence>
16.955

> <Coulomb>
-8.661

> <VdW>
2.887

> <VdW6>
-12.561

> <VdW12>
15.448

> <Bond>
0.433

> <Angle>
5.121

> <Pdih>
11.402

> <Idih>
0.000

> <Tether>
0.000

$$$$
VeraChem MOL file


 25 25  0  0  0  0  0  0  0  0999 V2000     
   18.7041   20.0256   22.0068 C   0  0  0  0  0  0  0  0  0  0  0  0
   17.7685   20.5345   21.7370 H   0  0  0  0  0  0  0  0  0  0  0  0
   19.0144   19.5215   21.0846 H   0  0  0  0  0  0  0  0  0  0  0  0
   18.3851   18.9883   23.1147 C   0  0  0  0  0  0  0  0  0  0  0  0
   18.5677   19.4066   24.1129 H   0  0  0  0  0  0  0  0  0  0  0  0
   17.3048   18.7911   23.0810 H   0  0  0  0  0  0  0  0  0  0  0  0
   19.0997   17.6210   22.9517 C   0  0  0  0  0  0  0  0  0  0  0  0
   18.8628   17.2015   21.9643 H   0  0  0  0  0  0  0  0  0  0  0  0
   18.6599   16.9259   23.6799 H   0  0  0  0  0  0  0  0  0  0  0  0
   20.6379   17.6099   23.1578 C   0  0  0  0  0  0  0  0  0  0  0  0
   20.8925   17.9979   24.1513 H   0  0  0  0  0  0  0  0  0  0  0  0
   20.9471   16.5559   23.1719 H   0  0  0  0  0  0  0  0  0  0  0  0
   21.4398   18.3457   22.0531 C   0  0  0  0  0  0  0  0  0  0  0  0
   20.8136   18.4378   21.1582 H   0  0  0  0  0  0  0  0  0  0  0  0
   21.9611   19.7476   22.4546 C   0  0  0  0  0  0  0  0  0  0  0  0
   22.8411   19.6207   23.0989 H   0  0  0  0  0  0  0  0  0  0  0  0
   22.3214   20.2552   21.5504 H   0  0  0  0  0  0  0  0  0  0  0  0
   20.9741   20.6837   23.1987 C   0  0  0  0  0  0  0  0  0  0  0  0
   21.5276   21.5929   23.4703 H   0  0  0  0  0  0  0  0  0  0  0  0
   20.6776   20.2438   24.1578 H   0  0  0  0  0  0  0  0  0  0  0  0
   19.7228   21.1269   22.4000 C   0  0  0  0  0  0  0  0  0  0  0  0
   20.0402   21.6591   21.4930 H   0  0  0  0  0  0  0  0  0  0  0  0
   19.1920   21.8711   23.0094 H   0  0  0  0  0  0  0  0  0  0  0  0
   22.5689   17.5525   21.7086 O   0  0  0  0  0  0  0  0  0  0  0  0
   23.1060   17.4666   22.5229 H   0  0  0  0  0  0  0  0  0  0  0  0
  1  2  1  0  0  0  0
  1  3  1  0  0  0  0
  1  4  1  0  0  0  0
  4  5  1  0  0  0  0
  4  6  1  0  0  0  0
  4  7  1  0  0  0  0
  7  8  1  0  0  0  0
  7  9  1  0  0  0  0
  7 10  1  0  0  0  0
 10 11  1  0  0  0  0
 10 12  1  0  0  0  0
 10 13  1  0  0  0  0
 13 14  1  0  0  0  0
 13 15  1  0  0  0  0
 15 16  1  0  0  0  0
 15 17  1  0  0  0  0
 15 18  1  0  0  0  0
 18 19  1  0  0  0  0
 18 20  1  0  0  0  0
  1 21  1  0  0  0  0
 18 21  1  0  0  0  0
 21 22  1  0  0  0  0
 21 23  1  0  0  0  0
 13 24  1  0  0  0  0
 24 25  1  0  0  0  0
M  END
> <VConfSearch Rank>
336

> <Conf_Id>
165

> <Delta U+W>
-1.999

> <U+W>
8.915

> <U>
10.935

> <W>
-2.020

> <W(PB)>
-4.135

> <W(SA)>
2.115

> <Valence>
16.757

> <Coulomb>
-8.731

> <VdW>
2.908

> <VdW6>
-12.597

> <VdW12>
15.506

> <Bond>
0.434

> <Angle>
5.069

> <Pdih>
11.254

> <Idih>
0.000

> <Tether>
0.000

$$$$
VeraChem MOL file


 25 25  0  0  0  0  0  0  0  0999 V2000     
   19.1381   18.6531   21.3470 C   0  0  0  0  0  0  0  0  0  0  0  0
   18.4314   18.4257   20.5371 H   0  0  0  0  0  0  0  0  0  0  0  0
   19.4670   17.6705   21.7036 H   0  0  0  0  0  0  0  0  0  0  0  0
   18.3409   19.3989   22.4486 C   0  0  0  0  0  0  0  0  0  0  0  0
   17.6729   20.1150   21.9507 H   0  0  0  0  0  0  0  0  0  0  0  0
   17.6809   18.6835   22.9576 H   0  0  0  0  0  0  0  0  0  0  0  0
   19.1560   20.1862   23.5051 C   0  0  0  0  0  0  0  0  0  0  0  0
   18.4377   20.7244   24.1384 H   0  0  0  0  0  0  0  0  0  0  0  0
   19.7438   20.9752   23.0222 H   0  0  0  0  0  0  0  0  0  0  0  0
   20.0538   19.3388   24.4432 C   0  0  0  0  0  0  0  0  0  0  0  0
   20.4757   20.0181   25.1963 H   0  0  0  0  0  0  0  0  0  0  0  0
   19.4217   18.6308   24.9945 H   0  0  0  0  0  0  0  0  0  0  0  0
   21.2198   18.5572   23.7896 C   0  0  0  0  0  0  0  0  0  0  0  0
   20.8252   17.6556   23.3067 H   0  0  0  0  0  0  0  0  0  0  0  0
   22.0388   19.3669   22.7514 C   0  0  0  0  0  0  0  0  0  0  0  0
   21.9328   20.4443   22.9250 H   0  0  0  0  0  0  0  0  0  0  0  0
   23.1050   19.1557   22.9098 H   0  0  0  0  0  0  0  0  0  0  0  0
   21.7251   19.0213   21.2711 C   0  0  0  0  0  0  0  0  0  0  0  0
   21.8679   17.9436   21.1122 H   0  0  0  0  0  0  0  0  0  0  0  0
   22.4819   19.5139   20.6455 H   0  0  0  0  0  0  0  0  0  0  0  0
   20.3289   19.4393   20.7393 C   0  0  0  0  0  0  0  0  0  0  0  0
   20.3296   19.2525   19.6566 H   0  0  0  0  0  0  0  0  0  0  0  0
   20.1815   20.5221   20.8418 H   0  0  0  0  0  0  0  0  0  0  0  0
   22.0949   18.1457   24.8338 O   0  0  0  0  0  0  0  0  0  0  0  0
   21.5624   17.6003   25.4498 H   0  0  0  0  0  0  0  0  0  0  0  0
  1  2  1  0  0  0  0
  1  3  1  0  0  0  0
  1  4  1  0  0  0  0
  4  5  1  0  0  0  0
  4  6  1  0  0  0  0
  4  7  1  0  0  0  0
  7  8  1  0  0  0  0
  7  9  1  0  0  0  0
  7 10  1  0  0  0  0
 10 11  1  0  0  0  0
 10 12  1  0  0  0  0
 10 13  1  0  0  0  0
 13 14  1  0  0  0  0
 13 15  1  0  0  0  0
 15 16  1  0  0  0  0
 15 17  1  0  0  0  0
 15 18  1  0  0  0  0
 18 19  1  0  0  0  0
 18 20  1  0  0  0  0
  1 21  1  0  0  0  0
 18 21  1  0  0  0  0
 21 22  1  0  0  0  0
 21 23  1  0  0  0  0
 13 24  1  0  0  0  0
 24 25  1  0  0  0  0
M  END
> <VConfSearch Rank>
337

> <Conf_Id>
133

> <Delta U+W>
-2.139

> <U+W>
8.774

> <U>
10.905

> <W>
-2.131

> <W(PB)>
-4.281

> <W(SA)>
2.150

> <Valence>
16.378

> <Coulomb>
-8.448

> <VdW>
2.976

> <VdW6>
-12.570

> <VdW12>
15.545

> <Bond>
0.439

> <Angle>
5.049

> <Pdih>
10.889

> <Idih>
0.000

> <Tether>
0.000

$$$$
VeraChem MOL file


 25 25  0  0  0  0  0  0  0  0999 V2000     
   20.8059   19.4433   20.9112 C   0  0  0  0  0  0  0  0  0  0  0  0
   21.1651   19.6380   19.8913 H   0  0  0  0  0  0  0  0  0  0  0  0
   20.0373   18.6725   20.7853 H   0  0  0  0  0  0  0  0  0  0  0  0
   20.1806   20.7527   21.4588 C   0  0  0  0  0  0  0  0  0  0  0  0
   20.9108   21.3244   22.0457 H   0  0  0  0  0  0  0  0  0  0  0  0
   19.9444   21.3914   20.5966 H   0  0  0  0  0  0  0  0  0  0  0  0
   18.8628   20.5622   22.2549 C   0  0  0  0  0  0  0  0  0  0  0  0
   18.1322   20.0318   21.6288 H   0  0  0  0  0  0  0  0  0  0  0  0
   18.4321   21.5575   22.4307 H   0  0  0  0  0  0  0  0  0  0  0  0
   18.9755   19.8476   23.6281 C   0  0  0  0  0  0  0  0  0  0  0  0
   19.6773   20.3795   24.2813 H   0  0  0  0  0  0  0  0  0  0  0  0
   17.9981   19.9445   24.1199 H   0  0  0  0  0  0  0  0  0  0  0  0
   19.3336   18.3414   23.5431 C   0  0  0  0  0  0  0  0  0  0  0  0
   19.1042   17.9773   22.5348 H   0  0  0  0  0  0  0  0  0  0  0  0
   20.8069   18.0081   23.8837 C   0  0  0  0  0  0  0  0  0  0  0  0
   20.9247   18.0501   24.9750 H   0  0  0  0  0  0  0  0  0  0  0  0
   21.0070   16.9676   23.5975 H   0  0  0  0  0  0  0  0  0  0  0  0
   21.8996   18.9169   23.2638 C   0  0  0  0  0  0  0  0  0  0  0  0
   22.8668   18.5864   23.6664 H   0  0  0  0  0  0  0  0  0  0  0  0
   21.7892   19.9471   23.6213 H   0  0  0  0  0  0  0  0  0  0  0  0
   22.0099   18.8921   21.7187 C   0  0  0  0  0  0  0  0  0  0  0  0
   22.2236   17.8674   21.3857 H   0  0  0  0  0  0  0  0  0  0  0  0
   22.8947   19.4828   21.4443 H   0  0  0  0  0  0  0  0  0  0  0  0
   18.5125   17.6292   24.4618 O   0  0  0  0  0  0  0  0  0  0  0  0
   18.7276   16.6791   24.3547 H   0  0  0  0  0  0  0  0  0  0  0  0
  1  2  1  0  0  0  0
  1  3  1  0  0  0  0
  1  4  1  0  0  0  0
  4  5  1  0  0  0  0
  4  6  1  0  0  0  0
  4  7  1  0  0  0  0
  7  8  1  0  0  0  0
  7  9  1  0  0  0  0
  7 10  1  0  0  0  0
 10 11  1  0  0  0  0
 10 12  1  0  0  0  0
 10 13  1  0  0  0  0
 13 14  1  0  0  0  0
 13 15  1  0  0  0  0
 15 16  1  0  0  0  0
 15 17  1  0  0  0  0
 15 18  1  0  0  0  0
 18 19  1  0  0  0  0
 18 20  1  0  0  0  0
  1 21  1  0  0  0  0
 18 21  1  0  0  0  0
 21 22  1  0  0  0  0
 21 23  1  0  0  0  0
 13 24  1  0  0  0  0
 24 25  1  0  0  0  0
M  END
> <VConfSearch Rank>
338

> <Conf_Id>
95

> <Delta U+W>
-2.190

> <U+W>
8.723

> <U>
10.905

> <W>
-2.182

> <W(PB)>
-4.296

> <W(SA)>
2.114

> <Valence>
16.377

> <Coulomb>
-8.448

> <VdW>
2.976

> <VdW6>
-12.570

> <VdW12>
15.546

> <Bond>
0.439

> <Angle>
5.049

> <Pdih>
10.889

> <Idih>
0.000

> <Tether>
0.000

$$$$
VeraChem MOL file


 25 25  0  0  0  0  0  0  0  0999 V2000     
   18.5356   18.7938   22.9774 C   0  0  0  0  0  0  0  0  0  0  0  0
   17.5144   18.5158   23.2721 H   0  0  0  0  0  0  0  0  0  0  0  0
   18.4540   18.9521   21.8974 H   0  0  0  0  0  0  0  0  0  0  0  0
   19.4489   17.5733   23.2944 C   0  0  0  0  0  0  0  0  0  0  0  0
   19.0583   17.0995   24.2053 H   0  0  0  0  0  0  0  0  0  0  0  0
   19.3293   16.8231   22.5010 H   0  0  0  0  0  0  0  0  0  0  0  0
   20.9600   17.8306   23.5327 C   0  0  0  0  0  0  0  0  0  0  0  0
   21.4117   16.8828   23.8561 H   0  0  0  0  0  0  0  0  0  0  0  0
   21.0828   18.4826   24.4032 H   0  0  0  0  0  0  0  0  0  0  0  0
   21.7984   18.3507   22.3272 C   0  0  0  0  0  0  0  0  0  0  0  0
   22.7123   18.8245   22.7088 H   0  0  0  0  0  0  0  0  0  0  0  0
   22.1335   17.4693   21.7650 H   0  0  0  0  0  0  0  0  0  0  0  0
   21.1157   19.3075   21.3171 C   0  0  0  0  0  0  0  0  0  0  0  0
   20.2331   18.8009   20.9133 H   0  0  0  0  0  0  0  0  0  0  0  0
   20.7127   20.7156   21.8419 C   0  0  0  0  0  0  0  0  0  0  0  0
   21.5859   21.3748   21.7455 H   0  0  0  0  0  0  0  0  0  0  0  0
   19.9538   21.1307   21.1666 H   0  0  0  0  0  0  0  0  0  0  0  0
   20.2099   20.8449   23.3053 C   0  0  0  0  0  0  0  0  0  0  0  0
   20.0808   21.9148   23.5183 H   0  0  0  0  0  0  0  0  0  0  0  0
   21.0085   20.5425   23.9901 H   0  0  0  0  0  0  0  0  0  0  0  0
   18.8706   20.1407   23.6710 C   0  0  0  0  0  0  0  0  0  0  0  0
   18.0563   20.8369   23.4281 H   0  0  0  0  0  0  0  0  0  0  0  0
   18.8255   20.0070   24.7602 H   0  0  0  0  0  0  0  0  0  0  0  0
   22.0216   19.5022   20.2373 O   0  0  0  0  0  0  0  0  0  0  0  0
   22.2196   18.6154   19.8707 H   0  0  0  0  0  0  0  0  0  0  0  0
  1  2  1  0  0  0  0
  1  3  1  0  0  0  0
  1  4  1  0  0  0  0
  4  5  1  0  0  0  0
  4  6  1  0  0  0  0
  4  7  1  0  0  0  0
  7  8  1  0  0  0  0
  7  9  1  0  0  0  0
  7 10  1  0  0  0  0
 10 11  1  0  0  0  0
 10 12  1  0  0  0  0
 10 13  1  0  0  0  0
 13 14  1  0  0  0  0
 13 15  1  0  0  0  0
 15 16  1  0  0  0  0
 15 17  1  0  0  0  0
 15 18  1  0  0  0  0
 18 19  1  0  0  0  0
 18 20  1  0  0  0  0
  1 21  1  0  0  0  0
 18 21  1  0  0  0  0
 21 22  1  0  0  0  0
 21 23  1  0  0  0  0
 13 24  1  0  0  0  0
 24 25  1  0  0  0  0
M  END
> <VConfSearch Rank>
339

> <Conf_Id>
161

> <Delta U+W>
2.120

> <U+W>
13.033

> <U>
15.076

> <W>
-2.043

> <W(PB)>
-4.186

> <W(SA)>
2.143

> <Valence>
18.884

> <Coulomb>
-8.074

> <VdW>
4.266

> <VdW6>
-13.486

> <VdW12>
17.752

> <Bond>
0.713

> <Angle>
8.955

> <Pdih>
9.215

> <Idih>
0.000

> <Tether>
0.000

$$$$
VeraChem MOL file


 25 25  0  0  0  0  0  0  0  0999 V2000     
   20.4942   18.8872   20.6902 C   0  0  0  0  0  0  0  0  0  0  0  0
   20.5270   18.9700   19.5952 H   0  0  0  0  0  0  0  0  0  0  0  0
   20.5360   17.8091   20.8903 H   0  0  0  0  0  0  0  0  0  0  0  0
   19.1393   19.4623   21.1730 C   0  0  0  0  0  0  0  0  0  0  0  0
   19.2058   20.5489   21.3178 H   0  0  0  0  0  0  0  0  0  0  0  0
   18.4233   19.3223   20.3515 H   0  0  0  0  0  0  0  0  0  0  0  0
   18.5322   18.7647   22.4221 C   0  0  0  0  0  0  0  0  0  0  0  0
   18.7184   17.6825   22.4015 H   0  0  0  0  0  0  0  0  0  0  0  0
   17.4414   18.8729   22.3469 H   0  0  0  0  0  0  0  0  0  0  0  0
   18.9499   19.3698   23.7874 C   0  0  0  0  0  0  0  0  0  0  0  0
   19.0779   20.4548   23.6901 H   0  0  0  0  0  0  0  0  0  0  0  0
   18.1063   19.2455   24.4792 H   0  0  0  0  0  0  0  0  0  0  0  0
   20.1808   18.7259   24.4743 C   0  0  0  0  0  0  0  0  0  0  0  0
   19.8903   17.7216   24.8147 H   0  0  0  0  0  0  0  0  0  0  0  0
   21.4508   18.5711   23.6059 C   0  0  0  0  0  0  0  0  0  0  0  0
   22.2920   18.3241   24.2674 H   0  0  0  0  0  0  0  0  0  0  0  0
   21.3392   17.6890   22.9662 H   0  0  0  0  0  0  0  0  0  0  0  0
   21.8250   19.8214   22.7657 C   0  0  0  0  0  0  0  0  0  0  0  0
   22.8473   20.1284   23.0253 H   0  0  0  0  0  0  0  0  0  0  0  0
   21.1975   20.6801   23.0301 H   0  0  0  0  0  0  0  0  0  0  0  0
   21.7629   19.5942   21.2363 C   0  0  0  0  0  0  0  0  0  0  0  0
   22.6397   19.0069   20.9310 H   0  0  0  0  0  0  0  0  0  0  0  0
   21.8682   20.5682   20.7393 H   0  0  0  0  0  0  0  0  0  0  0  0
   20.5128   19.5150   25.6081 O   0  0  0  0  0  0  0  0  0  0  0  0
   20.8948   20.3439   25.2550 H   0  0  0  0  0  0  0  0  0  0  0  0
  1  2  1  0  0  0  0
  1  3  1  0  0  0  0
  1  4  1  0  0  0  0
  4  5  1  0  0  0  0
  4  6  1  0  0  0  0
  4  7  1  0  0  0  0
  7  8  1  0  0  0  0
  7  9  1  0  0  0  0
  7 10  1  0  0  0  0
 10 11  1  0  0  0  0
 10 12  1  0  0  0  0
 10 13  1  0  0  0  0
 13 14  1  0  0  0  0
 13 15  1  0  0  0  0
 15 16  1  0  0  0  0
 15 17  1  0  0  0  0
 15 18  1  0  0  0  0
 18 19  1  0  0  0  0
 18 20  1  0  0  0  0
  1 21  1  0  0  0  0
 18 21  1  0  0  0  0
 21 22  1  0  0  0  0
 21 23  1  0  0  0  0
 13 24  1  0  0  0  0
 24 25  1  0  0  0  0
M  END
> <VConfSearch Rank>
340

> <Conf_Id>
164

> <Delta U+W>
0.008

> <U+W>
10.922

> <U>
12.433

> <W>
-1.511

> <W(PB)>
-3.669

> <W(SA)>
2.157

> <Valence>
19.007

> <Coulomb>
-9.373

> <VdW>
2.799

> <VdW6>
-12.597

> <VdW12>
15.396

> <Bond>
0.425

> <Angle>
4.784

> <Pdih>
13.799

> <Idih>
0.000

> <Tether>
0.000

$$$$
VeraChem MOL file


 25 25  0  0  0  0  0  0  0  0999 V2000     
   20.2582   20.7634   21.6899 C   0  0  0  0  0  0  0  0  0  0  0  0
   20.7049   21.0321   22.6538 H   0  0  0  0  0  0  0  0  0  0  0  0
   20.2302   21.7057   21.1261 H   0  0  0  0  0  0  0  0  0  0  0  0
   18.7929   20.2998   21.8836 C   0  0  0  0  0  0  0  0  0  0  0  0
   18.2410   21.1347   22.3364 H   0  0  0  0  0  0  0  0  0  0  0  0
   18.3308   20.1371   20.9005 H   0  0  0  0  0  0  0  0  0  0  0  0
   18.5589   19.0450   22.7631 C   0  0  0  0  0  0  0  0  0  0  0  0
   18.7000   18.1309   22.1751 H   0  0  0  0  0  0  0  0  0  0  0  0
   17.4947   19.0345   23.0359 H   0  0  0  0  0  0  0  0  0  0  0  0
   19.3947   18.9862   24.0696 C   0  0  0  0  0  0  0  0  0  0  0  0
   19.6907   19.9919   24.3918 H   0  0  0  0  0  0  0  0  0  0  0  0
   18.7344   18.6099   24.8625 H   0  0  0  0  0  0  0  0  0  0  0  0
   20.6216   18.0416   24.0166 C   0  0  0  0  0  0  0  0  0  0  0  0
   20.2776   17.0516   23.6850 H   0  0  0  0  0  0  0  0  0  0  0  0
   21.7923   18.4777   23.1002 C   0  0  0  0  0  0  0  0  0  0  0  0
   22.1672   19.4666   23.3906 H   0  0  0  0  0  0  0  0  0  0  0  0
   22.6232   17.7850   23.2902 H   0  0  0  0  0  0  0  0  0  0  0  0
   21.4862   18.4241   21.5796 C   0  0  0  0  0  0  0  0  0  0  0  0
   20.6795   17.7111   21.3748 H   0  0  0  0  0  0  0  0  0  0  0  0
   22.3621   18.0021   21.0680 H   0  0  0  0  0  0  0  0  0  0  0  0
   21.1849   19.7924   20.9165 C   0  0  0  0  0  0  0  0  0  0  0  0
   20.7726   19.6191   19.9132 H   0  0  0  0  0  0  0  0  0  0  0  0
   22.1425   20.3072   20.7590 H   0  0  0  0  0  0  0  0  0  0  0  0
   21.1305   17.9220   25.3379 O   0  0  0  0  0  0  0  0  0  0  0  0
   21.4269   18.8171   25.6018 H   0  0  0  0  0  0  0  0  0  0  0  0
  1  2  1  0  0  0  0
  1  3  1  0  0  0  0
  1  4  1  0  0  0  0
  4  5  1  0  0  0  0
  4  6  1  0  0  0  0
  4  7  1  0  0  0  0
  7  8  1  0  0  0  0
  7  9  1  0  0  0  0
  7 10  1  0  0  0  0
 10 11  1  0  0  0  0
 10 12  1  0  0  0  0
 10 13  1  0  0  0  0
 13 14  1  0  0  0  0
 13 15  1  0  0  0  0
 15 16  1  0  0  0  0
 15 17  1  0  0  0  0
 15 18  1  0  0  0  0
 18 19  1  0  0  0  0
 18 20  1  0  0  0  0
  1 21  1  0  0  0  0
 18 21  1  0  0  0  0
 21 22  1  0  0  0  0
 21 23  1  0  0  0  0
 13 24  1  0  0  0  0
 24 25  1  0  0  0  0
M  END
> <VConfSearch Rank>
341

> <Conf_Id>
15

> <Delta U+W>
-1.271

> <U+W>
9.643

> <U>
11.413

> <W>
-1.770

> <W(PB)>
-3.908

> <W(SA)>
2.138

> <Valence>
17.496

> <Coulomb>
-8.736

> <VdW>
2.653

> <VdW6>
-12.485

> <VdW12>
15.138

> <Bond>
0.414

> <Angle>
5.295

> <Pdih>
11.787

> <Idih>
0.000

> <Tether>
0.000

$$$$
VeraChem MOL file


 25 25  0  0  0  0  0  0  0  0999 V2000     
   19.0949   19.9327   21.3668 C   0  0  0  0  0  0  0  0  0  0  0  0
   18.3812   20.5018   20.7555 H   0  0  0  0  0  0  0  0  0  0  0  0
   18.8451   18.8804   21.1813 H   0  0  0  0  0  0  0  0  0  0  0  0
   20.5132   20.2608   20.8304 C   0  0  0  0  0  0  0  0  0  0  0  0
   20.5980   19.8476   19.8161 H   0  0  0  0  0  0  0  0  0  0  0  0
   20.6075   21.3495   20.7180 H   0  0  0  0  0  0  0  0  0  0  0  0
   21.7085   19.7548   21.6733 C   0  0  0  0  0  0  0  0  0  0  0  0
   21.8600   20.4200   22.5314 H   0  0  0  0  0  0  0  0  0  0  0  0
   22.6205   19.8625   21.0705 H   0  0  0  0  0  0  0  0  0  0  0  0
   21.5833   18.2772   22.1279 C   0  0  0  0  0  0  0  0  0  0  0  0
   20.7347   17.7877   21.6374 H   0  0  0  0  0  0  0  0  0  0  0  0
   22.4671   17.7297   21.7754 H   0  0  0  0  0  0  0  0  0  0  0  0
   21.4949   18.0829   23.6592 C   0  0  0  0  0  0  0  0  0  0  0  0
   22.4965   18.2631   24.0753 H   0  0  0  0  0  0  0  0  0  0  0  0
   20.5115   19.0095   24.4199 C   0  0  0  0  0  0  0  0  0  0  0  0
   20.4449   18.6306   25.4486 H   0  0  0  0  0  0  0  0  0  0  0  0
   20.9452   20.0111   24.5251 H   0  0  0  0  0  0  0  0  0  0  0  0
   19.0698   19.1197   23.8555 C   0  0  0  0  0  0  0  0  0  0  0  0
   18.4078   19.3039   24.7128 H   0  0  0  0  0  0  0  0  0  0  0  0
   18.7349   18.1637   23.4328 H   0  0  0  0  0  0  0  0  0  0  0  0
   18.8378   20.2839   22.8531 C   0  0  0  0  0  0  0  0  0  0  0  0
   19.4024   21.1792   23.1461 H   0  0  0  0  0  0  0  0  0  0  0  0
   17.7797   20.5681   22.9350 H   0  0  0  0  0  0  0  0  0  0  0  0
   21.1313   16.7334   23.9147 O   0  0  0  0  0  0  0  0  0  0  0  0
   20.2040   16.6448   23.6156 H   0  0  0  0  0  0  0  0  0  0  0  0
  1  2  1  0  0  0  0
  1  3  1  0  0  0  0
  1  4  1  0  0  0  0
  4  5  1  0  0  0  0
  4  6  1  0  0  0  0
  4  7  1  0  0  0  0
  7  8  1  0  0  0  0
  7  9  1  0  0  0  0
  7 10  1  0  0  0  0
 10 11  1  0  0  0  0
 10 12  1  0  0  0  0
 10 13  1  0  0  0  0
 13 14  1  0  0  0  0
 13 15  1  0  0  0  0
 15 16  1  0  0  0  0
 15 17  1  0  0  0  0
 15 18  1  0  0  0  0
 18 19  1  0  0  0  0
 18 20  1  0  0  0  0
  1 21  1  0  0  0  0
 18 21  1  0  0  0  0
 21 22  1  0  0  0  0
 21 23  1  0  0  0  0
 13 24  1  0  0  0  0
 24 25  1  0  0  0  0
M  END
> <VConfSearch Rank>
342

> <Conf_Id>
115

> <Delta U+W>
0.038

> <U+W>
10.952

> <U>
12.526

> <W>
-1.575

> <W(PB)>
-3.698

> <W(SA)>
2.123

> <Valence>
19.016

> <Coulomb>
-9.226

> <VdW>
2.737

> <VdW6>
-12.612

> <VdW12>
15.349

> <Bond>
0.421

> <Angle>
4.883

> <Pdih>
13.711

> <Idih>
0.000

> <Tether>
0.000

$$$$
VeraChem MOL file


 25 25  0  0  0  0  0  0  0  0999 V2000     
   19.6333   19.5590   20.6587 C   0  0  0  0  0  0  0  0  0  0  0  0
   19.6996   19.4600   19.5666 H   0  0  0  0  0  0  0  0  0  0  0  0
   18.6116   19.9080   20.8609 H   0  0  0  0  0  0  0  0  0  0  0  0
   20.6569   20.6364   21.0866 C   0  0  0  0  0  0  0  0  0  0  0  0
   21.6677   20.3415   20.7739 H   0  0  0  0  0  0  0  0  0  0  0  0
   20.4279   21.5499   20.5208 H   0  0  0  0  0  0  0  0  0  0  0  0
   20.6459   20.9931   22.5911 C   0  0  0  0  0  0  0  0  0  0  0  0
   19.6136   21.0587   22.9599 H   0  0  0  0  0  0  0  0  0  0  0  0
   21.0560   22.0074   22.6913 H   0  0  0  0  0  0  0  0  0  0  0  0
   21.5067   20.0527   23.4769 C   0  0  0  0  0  0  0  0  0  0  0  0
   22.1729   19.4298   22.8671 H   0  0  0  0  0  0  0  0  0  0  0  0
   22.1705   20.6876   24.0793 H   0  0  0  0  0  0  0  0  0  0  0  0
   20.6928   19.1648   24.4449 C   0  0  0  0  0  0  0  0  0  0  0  0
   19.8235   19.7340   24.8041 H   0  0  0  0  0  0  0  0  0  0  0  0
   20.2035   17.8309   23.8385 C   0  0  0  0  0  0  0  0  0  0  0  0
   21.0635   17.2219   23.5302 H   0  0  0  0  0  0  0  0  0  0  0  0
   19.7085   17.2653   24.6388 H   0  0  0  0  0  0  0  0  0  0  0  0
   19.1974   17.9623   22.6691 C   0  0  0  0  0  0  0  0  0  0  0  0
   18.4644   18.7519   22.8819 H   0  0  0  0  0  0  0  0  0  0  0  0
   18.6173   17.0300   22.6309 H   0  0  0  0  0  0  0  0  0  0  0  0
   19.8521   18.1580   21.2766 C   0  0  0  0  0  0  0  0  0  0  0  0
   19.3979   17.4260   20.5946 H   0  0  0  0  0  0  0  0  0  0  0  0
   20.9219   17.9108   21.2966 H   0  0  0  0  0  0  0  0  0  0  0  0
   21.5227   18.8498   25.5565 O   0  0  0  0  0  0  0  0  0  0  0  0
   20.9737   18.3331   26.1825 H   0  0  0  0  0  0  0  0  0  0  0  0
  1  2  1  0  0  0  0
  1  3  1  0  0  0  0
  1  4  1  0  0  0  0
  4  5  1  0  0  0  0
  4  6  1  0  0  0  0
  4  7  1  0  0  0  0
  7  8  1  0  0  0  0
  7  9  1  0  0  0  0
  7 10  1  0  0  0  0
 10 11  1  0  0  0  0
 10 12  1  0  0  0  0
 10 13  1  0  0  0  0
 13 14  1  0  0  0  0
 13 15  1  0  0  0  0
 15 16  1  0  0  0  0
 15 17  1  0  0  0  0
 15 18  1  0  0  0  0
 18 19  1  0  0  0  0
 18 20  1  0  0  0  0
  1 21  1  0  0  0  0
 18 21  1  0  0  0  0
 21 22  1  0  0  0  0
 21 23  1  0  0  0  0
 13 24  1  0  0  0  0
 24 25  1  0  0  0  0
M  END
> <VConfSearch Rank>
343

> <Conf_Id>
30

> <Delta U+W>
0.000

> <U+W>
10.913

> <U>
13.140

> <W>
-2.227

> <W(PB)>
-4.367

> <W(SA)>
2.140

> <Valence>
19.155

> <Coulomb>
-8.157

> <VdW>
2.142

> <VdW6>
-11.576

> <VdW12>
13.718

> <Bond>
0.294

> <Angle>
3.547

> <Pdih>
15.314

> <Idih>
0.000

> <Tether>
0.000

$$$$
VeraChem MOL file


 25 25  0  0  0  0  0  0  0  0999 V2000     
   19.0908   19.9933   24.2519 C   0  0  0  0  0  0  0  0  0  0  0  0
   19.0519   19.7748   25.3278 H   0  0  0  0  0  0  0  0  0  0  0  0
   18.2749   20.7044   24.0639 H   0  0  0  0  0  0  0  0  0  0  0  0
   18.7861   18.6891   23.4745 C   0  0  0  0  0  0  0  0  0  0  0  0
   17.9377   18.1930   23.9655 H   0  0  0  0  0  0  0  0  0  0  0  0
   18.4196   18.9355   22.4713 H   0  0  0  0  0  0  0  0  0  0  0  0
   19.9705   17.6920   23.4068 C   0  0  0  0  0  0  0  0  0  0  0  0
   19.6401   16.7239   23.8071 H   0  0  0  0  0  0  0  0  0  0  0  0
   20.7863   18.0045   24.0690 H   0  0  0  0  0  0  0  0  0  0  0  0
   20.5191   17.4582   21.9764 C   0  0  0  0  0  0  0  0  0  0  0  0
   21.4596   16.8967   22.0533 H   0  0  0  0  0  0  0  0  0  0  0  0
   19.8204   16.8036   21.4393 H   0  0  0  0  0  0  0  0  0  0  0  0
   20.7514   18.7157   21.1018 C   0  0  0  0  0  0  0  0  0  0  0  0
   19.7804   19.1361   20.8080 H   0  0  0  0  0  0  0  0  0  0  0  0
   21.5934   19.8323   21.7663 C   0  0  0  0  0  0  0  0  0  0  0  0
   22.3254   19.3972   22.4587 H   0  0  0  0  0  0  0  0  0  0  0  0
   22.1891   20.3217   20.9843 H   0  0  0  0  0  0  0  0  0  0  0  0
   20.7668   20.9496   22.4636 C   0  0  0  0  0  0  0  0  0  0  0  0
   19.8516   21.1775   21.9007 H   0  0  0  0  0  0  0  0  0  0  0  0
   21.3707   21.8666   22.4212 H   0  0  0  0  0  0  0  0  0  0  0  0
   20.4442   20.6930   23.9565 C   0  0  0  0  0  0  0  0  0  0  0  0
   20.4195   21.6650   24.4680 H   0  0  0  0  0  0  0  0  0  0  0  0
   21.2714   20.1496   24.4307 H   0  0  0  0  0  0  0  0  0  0  0  0
   21.4226   18.2886   19.9223 O   0  0  0  0  0  0  0  0  0  0  0  0
   21.4950   19.0728   19.3390 H   0  0  0  0  0  0  0  0  0  0  0  0
  1  2  1  0  0  0  0
  1  3  1  0  0  0  0
  1  4  1  0  0  0  0
  4  5  1  0  0  0  0
  4  6  1  0  0  0  0
  4  7  1  0  0  0  0
  7  8  1  0  0  0  0
  7  9  1  0  0  0  0
  7 10  1  0  0  0  0
 10 11  1  0  0  0  0
 10 12  1  0  0  0  0
 10 13  1  0  0  0  0
 13 14  1  0  0  0  0
 13 15  1  0  0  0  0
 15 16  1  0  0  0  0
 15 17  1  0  0  0  0
 15 18  1  0  0  0  0
 18 19  1  0  0  0  0
 18 20  1  0  0  0  0
  1 21  1  0  0  0  0
 18 21  1  0  0  0  0
 21 22  1  0  0  0  0
 21 23  1  0  0  0  0
 13 24  1  0  0  0  0
 24 25  1  0  0  0  0
M  END
> <VConfSearch Rank>
344

> <Conf_Id>
162

> <Delta U+W>
0.219

> <U+W>
11.132

> <U>
13.296

> <W>
-2.164

> <W(PB)>
-4.311

> <W(SA)>
2.148

> <Valence>
18.607

> <Coulomb>
-8.339

> <VdW>
3.028

> <VdW6>
-12.271

> <VdW12>
15.299

> <Bond>
0.423

> <Angle>
4.488

> <Pdih>
13.696

> <Idih>
0.000

> <Tether>
0.000

$$$$
VeraChem MOL file


 25 25  0  0  0  0  0  0  0  0999 V2000     
   21.9512   18.4013   23.5449 C   0  0  0  0  0  0  0  0  0  0  0  0
   22.5370   19.2534   23.1775 H   0  0  0  0  0  0  0  0  0  0  0  0
   22.6649   17.8008   24.1254 H   0  0  0  0  0  0  0  0  0  0  0  0
   20.8465   18.8968   24.5112 C   0  0  0  0  0  0  0  0  0  0  0  0
   20.0490   18.1479   24.6084 H   0  0  0  0  0  0  0  0  0  0  0  0
   21.3030   18.9661   25.5081 H   0  0  0  0  0  0  0  0  0  0  0  0
   20.2626   20.2998   24.1852 C   0  0  0  0  0  0  0  0  0  0  0  0
   21.0422   20.9770   23.8114 H   0  0  0  0  0  0  0  0  0  0  0  0
   19.9325   20.7353   25.1384 H   0  0  0  0  0  0  0  0  0  0  0  0
   19.0318   20.3012   23.2417 C   0  0  0  0  0  0  0  0  0  0  0  0
   18.4251   19.4042   23.4166 H   0  0  0  0  0  0  0  0  0  0  0  0
   18.3866   21.1401   23.5335 H   0  0  0  0  0  0  0  0  0  0  0  0
   19.3240   20.4748   21.7298 C   0  0  0  0  0  0  0  0  0  0  0  0
   19.6553   21.5107   21.5678 H   0  0  0  0  0  0  0  0  0  0  0  0
   20.4073   19.5467   21.1304 C   0  0  0  0  0  0  0  0  0  0  0  0
   20.3648   19.6212   20.0361 H   0  0  0  0  0  0  0  0  0  0  0  0
   21.3959   19.9389   21.3920 H   0  0  0  0  0  0  0  0  0  0  0  0
   20.2796   18.0539   21.5337 C   0  0  0  0  0  0  0  0  0  0  0  0
   20.1948   17.4477   20.6217 H   0  0  0  0  0  0  0  0  0  0  0  0
   19.3442   17.8736   22.0765 H   0  0  0  0  0  0  0  0  0  0  0  0
   21.4712   17.5174   22.3632 C   0  0  0  0  0  0  0  0  0  0  0  0
   22.3240   17.3547   21.6902 H   0  0  0  0  0  0  0  0  0  0  0  0
   21.2018   16.5248   22.7490 H   0  0  0  0  0  0  0  0  0  0  0  0
   18.1063   20.2642   21.0248 O   0  0  0  0  0  0  0  0  0  0  0  0
   18.3090   20.3749   20.0731 H   0  0  0  0  0  0  0  0  0  0  0  0
  1  2  1  0  0  0  0
  1  3  1  0  0  0  0
  1  4  1  0  0  0  0
  4  5  1  0  0  0  0
  4  6  1  0  0  0  0
  4  7  1  0  0  0  0
  7  8  1  0  0  0  0
  7  9  1  0  0  0  0
  7 10  1  0  0  0  0
 10 11  1  0  0  0  0
 10 12  1  0  0  0  0
 10 13  1  0  0  0  0
 13 14  1  0  0  0  0
 13 15  1  0  0  0  0
 15 16  1  0  0  0  0
 15 17  1  0  0  0  0
 15 18  1  0  0  0  0
 18 19  1  0  0  0  0
 18 20  1  0  0  0  0
  1 21  1  0  0  0  0
 18 21  1  0  0  0  0
 21 22  1  0  0  0  0
 21 23  1  0  0  0  0
 13 24  1  0  0  0  0
 24 25  1  0  0  0  0
M  END
> <VConfSearch Rank>
345

> <Conf_Id>
155

> <Delta U+W>
0.339

> <U+W>
11.252

> <U>
13.420

> <W>
-2.167

> <W(PB)>
-4.325

> <W(SA)>
2.157

> <Valence>
18.609

> <Coulomb>
-8.052

> <VdW>
2.863

> <VdW6>
-12.524

> <VdW12>
15.387

> <Bond>
0.430

> <Angle>
4.724

> <Pdih>
13.455

> <Idih>
0.000

> <Tether>
0.000

$$$$
VeraChem MOL file


 25 25  0  0  0  0  0  0  0  0999 V2000     
   22.0227   18.7390   23.6768 C   0  0  0  0  0  0  0  0  0  0  0  0
   22.0106   17.7370   24.1266 H   0  0  0  0  0  0  0  0  0  0  0  0
   23.0062   19.1596   23.9267 H   0  0  0  0  0  0  0  0  0  0  0  0
   21.9683   18.6065   22.1321 C   0  0  0  0  0  0  0  0  0  0  0  0
   22.0981   19.5947   21.6797 H   0  0  0  0  0  0  0  0  0  0  0  0
   22.8659   18.0587   21.8143 H   0  0  0  0  0  0  0  0  0  0  0  0
   20.7423   17.8720   21.5152 C   0  0  0  0  0  0  0  0  0  0  0  0
   20.9713   16.7977   21.5090 H   0  0  0  0  0  0  0  0  0  0  0  0
   20.6500   18.1587   20.4588 H   0  0  0  0  0  0  0  0  0  0  0  0
   19.3630   18.0379   22.2094 C   0  0  0  0  0  0  0  0  0  0  0  0
   18.6654   17.3436   21.7229 H   0  0  0  0  0  0  0  0  0  0  0  0
   19.4259   17.6517   23.2305 H   0  0  0  0  0  0  0  0  0  0  0  0
   18.7089   19.4508   22.2056 C   0  0  0  0  0  0  0  0  0  0  0  0
   18.0048   19.4962   23.0488 H   0  0  0  0  0  0  0  0  0  0  0  0
   19.6480   20.6792   22.3031 C   0  0  0  0  0  0  0  0  0  0  0  0
   20.3166   20.6873   21.4374 H   0  0  0  0  0  0  0  0  0  0  0  0
   19.0321   21.5773   22.1628 H   0  0  0  0  0  0  0  0  0  0  0  0
   20.4493   20.8808   23.6244 C   0  0  0  0  0  0  0  0  0  0  0  0
   19.8038   21.4354   24.3190 H   0  0  0  0  0  0  0  0  0  0  0  0
   21.3020   21.5437   23.4249 H   0  0  0  0  0  0  0  0  0  0  0  0
   20.9484   19.6205   24.3789 C   0  0  0  0  0  0  0  0  0  0  0  0
   20.0888   19.0164   24.6857 H   0  0  0  0  0  0  0  0  0  0  0  0
   21.3796   19.9547   25.3325 H   0  0  0  0  0  0  0  0  0  0  0  0
   17.9731   19.5875   20.9947 O   0  0  0  0  0  0  0  0  0  0  0  0
   17.3436   18.8380   20.9599 H   0  0  0  0  0  0  0  0  0  0  0  0
  1  2  1  0  0  0  0
  1  3  1  0  0  0  0
  1  4  1  0  0  0  0
  4  5  1  0  0  0  0
  4  6  1  0  0  0  0
  4  7  1  0  0  0  0
  7  8  1  0  0  0  0
  7  9  1  0  0  0  0
  7 10  1  0  0  0  0
 10 11  1  0  0  0  0
 10 12  1  0  0  0  0
 10 13  1  0  0  0  0
 13 14  1  0  0  0  0
 13 15  1  0  0  0  0
 15 16  1  0  0  0  0
 15 17  1  0  0  0  0
 15 18  1  0  0  0  0
 18 19  1  0  0  0  0
 18 20  1  0  0  0  0
  1 21  1  0  0  0  0
 18 21  1  0  0  0  0
 21 22  1  0  0  0  0
 21 23  1  0  0  0  0
 13 24  1  0  0  0  0
 24 25  1  0  0  0  0
M  END
> <VConfSearch Rank>
346

> <Conf_Id>
146

> <Delta U+W>
2.553

> <U+W>
13.466

> <U>
15.643

> <W>
-2.176

> <W(PB)>
-4.307

> <W(SA)>
2.131

> <Valence>
18.916

> <Coulomb>
-7.506

> <VdW>
4.232

> <VdW6>
-13.632

> <VdW12>
17.864

> <Bond>
0.735

> <Angle>
9.140

> <Pdih>
9.042

> <Idih>
0.000

> <Tether>
0.000

$$$$
VeraChem MOL file


 25 25  0  0  0  0  0  0  0  0999 V2000     
   22.1396   20.1640   23.0385 C   0  0  0  0  0  0  0  0  0  0  0  0
   23.0652   19.8742   22.5230 H   0  0  0  0  0  0  0  0  0  0  0  0
   22.4239   20.9731   23.7251 H   0  0  0  0  0  0  0  0  0  0  0  0
   21.6424   18.9779   23.9023 C   0  0  0  0  0  0  0  0  0  0  0  0
   22.4294   18.7571   24.6363 H   0  0  0  0  0  0  0  0  0  0  0  0
   20.7797   19.2815   24.5063 H   0  0  0  0  0  0  0  0  0  0  0  0
   21.3391   17.6614   23.1438 C   0  0  0  0  0  0  0  0  0  0  0  0
   21.1146   16.8915   23.8947 H   0  0  0  0  0  0  0  0  0  0  0  0
   22.2482   17.3204   22.6303 H   0  0  0  0  0  0  0  0  0  0  0  0
   20.1673   17.6892   22.1281 C   0  0  0  0  0  0  0  0  0  0  0  0
   20.5004   18.1110   21.1746 H   0  0  0  0  0  0  0  0  0  0  0  0
   19.9185   16.6452   21.8940 H   0  0  0  0  0  0  0  0  0  0  0  0
   18.8887   18.4168   22.6178 C   0  0  0  0  0  0  0  0  0  0  0  0
   18.8978   18.4796   23.7143 H   0  0  0  0  0  0  0  0  0  0  0  0
   18.7003   19.8359   22.0241 C   0  0  0  0  0  0  0  0  0  0  0  0
   18.7248   19.7743   20.9281 H   0  0  0  0  0  0  0  0  0  0  0  0
   17.6890   20.1786   22.2794 H   0  0  0  0  0  0  0  0  0  0  0  0
   19.6922   20.9326   22.4984 C   0  0  0  0  0  0  0  0  0  0  0  0
   19.6591   21.0425   23.5900 H   0  0  0  0  0  0  0  0  0  0  0  0
   19.3249   21.8896   22.1031 H   0  0  0  0  0  0  0  0  0  0  0  0
   21.1494   20.7520   22.0000 C   0  0  0  0  0  0  0  0  0  0  0  0
   21.5357   21.7385   21.7092 H   0  0  0  0  0  0  0  0  0  0  0  0
   21.1696   20.1678   21.0732 H   0  0  0  0  0  0  0  0  0  0  0  0
   17.7615   17.6414   22.2263 O   0  0  0  0  0  0  0  0  0  0  0  0
   16.9699   18.0859   22.5951 H   0  0  0  0  0  0  0  0  0  0  0  0
  1  2  1  0  0  0  0
  1  3  1  0  0  0  0
  1  4  1  0  0  0  0
  4  5  1  0  0  0  0
  4  6  1  0  0  0  0
  4  7  1  0  0  0  0
  7  8  1  0  0  0  0
  7  9  1  0  0  0  0
  7 10  1  0  0  0  0
 10 11  1  0  0  0  0
 10 12  1  0  0  0  0
 10 13  1  0  0  0  0
 13 14  1  0  0  0  0
 13 15  1  0  0  0  0
 15 16  1  0  0  0  0
 15 17  1  0  0  0  0
 15 18  1  0  0  0  0
 18 19  1  0  0  0  0
 18 20  1  0  0  0  0
  1 21  1  0  0  0  0
 18 21  1  0  0  0  0
 21 22  1  0  0  0  0
 21 23  1  0  0  0  0
 13 24  1  0  0  0  0
 24 25  1  0  0  0  0
M  END
> <VConfSearch Rank>
347

> <Conf_Id>
62

> <Delta U+W>
-1.779

> <U+W>
9.134

> <U>
11.364

> <W>
-2.230

> <W(PB)>
-4.359

> <W(SA)>
2.129

> <Valence>
16.582

> <Coulomb>
-8.150

> <VdW>
2.933

> <VdW6>
-12.531

> <VdW12>
15.464

> <Bond>
0.439

> <Angle>
5.099

> <Pdih>
11.044

> <Idih>
0.000

> <Tether>
0.000

$$$$
VeraChem MOL file


 25 25  0  0  0  0  0  0  0  0999 V2000     
   21.6736   18.7906   23.9383 C   0  0  0  0  0  0  0  0  0  0  0  0
   21.7923   18.0158   23.1723 H   0  0  0  0  0  0  0  0  0  0  0  0
   22.4282   18.5459   24.6982 H   0  0  0  0  0  0  0  0  0  0  0  0
   20.2849   18.6734   24.6145 C   0  0  0  0  0  0  0  0  0  0  0  0
   20.2248   17.6763   25.0717 H   0  0  0  0  0  0  0  0  0  0  0  0
   20.2258   19.3862   25.4481 H   0  0  0  0  0  0  0  0  0  0  0  0
   19.0403   18.8548   23.7085 C   0  0  0  0  0  0  0  0  0  0  0  0
   18.8133   19.9186   23.5751 H   0  0  0  0  0  0  0  0  0  0  0  0
   18.1776   18.4571   24.2604 H   0  0  0  0  0  0  0  0  0  0  0  0
   19.1100   18.1361   22.3344 C   0  0  0  0  0  0  0  0  0  0  0  0
   19.8065   17.2893   22.3669 H   0  0  0  0  0  0  0  0  0  0  0  0
   18.1230   17.6920   22.1505 H   0  0  0  0  0  0  0  0  0  0  0  0
   19.4324   19.0582   21.1314 C   0  0  0  0  0  0  0  0  0  0  0  0
   18.7200   19.8958   21.1385 H   0  0  0  0  0  0  0  0  0  0  0  0
   20.8649   19.6455   21.0783 C   0  0  0  0  0  0  0  0  0  0  0  0
   21.6103   18.8410   21.0727 H   0  0  0  0  0  0  0  0  0  0  0  0
   20.9706   20.1430   20.1051 H   0  0  0  0  0  0  0  0  0  0  0  0
   21.1837   20.6980   22.1738 C   0  0  0  0  0  0  0  0  0  0  0  0
   20.2617   21.1658   22.5371 H   0  0  0  0  0  0  0  0  0  0  0  0
   21.7431   21.5202   21.7067 H   0  0  0  0  0  0  0  0  0  0  0  0
   22.0366   20.1813   23.3606 C   0  0  0  0  0  0  0  0  0  0  0  0
   22.0139   20.9266   24.1671 H   0  0  0  0  0  0  0  0  0  0  0  0
   23.0825   20.1360   23.0275 H   0  0  0  0  0  0  0  0  0  0  0  0
   19.2360   18.3019   19.9432 O   0  0  0  0  0  0  0  0  0  0  0  0
   18.3063   17.9925   19.9549 H   0  0  0  0  0  0  0  0  0  0  0  0
  1  2  1  0  0  0  0
  1  3  1  0  0  0  0
  1  4  1  0  0  0  0
  4  5  1  0  0  0  0
  4  6  1  0  0  0  0
  4  7  1  0  0  0  0
  7  8  1  0  0  0  0
  7  9  1  0  0  0  0
  7 10  1  0  0  0  0
 10 11  1  0  0  0  0
 10 12  1  0  0  0  0
 10 13  1  0  0  0  0
 13 14  1  0  0  0  0
 13 15  1  0  0  0  0
 15 16  1  0  0  0  0
 15 17  1  0  0  0  0
 15 18  1  0  0  0  0
 18 19  1  0  0  0  0
 18 20  1  0  0  0  0
  1 21  1  0  0  0  0
 18 21  1  0  0  0  0
 21 22  1  0  0  0  0
 21 23  1  0  0  0  0
 13 24  1  0  0  0  0
 24 25  1  0  0  0  0
M  END
> <VConfSearch Rank>
348

> <Conf_Id>
121

> <Delta U+W>
-1.283

> <U+W>
9.630

> <U>
11.876

> <W>
-2.246

> <W(PB)>
-4.376

> <W(SA)>
2.130

> <Valence>
17.153

> <Coulomb>
-7.966

> <VdW>
2.689

> <VdW6>
-12.458

> <VdW12>
15.147

> <Bond>
0.421

> <Angle>
5.258

> <Pdih>
11.475

> <Idih>
0.000

> <Tether>
0.000

$$$$
VeraChem MOL file


 25 25  0  0  0  0  0  0  0  0999 V2000     
   22.1706   19.1927   22.2907 C   0  0  0  0  0  0  0  0  0  0  0  0
   22.0461   20.1244   22.8543 H   0  0  0  0  0  0  0  0  0  0  0  0
   23.2474   19.1386   22.0803 H   0  0  0  0  0  0  0  0  0  0  0  0
   21.4396   19.2841   20.9280 C   0  0  0  0  0  0  0  0  0  0  0  0
   21.8815   20.1233   20.3736 H   0  0  0  0  0  0  0  0  0  0  0  0
   21.6626   18.3866   20.3354 H   0  0  0  0  0  0  0  0  0  0  0  0
   19.9043   19.4958   20.9624 C   0  0  0  0  0  0  0  0  0  0  0  0
   19.3868   18.5394   21.0981 H   0  0  0  0  0  0  0  0  0  0  0  0
   19.6013   19.8323   19.9615 H   0  0  0  0  0  0  0  0  0  0  0  0
   19.4015   20.5382   21.9968 C   0  0  0  0  0  0  0  0  0  0  0  0
   20.1873   21.2622   22.2439 H   0  0  0  0  0  0  0  0  0  0  0  0
   18.6105   21.1257   21.5120 H   0  0  0  0  0  0  0  0  0  0  0  0
   18.7906   19.9379   23.2876 C   0  0  0  0  0  0  0  0  0  0  0  0
   18.0127   19.2182   22.9946 H   0  0  0  0  0  0  0  0  0  0  0  0
   19.7751   19.2247   24.2486 C   0  0  0  0  0  0  0  0  0  0  0  0
   20.5735   19.9099   24.5588 H   0  0  0  0  0  0  0  0  0  0  0  0
   19.2223   18.9897   25.1676 H   0  0  0  0  0  0  0  0  0  0  0  0
   20.3609   17.8910   23.7125 C   0  0  0  0  0  0  0  0  0  0  0  0
   19.6966   17.4549   22.9578 H   0  0  0  0  0  0  0  0  0  0  0  0
   20.3599   17.1611   24.5337 H   0  0  0  0  0  0  0  0  0  0  0  0
   21.8131   17.9735   23.1768 C   0  0  0  0  0  0  0  0  0  0  0  0
   22.0451   17.0484   22.6319 H   0  0  0  0  0  0  0  0  0  0  0  0
   22.4899   17.9861   24.0421 H   0  0  0  0  0  0  0  0  0  0  0  0
   18.1803   21.0021   24.0069 O   0  0  0  0  0  0  0  0  0  0  0  0
   17.7393   20.6018   24.7850 H   0  0  0  0  0  0  0  0  0  0  0  0
  1  2  1  0  0  0  0
  1  3  1  0  0  0  0
  1  4  1  0  0  0  0
  4  5  1  0  0  0  0
  4  6  1  0  0  0  0
  4  7  1  0  0  0  0
  7  8  1  0  0  0  0
  7  9  1  0  0  0  0
  7 10  1  0  0  0  0
 10 11  1  0  0  0  0
 10 12  1  0  0  0  0
 10 13  1  0  0  0  0
 13 14  1  0  0  0  0
 13 15  1  0  0  0  0
 15 16  1  0  0  0  0
 15 17  1  0  0  0  0
 15 18  1  0  0  0  0
 18 19  1  0  0  0  0
 18 20  1  0  0  0  0
  1 21  1  0  0  0  0
 18 21  1  0  0  0  0
 21 22  1  0  0  0  0
 21 23  1  0  0  0  0
 13 24  1  0  0  0  0
 24 25  1  0  0  0  0
M  END
> <VConfSearch Rank>
349

> <Conf_Id>
24

> <Delta U+W>
-1.236

> <U+W>
9.678

> <U>
11.876

> <W>
-2.199

> <W(PB)>
-4.335

> <W(SA)>
2.137

> <Valence>
17.153

> <Coulomb>
-7.966

> <VdW>
2.689

> <VdW6>
-12.458

> <VdW12>
15.147

> <Bond>
0.421

> <Angle>
5.258

> <Pdih>
11.475

> <Idih>
0.000

> <Tether>
0.000

$$$$
VeraChem MOL file


 25 25  0  0  0  0  0  0  0  0999 V2000     
   22.3314   19.4610   22.1426 C   0  0  0  0  0  0  0  0  0  0  0  0
   22.8492   18.8509   21.3900 H   0  0  0  0  0  0  0  0  0  0  0  0
   23.0981   20.1240   22.5662 H   0  0  0  0  0  0  0  0  0  0  0  0
   21.2751   20.3468   21.4300 C   0  0  0  0  0  0  0  0  0  0  0  0
   20.9754   21.1839   22.0733 H   0  0  0  0  0  0  0  0  0  0  0  0
   21.7781   20.8184   20.5747 H   0  0  0  0  0  0  0  0  0  0  0  0
   20.0196   19.6125   20.8980 C   0  0  0  0  0  0  0  0  0  0  0  0
   20.2766   18.6032   20.5490 H   0  0  0  0  0  0  0  0  0  0  0  0
   19.6891   20.1549   20.0014 H   0  0  0  0  0  0  0  0  0  0  0  0
   18.8107   19.5780   21.8753 C   0  0  0  0  0  0  0  0  0  0  0  0
   18.7416   20.5141   22.4441 H   0  0  0  0  0  0  0  0  0  0  0  0
   17.9059   19.5440   21.2532 H   0  0  0  0  0  0  0  0  0  0  0  0
   18.7749   18.3589   22.8290 C   0  0  0  0  0  0  0  0  0  0  0  0
   19.2788   17.5164   22.3371 H   0  0  0  0  0  0  0  0  0  0  0  0
   19.4070   18.5891   24.2251 C   0  0  0  0  0  0  0  0  0  0  0  0
   18.7514   19.2392   24.8191 H   0  0  0  0  0  0  0  0  0  0  0  0
   19.4249   17.6223   24.7453 H   0  0  0  0  0  0  0  0  0  0  0  0
   20.8364   19.1860   24.2561 C   0  0  0  0  0  0  0  0  0  0  0  0
   21.2318   19.0705   25.2744 H   0  0  0  0  0  0  0  0  0  0  0  0
   20.7882   20.2694   24.0964 H   0  0  0  0  0  0  0  0  0  0  0  0
   21.8214   18.5205   23.2619 C   0  0  0  0  0  0  0  0  0  0  0  0
   21.3838   17.6201   22.8153 H   0  0  0  0  0  0  0  0  0  0  0  0
   22.6936   18.1568   23.8223 H   0  0  0  0  0  0  0  0  0  0  0  0
   17.4166   17.9933   23.0365 O   0  0  0  0  0  0  0  0  0  0  0  0
   16.9831   18.7646   23.4562 H   0  0  0  0  0  0  0  0  0  0  0  0
  1  2  1  0  0  0  0
  1  3  1  0  0  0  0
  1  4  1  0  0  0  0
  4  5  1  0  0  0  0
  4  6  1  0  0  0  0
  4  7  1  0  0  0  0
  7  8  1  0  0  0  0
  7  9  1  0  0  0  0
  7 10  1  0  0  0  0
 10 11  1  0  0  0  0
 10 12  1  0  0  0  0
 10 13  1  0  0  0  0
 13 14  1  0  0  0  0
 13 15  1  0  0  0  0
 15 16  1  0  0  0  0
 15 17  1  0  0  0  0
 15 18  1  0  0  0  0
 18 19  1  0  0  0  0
 18 20  1  0  0  0  0
  1 21  1  0  0  0  0
 18 21  1  0  0  0  0
 21 22  1  0  0  0  0
 21 23  1  0  0  0  0
 13 24  1  0  0  0  0
 24 25  1  0  0  0  0
M  END
> <VConfSearch Rank>
350

> <Conf_Id>
167

> <Delta U+W>
0.388

> <U+W>
11.301

> <U>
13.202

> <W>
-1.901

> <W(PB)>
-4.065

> <W(SA)>
2.163

> <Valence>
18.957

> <Coulomb>
-8.753

> <VdW>
2.998

> <VdW6>
-12.294

> <VdW12>
15.292

> <Bond>
0.419

> <Angle>
4.543

> <Pdih>
13.996

> <Idih>
0.000

> <Tether>
0.000

$$$$
VeraChem MOL file


 25 25  0  0  0  0  0  0  0  0999 V2000     
   22.1008   20.2510   22.7762 C   0  0  0  0  0  0  0  0  0  0  0  0
   22.6190   20.3834   23.7356 H   0  0  0  0  0  0  0  0  0  0  0  0
   22.7479   20.7213   22.0232 H   0  0  0  0  0  0  0  0  0  0  0  0
   20.7673   21.0419   22.8124 C   0  0  0  0  0  0  0  0  0  0  0  0
   20.2795   20.9328   23.7876 H   0  0  0  0  0  0  0  0  0  0  0  0
   21.0241   22.1086   22.7541 H   0  0  0  0  0  0  0  0  0  0  0  0
   19.7716   20.7232   21.6671 C   0  0  0  0  0  0  0  0  0  0  0  0
   20.2972   20.3441   20.7812 H   0  0  0  0  0  0  0  0  0  0  0  0
   19.3203   21.6728   21.3481 H   0  0  0  0  0  0  0  0  0  0  0  0
   18.6045   19.7775   22.0619 C   0  0  0  0  0  0  0  0  0  0  0  0
   18.0696   20.1979   22.9235 H   0  0  0  0  0  0  0  0  0  0  0  0
   17.8824   19.7810   21.2347 H   0  0  0  0  0  0  0  0  0  0  0  0
   18.9699   18.3019   22.3594 C   0  0  0  0  0  0  0  0  0  0  0  0
   19.5335   17.8931   21.5100 H   0  0  0  0  0  0  0  0  0  0  0  0
   19.7751   18.1008   23.6693 C   0  0  0  0  0  0  0  0  0  0  0  0
   19.6176   18.9497   24.3422 H   0  0  0  0  0  0  0  0  0  0  0  0
   19.3715   17.2399   24.2188 H   0  0  0  0  0  0  0  0  0  0  0  0
   21.2924   17.8471   23.4734 C   0  0  0  0  0  0  0  0  0  0  0  0
   21.4222   16.8025   23.1589 H   0  0  0  0  0  0  0  0  0  0  0  0
   21.7960   17.9300   24.4460 H   0  0  0  0  0  0  0  0  0  0  0  0
   22.0246   18.7403   22.4405 C   0  0  0  0  0  0  0  0  0  0  0  0
   21.6056   18.5937   21.4385 H   0  0  0  0  0  0  0  0  0  0  0  0
   23.0565   18.3712   22.3647 H   0  0  0  0  0  0  0  0  0  0  0  0
   17.7502   17.5781   22.4711 O   0  0  0  0  0  0  0  0  0  0  0  0
   17.9927   16.6360   22.5901 H   0  0  0  0  0  0  0  0  0  0  0  0
  1  2  1  0  0  0  0
  1  3  1  0  0  0  0
  1  4  1  0  0  0  0
  4  5  1  0  0  0  0
  4  6  1  0  0  0  0
  4  7  1  0  0  0  0
  7  8  1  0  0  0  0
  7  9  1  0  0  0  0
  7 10  1  0  0  0  0
 10 11  1  0  0  0  0
 10 12  1  0  0  0  0
 10 13  1  0  0  0  0
 13 14  1  0  0  0  0
 13 15  1  0  0  0  0
 15 16  1  0  0  0  0
 15 17  1  0  0  0  0
 15 18  1  0  0  0  0
 18 19  1  0  0  0  0
 18 20  1  0  0  0  0
  1 21  1  0  0  0  0
 18 21  1  0  0  0  0
 21 22  1  0  0  0  0
 21 23  1  0  0  0  0
 13 24  1  0  0  0  0
 24 25  1  0  0  0  0
M  END
> <VConfSearch Rank>
351

> <Conf_Id>
60

> <Delta U+W>
-1.838

> <U+W>
9.075

> <U>
11.150

> <W>
-2.074

> <W(PB)>
-4.196

> <W(SA)>
2.121

> <Valence>
16.582

> <Coulomb>
-8.361

> <VdW>
2.928

> <VdW6>
-12.539

> <VdW12>
15.467

> <Bond>
0.441

> <Angle>
5.093

> <Pdih>
11.049

> <Idih>
0.000

> <Tether>
0.000

$$$$
VeraChem MOL file


 25 25  0  0  0  0  0  0  0  0999 V2000     
   20.2922   17.8595   24.2334 C   0  0  0  0  0  0  0  0  0  0  0  0
   20.6438   16.8255   24.1166 H   0  0  0  0  0  0  0  0  0  0  0  0
   19.9459   17.9386   25.2730 H   0  0  0  0  0  0  0  0  0  0  0  0
   19.0625   18.0877   23.3188 C   0  0  0  0  0  0  0  0  0  0  0  0
   18.2815   17.3861   23.6422 H   0  0  0  0  0  0  0  0  0  0  0  0
   18.6329   19.0798   23.4990 H   0  0  0  0  0  0  0  0  0  0  0  0
   19.2867   17.8582   21.8029 C   0  0  0  0  0  0  0  0  0  0  0  0
   18.3099   17.9424   21.3072 H   0  0  0  0  0  0  0  0  0  0  0  0
   19.6161   16.8234   21.6377 H   0  0  0  0  0  0  0  0  0  0  0  0
   20.2697   18.8196   21.0857 C   0  0  0  0  0  0  0  0  0  0  0  0
   21.3025   18.4979   21.2529 H   0  0  0  0  0  0  0  0  0  0  0  0
   20.1167   18.6921   20.0058 H   0  0  0  0  0  0  0  0  0  0  0  0
   20.1105   20.3166   21.4576 C   0  0  0  0  0  0  0  0  0  0  0  0
   19.1177   20.4875   21.8950 H   0  0  0  0  0  0  0  0  0  0  0  0
   21.1917   20.8443   22.4333 C   0  0  0  0  0  0  0  0  0  0  0  0
   22.1860   20.6448   22.0127 H   0  0  0  0  0  0  0  0  0  0  0  0
   21.1003   21.9379   22.4710 H   0  0  0  0  0  0  0  0  0  0  0  0
   21.1342   20.3201   23.8941 C   0  0  0  0  0  0  0  0  0  0  0  0
   20.1616   20.5448   24.3504 H   0  0  0  0  0  0  0  0  0  0  0  0
   21.8638   20.9034   24.4725 H   0  0  0  0  0  0  0  0  0  0  0  0
   21.4965   18.8218   24.0630 C   0  0  0  0  0  0  0  0  0  0  0  0
   22.1190   18.7207   24.9626 H   0  0  0  0  0  0  0  0  0  0  0  0
   22.1449   18.4883   23.2450 H   0  0  0  0  0  0  0  0  0  0  0  0
   20.2067   21.0844   20.2637 O   0  0  0  0  0  0  0  0  0  0  0  0
   19.4755   20.7903   19.6812 H   0  0  0  0  0  0  0  0  0  0  0  0
  1  2  1  0  0  0  0
  1  3  1  0  0  0  0
  1  4  1  0  0  0  0
  4  5  1  0  0  0  0
  4  6  1  0  0  0  0
  4  7  1  0  0  0  0
  7  8  1  0  0  0  0
  7  9  1  0  0  0  0
  7 10  1  0  0  0  0
 10 11  1  0  0  0  0
 10 12  1  0  0  0  0
 10 13  1  0  0  0  0
 13 14  1  0  0  0  0
 13 15  1  0  0  0  0
 15 16  1  0  0  0  0
 15 17  1  0  0  0  0
 15 18  1  0  0  0  0
 18 19  1  0  0  0  0
 18 20  1  0  0  0  0
  1 21  1  0  0  0  0
 18 21  1  0  0  0  0
 21 22  1  0  0  0  0
 21 23  1  0  0  0  0
 13 24  1  0  0  0  0
 24 25  1  0  0  0  0
M  END
> <VConfSearch Rank>
352

> <Conf_Id>
129

> <Delta U+W>
-1.846

> <U+W>
9.067

> <U>
11.150

> <W>
-2.083

> <W(PB)>
-4.217

> <W(SA)>
2.134

> <Valence>
16.583

> <Coulomb>
-8.361

> <VdW>
2.928

> <VdW6>
-12.539

> <VdW12>
15.467

> <Bond>
0.441

> <Angle>
5.093

> <Pdih>
11.049

> <Idih>
0.000

> <Tether>
0.000

$$$$
VeraChem MOL file


 25 25  0  0  0  0  0  0  0  0999 V2000     
   21.9535   20.3993   22.6196 C   0  0  0  0  0  0  0  0  0  0  0  0
   22.0407   21.2737   23.2786 H   0  0  0  0  0  0  0  0  0  0  0  0
   22.8931   20.3617   22.0516 H   0  0  0  0  0  0  0  0  0  0  0  0
   20.8085   20.6370   21.6033 C   0  0  0  0  0  0  0  0  0  0  0  0
   21.0745   21.5258   21.0151 H   0  0  0  0  0  0  0  0  0  0  0  0
   20.7735   19.8224   20.8709 H   0  0  0  0  0  0  0  0  0  0  0  0
   19.4030   20.8881   22.2048 C   0  0  0  0  0  0  0  0  0  0  0  0
   18.7316   21.1525   21.3764 H   0  0  0  0  0  0  0  0  0  0  0  0
   19.4387   21.7739   22.8533 H   0  0  0  0  0  0  0  0  0  0  0  0
   18.7531   19.7171   22.9869 C   0  0  0  0  0  0  0  0  0  0  0  0
   19.1406   19.6855   24.0103 H   0  0  0  0  0  0  0  0  0  0  0  0
   17.6882   19.9613   23.1012 H   0  0  0  0  0  0  0  0  0  0  0  0
   18.8892   18.3251   22.3173 C   0  0  0  0  0  0  0  0  0  0  0  0
   19.1054   18.4485   21.2478 H   0  0  0  0  0  0  0  0  0  0  0  0
   19.9688   17.4147   22.9549 C   0  0  0  0  0  0  0  0  0  0  0  0
   19.7732   17.3137   24.0304 H   0  0  0  0  0  0  0  0  0  0  0  0
   19.8467   16.4076   22.5339 H   0  0  0  0  0  0  0  0  0  0  0  0
   21.4501   17.8295   22.7430 C   0  0  0  0  0  0  0  0  0  0  0  0
   21.6867   17.8965   21.6733 H   0  0  0  0  0  0  0  0  0  0  0  0
   22.0710   17.0066   23.1226 H   0  0  0  0  0  0  0  0  0  0  0  0
   21.8772   19.1189   23.4910 C   0  0  0  0  0  0  0  0  0  0  0  0
   22.8794   18.9544   23.9102 H   0  0  0  0  0  0  0  0  0  0  0  0
   21.2399   19.2852   24.3667 H   0  0  0  0  0  0  0  0  0  0  0  0
   17.6433   17.6504   22.4379 O   0  0  0  0  0  0  0  0  0  0  0  0
   17.4753   17.5489   23.3973 H   0  0  0  0  0  0  0  0  0  0  0  0
  1  2  1  0  0  0  0
  1  3  1  0  0  0  0
  1  4  1  0  0  0  0
  4  5  1  0  0  0  0
  4  6  1  0  0  0  0
  4  7  1  0  0  0  0
  7  8  1  0  0  0  0
  7  9  1  0  0  0  0
  7 10  1  0  0  0  0
 10 11  1  0  0  0  0
 10 12  1  0  0  0  0
 10 13  1  0  0  0  0
 13 14  1  0  0  0  0
 13 15  1  0  0  0  0
 15 16  1  0  0  0  0
 15 17  1  0  0  0  0
 15 18  1  0  0  0  0
 18 19  1  0  0  0  0
 18 20  1  0  0  0  0
  1 21  1  0  0  0  0
 18 21  1  0  0  0  0
 21 22  1  0  0  0  0
 21 23  1  0  0  0  0
 13 24  1  0  0  0  0
 24 25  1  0  0  0  0
M  END
> <VConfSearch Rank>
353

> <Conf_Id>
140

> <Delta U+W>
-1.702

> <U+W>
9.211

> <U>
11.181

> <W>
-1.969

> <W(PB)>
-4.093

> <W(SA)>
2.124

> <Valence>
16.954

> <Coulomb>
-8.661

> <VdW>
2.887

> <VdW6>
-12.561

> <VdW12>
15.448

> <Bond>
0.433

> <Angle>
5.120

> <Pdih>
11.401

> <Idih>
0.000

> <Tether>
0.000

$$$$
VeraChem MOL file


 25 25  0  0  0  0  0  0  0  0999 V2000     
   22.2892   18.7235   22.7616 C   0  0  0  0  0  0  0  0  0  0  0  0
   23.0300   19.4979   23.0024 H   0  0  0  0  0  0  0  0  0  0  0  0
   22.8641   17.7985   22.6173 H   0  0  0  0  0  0  0  0  0  0  0  0
   21.6151   19.0759   21.4104 C   0  0  0  0  0  0  0  0  0  0  0  0
   21.4116   20.1509   21.3491 H   0  0  0  0  0  0  0  0  0  0  0  0
   22.3585   18.8937   20.6222 H   0  0  0  0  0  0  0  0  0  0  0  0
   20.3414   18.2599   21.0695 C   0  0  0  0  0  0  0  0  0  0  0  0
   20.3460   17.2884   21.5804 H   0  0  0  0  0  0  0  0  0  0  0  0
   20.3799   18.0200   19.9980 H   0  0  0  0  0  0  0  0  0  0  0  0
   19.0034   19.0074   21.3186 C   0  0  0  0  0  0  0  0  0  0  0  0
   19.0101   19.9535   20.7618 H   0  0  0  0  0  0  0  0  0  0  0  0
   18.2022   18.4040   20.8713 H   0  0  0  0  0  0  0  0  0  0  0  0
   18.6188   19.2801   22.7946 C   0  0  0  0  0  0  0  0  0  0  0  0
   18.6428   18.3362   23.3553 H   0  0  0  0  0  0  0  0  0  0  0  0
   19.5126   20.3312   23.5023 C   0  0  0  0  0  0  0  0  0  0  0  0
   19.9941   20.9794   22.7630 H   0  0  0  0  0  0  0  0  0  0  0  0
   18.8788   21.0070   24.0923 H   0  0  0  0  0  0  0  0  0  0  0  0
   20.5725   19.7458   24.4715 C   0  0  0  0  0  0  0  0  0  0  0  0
   20.0590   19.4657   25.4015 H   0  0  0  0  0  0  0  0  0  0  0  0
   21.2791   20.5396   24.7490 H   0  0  0  0  0  0  0  0  0  0  0  0
   21.3619   18.5053   23.9833 C   0  0  0  0  0  0  0  0  0  0  0  0
   20.6828   17.6644   23.8014 H   0  0  0  0  0  0  0  0  0  0  0  0
   21.9949   18.1732   24.8175 H   0  0  0  0  0  0  0  0  0  0  0  0
   17.2800   19.7595   22.8002 O   0  0  0  0  0  0  0  0  0  0  0  0
   17.2838   20.5968   22.2924 H   0  0  0  0  0  0  0  0  0  0  0  0
  1  2  1  0  0  0  0
  1  3  1  0  0  0  0
  1  4  1  0  0  0  0
  4  5  1  0  0  0  0
  4  6  1  0  0  0  0
  4  7  1  0  0  0  0
  7  8  1  0  0  0  0
  7  9  1  0  0  0  0
  7 10  1  0  0  0  0
 10 11  1  0  0  0  0
 10 12  1  0  0  0  0
 10 13  1  0  0  0  0
 13 14  1  0  0  0  0
 13 15  1  0  0  0  0
 15 16  1  0  0  0  0
 15 17  1  0  0  0  0
 15 18  1  0  0  0  0
 18 19  1  0  0  0  0
 18 20  1  0  0  0  0
  1 21  1  0  0  0  0
 18 21  1  0  0  0  0
 21 22  1  0  0  0  0
 21 23  1  0  0  0  0
 13 24  1  0  0  0  0
 24 25  1  0  0  0  0
M  END
> <VConfSearch Rank>
354

> <Conf_Id>
68

> <Delta U+W>
-1.765

> <U+W>
9.148

> <U>
11.181

> <W>
-2.032

> <W(PB)>
-4.147

> <W(SA)>
2.114

> <Valence>
16.955

> <Coulomb>
-8.661

> <VdW>
2.887

> <VdW6>
-12.561

> <VdW12>
15.448

> <Bond>
0.433

> <Angle>
5.121

> <Pdih>
11.402

> <Idih>
0.000

> <Tether>
0.000

$$$$
VeraChem MOL file


 25 25  0  0  0  0  0  0  0  0999 V2000     
   20.1144   20.3207   24.1406 C   0  0  0  0  0  0  0  0  0  0  0  0
   20.1310   21.0468   24.9649 H   0  0  0  0  0  0  0  0  0  0  0  0
   19.5172   19.4865   24.5259 H   0  0  0  0  0  0  0  0  0  0  0  0
   21.5727   19.8678   23.8692 C   0  0  0  0  0  0  0  0  0  0  0  0
   22.0271   20.4588   23.0636 H   0  0  0  0  0  0  0  0  0  0  0  0
   22.1636   20.1038   24.7648 H   0  0  0  0  0  0  0  0  0  0  0  0
   21.7438   18.3493   23.6017 C   0  0  0  0  0  0  0  0  0  0  0  0
   21.3243   17.7816   24.4435 H   0  0  0  0  0  0  0  0  0  0  0  0
   22.8201   18.1292   23.6056 H   0  0  0  0  0  0  0  0  0  0  0  0
   21.1555   17.8054   22.2726 C   0  0  0  0  0  0  0  0  0  0  0  0
   21.5857   18.3406   21.4176 H   0  0  0  0  0  0  0  0  0  0  0  0
   21.5080   16.7699   22.1714 H   0  0  0  0  0  0  0  0  0  0  0  0
   19.6062   17.8091   22.2062 C   0  0  0  0  0  0  0  0  0  0  0  0
   19.2050   17.8659   23.2247 H   0  0  0  0  0  0  0  0  0  0  0  0
   18.9960   18.9502   21.3556 C   0  0  0  0  0  0  0  0  0  0  0  0
   19.1049   18.6902   20.2944 H   0  0  0  0  0  0  0  0  0  0  0  0
   17.9156   18.9852   21.5469 H   0  0  0  0  0  0  0  0  0  0  0  0
   19.5879   20.3704   21.5470 C   0  0  0  0  0  0  0  0  0  0  0  0
   19.0960   21.0304   20.8196 H   0  0  0  0  0  0  0  0  0  0  0  0
   20.6464   20.3862   21.2628 H   0  0  0  0  0  0  0  0  0  0  0  0
   19.3972   21.0044   22.9477 C   0  0  0  0  0  0  0  0  0  0  0  0
   18.3241   21.0766   23.1709 H   0  0  0  0  0  0  0  0  0  0  0  0
   19.7578   22.0405   22.8901 H   0  0  0  0  0  0  0  0  0  0  0  0
   19.1741   16.5773   21.6417 O   0  0  0  0  0  0  0  0  0  0  0  0
   19.5560   16.5363   20.7409 H   0  0  0  0  0  0  0  0  0  0  0  0
  1  2  1  0  0  0  0
  1  3  1  0  0  0  0
  1  4  1  0  0  0  0
  4  5  1  0  0  0  0
  4  6  1  0  0  0  0
  4  7  1  0  0  0  0
  7  8  1  0  0  0  0
  7  9  1  0  0  0  0
  7 10  1  0  0  0  0
 10 11  1  0  0  0  0
 10 12  1  0  0  0  0
 10 13  1  0  0  0  0
 13 14  1  0  0  0  0
 13 15  1  0  0  0  0
 15 16  1  0  0  0  0
 15 17  1  0  0  0  0
 15 18  1  0  0  0  0
 18 19  1  0  0  0  0
 18 20  1  0  0  0  0
  1 21  1  0  0  0  0
 18 21  1  0  0  0  0
 21 22  1  0  0  0  0
 21 23  1  0  0  0  0
 13 24  1  0  0  0  0
 24 25  1  0  0  0  0
M  END
> <VConfSearch Rank>
355

> <Conf_Id>
165

> <Delta U+W>
-1.999

> <U+W>
8.915

> <U>
10.935

> <W>
-2.020

> <W(PB)>
-4.135

> <W(SA)>
2.115

> <Valence>
16.757

> <Coulomb>
-8.731

> <VdW>
2.908

> <VdW6>
-12.597

> <VdW12>
15.506

> <Bond>
0.434

> <Angle>
5.069

> <Pdih>
11.254

> <Idih>
0.000

> <Tether>
0.000

$$$$
VeraChem MOL file


 25 25  0  0  0  0  0  0  0  0999 V2000     
   20.9018   20.5924   21.6527 C   0  0  0  0  0  0  0  0  0  0  0  0
   21.3354   21.3960   21.0417 H   0  0  0  0  0  0  0  0  0  0  0  0
   19.8462   20.8686   21.7542 H   0  0  0  0  0  0  0  0  0  0  0  0
   21.6153   20.6336   23.0292 C   0  0  0  0  0  0  0  0  0  0  0  0
   22.6851   20.8037   22.8458 H   0  0  0  0  0  0  0  0  0  0  0  0
   21.2670   21.5145   23.5853 H   0  0  0  0  0  0  0  0  0  0  0  0
   21.4953   19.3782   23.9291 C   0  0  0  0  0  0  0  0  0  0  0  0
   22.1337   19.5430   24.8077 H   0  0  0  0  0  0  0  0  0  0  0  0
   21.9338   18.5074   23.4284 H   0  0  0  0  0  0  0  0  0  0  0  0
   20.0727   19.0454   24.4482 C   0  0  0  0  0  0  0  0  0  0  0  0
   20.1671   18.2064   25.1508 H   0  0  0  0  0  0  0  0  0  0  0  0
   19.7031   19.8941   25.0381 H   0  0  0  0  0  0  0  0  0  0  0  0
   19.0037   18.6733   23.3916 C   0  0  0  0  0  0  0  0  0  0  0  0
   18.6428   19.5869   22.9048 H   0  0  0  0  0  0  0  0  0  0  0  0
   19.4888   17.6811   22.3033 C   0  0  0  0  0  0  0  0  0  0  0  0
   20.3485   17.1011   22.6591 H   0  0  0  0  0  0  0  0  0  0  0  0
   18.6961   16.9404   22.1311 H   0  0  0  0  0  0  0  0  0  0  0  0
   19.8034   18.3329   20.9303 C   0  0  0  0  0  0  0  0  0  0  0  0
   18.9193   18.8819   20.5783 H   0  0  0  0  0  0  0  0  0  0  0  0
   19.9559   17.5235   20.2034 H   0  0  0  0  0  0  0  0  0  0  0  0
   21.0444   19.2619   20.8685 C   0  0  0  0  0  0  0  0  0  0  0  0
   21.2012   19.5170   19.8115 H   0  0  0  0  0  0  0  0  0  0  0  0
   21.9509   18.7210   21.1689 H   0  0  0  0  0  0  0  0  0  0  0  0
   17.9078   18.0850   24.0832 O   0  0  0  0  0  0  0  0  0  0  0  0
   17.5941   18.7493   24.7319 H   0  0  0  0  0  0  0  0  0  0  0  0
  1  2  1  0  0  0  0
  1  3  1  0  0  0  0
  1  4  1  0  0  0  0
  4  5  1  0  0  0  0
  4  6  1  0  0  0  0
  4  7  1  0  0  0  0
  7  8  1  0  0  0  0
  7  9  1  0  0  0  0
  7 10  1  0  0  0  0
 10 11  1  0  0  0  0
 10 12  1  0  0  0  0
 10 13  1  0  0  0  0
 13 14  1  0  0  0  0
 13 15  1  0  0  0  0
 15 16  1  0  0  0  0
 15 17  1  0  0  0  0
 15 18  1  0  0  0  0
 18 19  1  0  0  0  0
 18 20  1  0  0  0  0
  1 21  1  0  0  0  0
 18 21  1  0  0  0  0
 21 22  1  0  0  0  0
 21 23  1  0  0  0  0
 13 24  1  0  0  0  0
 24 25  1  0  0  0  0
M  END
> <VConfSearch Rank>
356

> <Conf_Id>
133

> <Delta U+W>
-2.139

> <U+W>
8.774

> <U>
10.905

> <W>
-2.131

> <W(PB)>
-4.281

> <W(SA)>
2.150

> <Valence>
16.378

> <Coulomb>
-8.448

> <VdW>
2.976

> <VdW6>
-12.570

> <VdW12>
15.545

> <Bond>
0.439

> <Angle>
5.049

> <Pdih>
10.889

> <Idih>
0.000

> <Tether>
0.000

$$$$
VeraChem MOL file


 25 25  0  0  0  0  0  0  0  0999 V2000     
   18.9159   18.3348   23.4779 C   0  0  0  0  0  0  0  0  0  0  0  0
   18.1410   17.8006   24.0446 H   0  0  0  0  0  0  0  0  0  0  0  0
   18.5916   18.2553   22.4342 H   0  0  0  0  0  0  0  0  0  0  0  0
   20.2622   17.5942   23.6887 C   0  0  0  0  0  0  0  0  0  0  0  0
   20.8387   18.0463   24.5059 H   0  0  0  0  0  0  0  0  0  0  0  0
   20.0290   16.5771   24.0324 H   0  0  0  0  0  0  0  0  0  0  0  0
   21.1342   17.4517   22.4134 C   0  0  0  0  0  0  0  0  0  0  0  0
   20.5513   16.9524   21.6273 H   0  0  0  0  0  0  0  0  0  0  0  0
   21.9596   16.7659   22.6483 H   0  0  0  0  0  0  0  0  0  0  0  0
   21.7522   18.7561   21.8428 C   0  0  0  0  0  0  0  0  0  0  0  0
   22.3649   19.2552   22.6028 H   0  0  0  0  0  0  0  0  0  0  0  0
   22.4592   18.4575   21.0570 H   0  0  0  0  0  0  0  0  0  0  0  0
   20.7244   19.7410   21.2282 C   0  0  0  0  0  0  0  0  0  0  0  0
   19.8025   19.1947   20.9968 H   0  0  0  0  0  0  0  0  0  0  0  0
   20.3856   20.9603   22.1204 C   0  0  0  0  0  0  0  0  0  0  0  0
   21.2182   21.6739   22.0567 H   0  0  0  0  0  0  0  0  0  0  0  0
   19.5133   21.4742   21.6965 H   0  0  0  0  0  0  0  0  0  0  0  0
   20.1236   20.6861   23.6238 C   0  0  0  0  0  0  0  0  0  0  0  0
   19.9752   21.6587   24.1125 H   0  0  0  0  0  0  0  0  0  0  0  0
   21.0199   20.2719   24.0996 H   0  0  0  0  0  0  0  0  0  0  0  0
   18.8873   19.8115   23.9511 C   0  0  0  0  0  0  0  0  0  0  0  0
   17.9843   20.2956   23.5552 H   0  0  0  0  0  0  0  0  0  0  0  0
   18.7675   19.8100   25.0432 H   0  0  0  0  0  0  0  0  0  0  0  0
   21.2536   20.2417   20.0056 O   0  0  0  0  0  0  0  0  0  0  0  0
   20.5671   20.8240   19.6183 H   0  0  0  0  0  0  0  0  0  0  0  0
  1  2  1  0  0  0  0
  1  3  1  0  0  0  0
  1  4  1  0  0  0  0
  4  5  1  0  0  0  0
  4  6  1  0  0  0  0
  4  7  1  0  0  0  0
  7  8  1  0  0  0  0
  7  9  1  0  0  0  0
  7 10  1  0  0  0  0
 10 11  1  0  0  0  0
 10 12  1  0  0  0  0
 10 13  1  0  0  0  0
 13 14  1  0  0  0  0
 13 15  1  0  0  0  0
 15 16  1  0  0  0  0
 15 17  1  0  0  0  0
 15 18  1  0  0  0  0
 18 19  1  0  0  0  0
 18 20  1  0  0  0  0
  1 21  1  0  0  0  0
 18 21  1  0  0  0  0
 21 22  1  0  0  0  0
 21 23  1  0  0  0  0
 13 24  1  0  0  0  0
 24 25  1  0  0  0  0
M  END
> <VConfSearch Rank>
357

> <Conf_Id>
95

> <Delta U+W>
-2.190

> <U+W>
8.723

> <U>
10.905

> <W>
-2.182

> <W(PB)>
-4.296

> <W(SA)>
2.114

> <Valence>
16.377

> <Coulomb>
-8.448

> <VdW>
2.976

> <VdW6>
-12.570

> <VdW12>
15.546

> <Bond>
0.439

> <Angle>
5.049

> <Pdih>
10.889

> <Idih>
0.000

> <Tether>
0.000

$$$$
VeraChem MOL file


 25 25  0  0  0  0  0  0  0  0999 V2000     
   18.5693   18.5720   22.6385 C   0  0  0  0  0  0  0  0  0  0  0  0
   17.5303   18.2396   22.5083 H   0  0  0  0  0  0  0  0  0  0  0  0
   18.6595   18.7053   23.7212 H   0  0  0  0  0  0  0  0  0  0  0  0
   18.7081   19.9335   21.8959 C   0  0  0  0  0  0  0  0  0  0  0  0
   18.0647   19.8887   21.0065 H   0  0  0  0  0  0  0  0  0  0  0  0
   18.2822   20.7272   22.5244 H   0  0  0  0  0  0  0  0  0  0  0  0
   20.1175   20.3642   21.4115 C   0  0  0  0  0  0  0  0  0  0  0  0
   19.9986   21.2781   20.8137 H   0  0  0  0  0  0  0  0  0  0  0  0
   20.4904   19.6322   20.6882 H   0  0  0  0  0  0  0  0  0  0  0  0
   21.1900   20.6643   22.5006 C   0  0  0  0  0  0  0  0  0  0  0  0
   22.1869   20.5921   22.0461 H   0  0  0  0  0  0  0  0  0  0  0  0
   21.0702   21.7172   22.7876 H   0  0  0  0  0  0  0  0  0  0  0  0
   21.1660   19.8271   23.8045 C   0  0  0  0  0  0  0  0  0  0  0  0
   20.1809   19.9478   24.2669 H   0  0  0  0  0  0  0  0  0  0  0  0
   21.4983   18.3126   23.6759 C   0  0  0  0  0  0  0  0  0  0  0  0
   22.5898   18.2008   23.7255 H   0  0  0  0  0  0  0  0  0  0  0  0
   21.1085   17.7979   24.5633 H   0  0  0  0  0  0  0  0  0  0  0  0
   21.0250   17.5555   22.4056 C   0  0  0  0  0  0  0  0  0  0  0  0
   21.4431   16.5406   22.4493 H   0  0  0  0  0  0  0  0  0  0  0  0
   21.5055   17.9921   21.5244 H   0  0  0  0  0  0  0  0  0  0  0  0
   19.4910   17.4093   22.1846 C   0  0  0  0  0  0  0  0  0  0  0  0
   19.1648   16.5118   22.7277 H   0  0  0  0  0  0  0  0  0  0  0  0
   19.3040   17.1931   21.1241 H   0  0  0  0  0  0  0  0  0  0  0  0
   22.1216   20.3956   24.6923 O   0  0  0  0  0  0  0  0  0  0  0  0
   21.8671   21.3333   24.8192 H   0  0  0  0  0  0  0  0  0  0  0  0
  1  2  1  0  0  0  0
  1  3  1  0  0  0  0
  1  4  1  0  0  0  0
  4  5  1  0  0  0  0
  4  6  1  0  0  0  0
  4  7  1  0  0  0  0
  7  8  1  0  0  0  0
  7  9  1  0  0  0  0
  7 10  1  0  0  0  0
 10 11  1  0  0  0  0
 10 12  1  0  0  0  0
 10 13  1  0  0  0  0
 13 14  1  0  0  0  0
 13 15  1  0  0  0  0
 15 16  1  0  0  0  0
 15 17  1  0  0  0  0
 15 18  1  0  0  0  0
 18 19  1  0  0  0  0
 18 20  1  0  0  0  0
  1 21  1  0  0  0  0
 18 21  1  0  0  0  0
 21 22  1  0  0  0  0
 21 23  1  0  0  0  0
 13 24  1  0  0  0  0
 24 25  1  0  0  0  0
M  END
> <VConfSearch Rank>
358

> <Conf_Id>
161

> <Delta U+W>
2.120

> <U+W>
13.033

> <U>
15.076

> <W>
-2.043

> <W(PB)>
-4.186

> <W(SA)>
2.143

> <Valence>
18.884

> <Coulomb>
-8.074

> <VdW>
4.266

> <VdW6>
-13.486

> <VdW12>
17.752

> <Bond>
0.713

> <Angle>
8.955

> <Pdih>
9.215

> <Idih>
0.000

> <Tether>
0.000

$$$$
VeraChem MOL file


 25 25  0  0  0  0  0  0  0  0999 V2000     
   21.8549   20.3626   22.1934 C   0  0  0  0  0  0  0  0  0  0  0  0
   22.8497   20.8114   22.0669 H   0  0  0  0  0  0  0  0  0  0  0  0
   21.1516   21.1674   21.9448 H   0  0  0  0  0  0  0  0  0  0  0  0
   21.6961   19.9630   23.6816 C   0  0  0  0  0  0  0  0  0  0  0  0
   22.1049   18.9598   23.8622 H   0  0  0  0  0  0  0  0  0  0  0  0
   22.3317   20.6445   24.2637 H   0  0  0  0  0  0  0  0  0  0  0  0
   20.2563   20.0944   24.2517 C   0  0  0  0  0  0  0  0  0  0  0  0
   19.7454   20.9748   23.8392 H   0  0  0  0  0  0  0  0  0  0  0  0
   20.3581   20.2954   25.3271 H   0  0  0  0  0  0  0  0  0  0  0  0
   19.3711   18.8287   24.1139 C   0  0  0  0  0  0  0  0  0  0  0  0
   19.9908   17.9289   24.2095 H   0  0  0  0  0  0  0  0  0  0  0  0
   18.6946   18.7993   24.9782 H   0  0  0  0  0  0  0  0  0  0  0  0
   18.4755   18.7533   22.8514 C   0  0  0  0  0  0  0  0  0  0  0  0
   17.6811   19.5062   22.9557 H   0  0  0  0  0  0  0  0  0  0  0  0
   19.1751   19.0032   21.4953 C   0  0  0  0  0  0  0  0  0  0  0  0
   18.4907   18.6961   20.6932 H   0  0  0  0  0  0  0  0  0  0  0  0
   19.2972   20.0821   21.3513 H   0  0  0  0  0  0  0  0  0  0  0  0
   20.5269   18.2630   21.3106 C   0  0  0  0  0  0  0  0  0  0  0  0
   20.4675   17.6386   20.4088 H   0  0  0  0  0  0  0  0  0  0  0  0
   20.7089   17.5579   22.1297 H   0  0  0  0  0  0  0  0  0  0  0  0
   21.7462   19.2048   21.1662 C   0  0  0  0  0  0  0  0  0  0  0  0
   21.7370   19.6417   20.1583 H   0  0  0  0  0  0  0  0  0  0  0  0
   22.6592   18.5961   21.2194 H   0  0  0  0  0  0  0  0  0  0  0  0
   17.8809   17.4636   22.8122 O   0  0  0  0  0  0  0  0  0  0  0  0
   18.6016   16.8433   22.5805 H   0  0  0  0  0  0  0  0  0  0  0  0
  1  2  1  0  0  0  0
  1  3  1  0  0  0  0
  1  4  1  0  0  0  0
  4  5  1  0  0  0  0
  4  6  1  0  0  0  0
  4  7  1  0  0  0  0
  7  8  1  0  0  0  0
  7  9  1  0  0  0  0
  7 10  1  0  0  0  0
 10 11  1  0  0  0  0
 10 12  1  0  0  0  0
 10 13  1  0  0  0  0
 13 14  1  0  0  0  0
 13 15  1  0  0  0  0
 15 16  1  0  0  0  0
 15 17  1  0  0  0  0
 15 18  1  0  0  0  0
 18 19  1  0  0  0  0
 18 20  1  0  0  0  0
  1 21  1  0  0  0  0
 18 21  1  0  0  0  0
 21 22  1  0  0  0  0
 21 23  1  0  0  0  0
 13 24  1  0  0  0  0
 24 25  1  0  0  0  0
M  END
> <VConfSearch Rank>
359

> <Conf_Id>
164

> <Delta U+W>
0.008

> <U+W>
10.922

> <U>
12.433

> <W>
-1.511

> <W(PB)>
-3.669

> <W(SA)>
2.157

> <Valence>
19.007

> <Coulomb>
-9.373

> <VdW>
2.799

> <VdW6>
-12.597

> <VdW12>
15.396

> <Bond>
0.425

> <Angle>
4.784

> <Pdih>
13.799

> <Idih>
0.000

> <Tether>
0.000

$$$$
VeraChem MOL file


 25 25  0  0  0  0  0  0  0  0999 V2000     
   19.1447   17.9898   23.3095 C   0  0  0  0  0  0  0  0  0  0  0  0
   19.1719   18.7970   24.0502 H   0  0  0  0  0  0  0  0  0  0  0  0
   18.4381   17.2580   23.7243 H   0  0  0  0  0  0  0  0  0  0  0  0
   20.5256   17.2940   23.2171 C   0  0  0  0  0  0  0  0  0  0  0  0
   20.7561   16.8874   24.2113 H   0  0  0  0  0  0  0  0  0  0  0  0
   20.4498   16.4240   22.5509 H   0  0  0  0  0  0  0  0  0  0  0  0
   21.7277   18.1654   22.7715 C   0  0  0  0  0  0  0  0  0  0  0  0
   21.7660   18.2385   21.6786 H   0  0  0  0  0  0  0  0  0  0  0  0
   22.6417   17.6193   23.0424 H   0  0  0  0  0  0  0  0  0  0  0  0
   21.7977   19.5764   23.4142 C   0  0  0  0  0  0  0  0  0  0  0  0
   21.2662   19.5977   24.3733 H   0  0  0  0  0  0  0  0  0  0  0  0
   22.8501   19.7704   23.6612 H   0  0  0  0  0  0  0  0  0  0  0  0
   21.3274   20.7340   22.4982 C   0  0  0  0  0  0  0  0  0  0  0  0
   21.8818   20.6683   21.5511 H   0  0  0  0  0  0  0  0  0  0  0  0
   19.8143   20.7858   22.1690 C   0  0  0  0  0  0  0  0  0  0  0  0
   19.2176   20.8469   23.0872 H   0  0  0  0  0  0  0  0  0  0  0  0
   19.6331   21.7320   21.6416 H   0  0  0  0  0  0  0  0  0  0  0  0
   19.3061   19.6420   21.2513 C   0  0  0  0  0  0  0  0  0  0  0  0
   20.1285   19.2370   20.6506 H   0  0  0  0  0  0  0  0  0  0  0  0
   18.6152   20.0745   20.5147 H   0  0  0  0  0  0  0  0  0  0  0  0
   18.5469   18.5006   21.9749 C   0  0  0  0  0  0  0  0  0  0  0  0
   18.4298   17.6558   21.2828 H   0  0  0  0  0  0  0  0  0  0  0  0
   17.5286   18.8554   22.1851 H   0  0  0  0  0  0  0  0  0  0  0  0
   21.6712   21.9558   23.1371 O   0  0  0  0  0  0  0  0  0  0  0  0
   21.1627   21.9827   23.9735 H   0  0  0  0  0  0  0  0  0  0  0  0
  1  2  1  0  0  0  0
  1  3  1  0  0  0  0
  1  4  1  0  0  0  0
  4  5  1  0  0  0  0
  4  6  1  0  0  0  0
  4  7  1  0  0  0  0
  7  8  1  0  0  0  0
  7  9  1  0  0  0  0
  7 10  1  0  0  0  0
 10 11  1  0  0  0  0
 10 12  1  0  0  0  0
 10 13  1  0  0  0  0
 13 14  1  0  0  0  0
 13 15  1  0  0  0  0
 15 16  1  0  0  0  0
 15 17  1  0  0  0  0
 15 18  1  0  0  0  0
 18 19  1  0  0  0  0
 18 20  1  0  0  0  0
  1 21  1  0  0  0  0
 18 21  1  0  0  0  0
 21 22  1  0  0  0  0
 21 23  1  0  0  0  0
 13 24  1  0  0  0  0
 24 25  1  0  0  0  0
M  END
> <VConfSearch Rank>
360

> <Conf_Id>
15

> <Delta U+W>
-1.271

> <U+W>
9.643

> <U>
11.413

> <W>
-1.770

> <W(PB)>
-3.908

> <W(SA)>
2.138

> <Valence>
17.496

> <Coulomb>
-8.736

> <VdW>
2.653

> <VdW6>
-12.485

> <VdW12>
15.138

> <Bond>
0.414

> <Angle>
5.295

> <Pdih>
11.787

> <Idih>
0.000

> <Tether>
0.000

$$$$
VeraChem MOL file


 25 25  0  0  0  0  0  0  0  0999 V2000     
   20.8476   20.5532   21.3573 C   0  0  0  0  0  0  0  0  0  0  0  0
   20.9755   21.4141   20.6869 H   0  0  0  0  0  0  0  0  0  0  0  0
   21.3029   19.7111   20.8209 H   0  0  0  0  0  0  0  0  0  0  0  0
   21.6388   20.8677   22.6542 C   0  0  0  0  0  0  0  0  0  0  0  0
   22.7082   20.8907   22.4040 H   0  0  0  0  0  0  0  0  0  0  0  0
   21.3880   21.8845   22.9858 H   0  0  0  0  0  0  0  0  0  0  0  0
   21.4293   19.9031   23.8463 C   0  0  0  0  0  0  0  0  0  0  0  0
   20.4823   20.1380   24.3462 H   0  0  0  0  0  0  0  0  0  0  0  0
   22.2028   20.1158   24.5968 H   0  0  0  0  0  0  0  0  0  0  0  0
   21.5026   18.4010   23.4670 C   0  0  0  0  0  0  0  0  0  0  0  0
   21.8512   18.2746   22.4360 H   0  0  0  0  0  0  0  0  0  0  0  0
   22.2737   17.9241   24.0860 H   0  0  0  0  0  0  0  0  0  0  0  0
   20.1851   17.6208   23.6807 C   0  0  0  0  0  0  0  0  0  0  0  0
   20.0566   17.4759   24.7630 H   0  0  0  0  0  0  0  0  0  0  0  0
   18.8897   18.2901   23.1531 C   0  0  0  0  0  0  0  0  0  0  0  0
   18.0889   17.5423   23.2289 H   0  0  0  0  0  0  0  0  0  0  0  0
   18.5789   19.0930   23.8323 H   0  0  0  0  0  0  0  0  0  0  0  0
   18.9153   18.8189   21.6941 C   0  0  0  0  0  0  0  0  0  0  0  0
   17.8901   18.7327   21.3085 H   0  0  0  0  0  0  0  0  0  0  0  0
   19.5218   18.1713   21.0479 H   0  0  0  0  0  0  0  0  0  0  0  0
   19.3289   20.3081   21.5362 C   0  0  0  0  0  0  0  0  0  0  0  0
   18.9282   20.9209   22.3548 H   0  0  0  0  0  0  0  0  0  0  0  0
   18.8367   20.6803   20.6271 H   0  0  0  0  0  0  0  0  0  0  0  0
   20.3182   16.3481   23.0634 O   0  0  0  0  0  0  0  0  0  0  0  0
   20.3335   16.5182   22.1001 H   0  0  0  0  0  0  0  0  0  0  0  0
  1  2  1  0  0  0  0
  1  3  1  0  0  0  0
  1  4  1  0  0  0  0
  4  5  1  0  0  0  0
  4  6  1  0  0  0  0
  4  7  1  0  0  0  0
  7  8  1  0  0  0  0
  7  9  1  0  0  0  0
  7 10  1  0  0  0  0
 10 11  1  0  0  0  0
 10 12  1  0  0  0  0
 10 13  1  0  0  0  0
 13 14  1  0  0  0  0
 13 15  1  0  0  0  0
 15 16  1  0  0  0  0
 15 17  1  0  0  0  0
 15 18  1  0  0  0  0
 18 19  1  0  0  0  0
 18 20  1  0  0  0  0
  1 21  1  0  0  0  0
 18 21  1  0  0  0  0
 21 22  1  0  0  0  0
 21 23  1  0  0  0  0
 13 24  1  0  0  0  0
 24 25  1  0  0  0  0
M  END
> <VConfSearch Rank>
361

> <Conf_Id>
115

> <Delta U+W>
0.038

> <U+W>
10.952

> <U>
12.526

> <W>
-1.575

> <W(PB)>
-3.698

> <W(SA)>
2.123

> <Valence>
19.016

> <Coulomb>
-9.226

> <VdW>
2.737

> <VdW6>
-12.612

> <VdW12>
15.349

> <Bond>
0.421

> <Angle>
4.883

> <Pdih>
13.711

> <Idih>
0.000

> <Tether>
0.000

$$$$
VeraChem MOL file


 25 25  0  0  0  0  0  0  0  0999 V2000     
   18.5934   18.0240   22.4342 C   0  0  0  0  0  0  0  0  0  0  0  0
   17.8003   17.3622   22.8083 H   0  0  0  0  0  0  0  0  0  0  0  0
   18.2866   18.3054   21.4178 H   0  0  0  0  0  0  0  0  0  0  0  0
   19.8988   17.1963   22.3849 C   0  0  0  0  0  0  0  0  0  0  0  0
   20.1396   16.8119   23.3853 H   0  0  0  0  0  0  0  0  0  0  0  0
   19.7019   16.3092   21.7675 H   0  0  0  0  0  0  0  0  0  0  0  0
   21.1208   17.9309   21.7866 C   0  0  0  0  0  0  0  0  0  0  0  0
   20.8218   18.5124   20.9043 H   0  0  0  0  0  0  0  0  0  0  0  0
   21.8125   17.1649   21.4098 H   0  0  0  0  0  0  0  0  0  0  0  0
   21.9024   18.8045   22.8043 C   0  0  0  0  0  0  0  0  0  0  0  0
   21.6056   18.5770   23.8358 H   0  0  0  0  0  0  0  0  0  0  0  0
   22.9610   18.5194   22.7353 H   0  0  0  0  0  0  0  0  0  0  0  0
   21.8034   20.3254   22.5495 C   0  0  0  0  0  0  0  0  0  0  0  0
   21.7813   20.5037   21.4648 H   0  0  0  0  0  0  0  0  0  0  0  0
   20.5775   21.0084   23.1954 C   0  0  0  0  0  0  0  0  0  0  0  0
   20.6162   20.8929   24.2866 H   0  0  0  0  0  0  0  0  0  0  0  0
   20.6613   22.0866   23.0060 H   0  0  0  0  0  0  0  0  0  0  0  0
   19.2006   20.5463   22.6594 C   0  0  0  0  0  0  0  0  0  0  0  0
   19.2336   20.4322   21.5676 H   0  0  0  0  0  0  0  0  0  0  0  0
   18.4875   21.3614   22.8449 H   0  0  0  0  0  0  0  0  0  0  0  0
   18.6380   19.2736   23.3448 C   0  0  0  0  0  0  0  0  0  0  0  0
   17.6050   19.4935   23.6479 H   0  0  0  0  0  0  0  0  0  0  0  0
   19.1723   19.0493   24.2775 H   0  0  0  0  0  0  0  0  0  0  0  0
   22.9679   20.9389   23.0891 O   0  0  0  0  0  0  0  0  0  0  0  0
   22.9126   21.8926   22.8707 H   0  0  0  0  0  0  0  0  0  0  0  0
  1  2  1  0  0  0  0
  1  3  1  0  0  0  0
  1  4  1  0  0  0  0
  4  5  1  0  0  0  0
  4  6  1  0  0  0  0
  4  7  1  0  0  0  0
  7  8  1  0  0  0  0
  7  9  1  0  0  0  0
  7 10  1  0  0  0  0
 10 11  1  0  0  0  0
 10 12  1  0  0  0  0
 10 13  1  0  0  0  0
 13 14  1  0  0  0  0
 13 15  1  0  0  0  0
 15 16  1  0  0  0  0
 15 17  1  0  0  0  0
 15 18  1  0  0  0  0
 18 19  1  0  0  0  0
 18 20  1  0  0  0  0
  1 21  1  0  0  0  0
 18 21  1  0  0  0  0
 21 22  1  0  0  0  0
 21 23  1  0  0  0  0
 13 24  1  0  0  0  0
 24 25  1  0  0  0  0
M  END
> <VConfSearch Rank>
362

> <Conf_Id>
30

> <Delta U+W>
0.000

> <U+W>
10.913

> <U>
13.140

> <W>
-2.227

> <W(PB)>
-4.367

> <W(SA)>
2.140

> <Valence>
19.155

> <Coulomb>
-8.157

> <VdW>
2.142

> <VdW6>
-11.576

> <VdW12>
13.718

> <Bond>
0.294

> <Angle>
3.547

> <Pdih>
15.314

> <Idih>
0.000

> <Tether>
0.000

$$$$
VeraChem MOL file


 25 25  0  0  0  0  0  0  0  0999 V2000     
   22.3135   19.9100   22.3963 C   0  0  0  0  0  0  0  0  0  0  0  0
   23.0975   19.6632   21.6674 H   0  0  0  0  0  0  0  0  0  0  0  0
   22.7819   20.5965   23.1147 H   0  0  0  0  0  0  0  0  0  0  0  0
   21.9181   18.6158   23.1493 C   0  0  0  0  0  0  0  0  0  0  0  0
   22.8412   18.0781   23.4054 H   0  0  0  0  0  0  0  0  0  0  0  0
   21.4712   18.8744   24.1162 H   0  0  0  0  0  0  0  0  0  0  0  0
   20.9972   17.6630   22.3457 C   0  0  0  0  0  0  0  0  0  0  0  0
   21.4726   16.6741   22.2931 H   0  0  0  0  0  0  0  0  0  0  0  0
   20.9101   17.9872   21.3022 H   0  0  0  0  0  0  0  0  0  0  0  0
   19.5844   17.4847   22.9570 C   0  0  0  0  0  0  0  0  0  0  0  0
   18.9559   16.9549   22.2289 H   0  0  0  0  0  0  0  0  0  0  0  0
   19.6638   16.8197   23.8268 H   0  0  0  0  0  0  0  0  0  0  0  0
   18.8524   18.7712   23.4145 C   0  0  0  0  0  0  0  0  0  0  0  0
   19.3417   19.1645   24.3155 H   0  0  0  0  0  0  0  0  0  0  0  0
   18.7829   19.8996   22.3566 C   0  0  0  0  0  0  0  0  0  0  0  0
   18.7442   19.4732   21.3461 H   0  0  0  0  0  0  0  0  0  0  0  0
   17.8294   20.4292   22.4846 H   0  0  0  0  0  0  0  0  0  0  0  0
   19.9063   20.9693   22.4644 C   0  0  0  0  0  0  0  0  0  0  0  0
   20.1567   21.1790   23.5131 H   0  0  0  0  0  0  0  0  0  0  0  0
   19.4919   21.9077   22.0707 H   0  0  0  0  0  0  0  0  0  0  0  0
   21.1844   20.6640   21.6446 C   0  0  0  0  0  0  0  0  0  0  0  0
   21.6073   21.6214   21.3104 H   0  0  0  0  0  0  0  0  0  0  0  0
   20.9190   20.1383   20.7186 H   0  0  0  0  0  0  0  0  0  0  0  0
   17.5239   18.3978   23.7610 O   0  0  0  0  0  0  0  0  0  0  0  0
   17.0913   19.1985   24.1245 H   0  0  0  0  0  0  0  0  0  0  0  0
  1  2  1  0  0  0  0
  1  3  1  0  0  0  0
  1  4  1  0  0  0  0
  4  5  1  0  0  0  0
  4  6  1  0  0  0  0
  4  7  1  0  0  0  0
  7  8  1  0  0  0  0
  7  9  1  0  0  0  0
  7 10  1  0  0  0  0
 10 11  1  0  0  0  0
 10 12  1  0  0  0  0
 10 13  1  0  0  0  0
 13 14  1  0  0  0  0
 13 15  1  0  0  0  0
 15 16  1  0  0  0  0
 15 17  1  0  0  0  0
 15 18  1  0  0  0  0
 18 19  1  0  0  0  0
 18 20  1  0  0  0  0
  1 21  1  0  0  0  0
 18 21  1  0  0  0  0
 21 22  1  0  0  0  0
 21 23  1  0  0  0  0
 13 24  1  0  0  0  0
 24 25  1  0  0  0  0
M  END
> <VConfSearch Rank>
363

> <Conf_Id>
162

> <Delta U+W>
0.219

> <U+W>
11.132

> <U>
13.296

> <W>
-2.164

> <W(PB)>
-4.311

> <W(SA)>
2.148

> <Valence>
18.607

> <Coulomb>
-8.339

> <VdW>
3.028

> <VdW6>
-12.271

> <VdW12>
15.299

> <Bond>
0.423

> <Angle>
4.488

> <Pdih>
13.696

> <Idih>
0.000

> <Tether>
0.000

$$$$
VeraChem MOL file


 25 25  0  0  0  0  0  0  0  0999 V2000     
   21.3893   20.8794   22.1968 C   0  0  0  0  0  0  0  0  0  0  0  0
   21.9947   20.7004   23.0943 H   0  0  0  0  0  0  0  0  0  0  0  0
   21.8389   21.7656   21.7283 H   0  0  0  0  0  0  0  0  0  0  0  0
   21.5377   19.6916   21.2135 C   0  0  0  0  0  0  0  0  0  0  0  0
   20.7018   19.6681   20.5015 H   0  0  0  0  0  0  0  0  0  0  0  0
   22.4312   19.8909   20.6060 H   0  0  0  0  0  0  0  0  0  0  0  0
   21.7470   18.3031   21.8797 C   0  0  0  0  0  0  0  0  0  0  0  0
   22.3735   18.3843   22.7781 H   0  0  0  0  0  0  0  0  0  0  0  0
   22.3303   17.6969   21.1730 H   0  0  0  0  0  0  0  0  0  0  0  0
   20.4479   17.5121   22.1827 C   0  0  0  0  0  0  0  0  0  0  0  0
   19.6941   17.7219   21.4139 H   0  0  0  0  0  0  0  0  0  0  0  0
   20.6729   16.4432   22.0734 H   0  0  0  0  0  0  0  0  0  0  0  0
   19.8463   17.6936   23.5992 C   0  0  0  0  0  0  0  0  0  0  0  0
   20.5136   17.1921   24.3150 H   0  0  0  0  0  0  0  0  0  0  0  0
   19.6639   19.1515   24.0844 C   0  0  0  0  0  0  0  0  0  0  0  0
   19.0452   19.1432   24.9912 H   0  0  0  0  0  0  0  0  0  0  0  0
   20.6322   19.5388   24.4189 H   0  0  0  0  0  0  0  0  0  0  0  0
   19.0148   20.1053   23.0469 C   0  0  0  0  0  0  0  0  0  0  0  0
   18.1090   20.5430   23.4877 H   0  0  0  0  0  0  0  0  0  0  0  0
   18.6582   19.5482   22.1724 H   0  0  0  0  0  0  0  0  0  0  0  0
   19.9358   21.2602   22.5847 C   0  0  0  0  0  0  0  0  0  0  0  0
   19.9817   22.0146   23.3819 H   0  0  0  0  0  0  0  0  0  0  0  0
   19.4591   21.7583   21.7295 H   0  0  0  0  0  0  0  0  0  0  0  0
   18.5790   17.0474   23.6192 O   0  0  0  0  0  0  0  0  0  0  0  0
   18.2126   17.1737   24.5186 H   0  0  0  0  0  0  0  0  0  0  0  0
  1  2  1  0  0  0  0
  1  3  1  0  0  0  0
  1  4  1  0  0  0  0
  4  5  1  0  0  0  0
  4  6  1  0  0  0  0
  4  7  1  0  0  0  0
  7  8  1  0  0  0  0
  7  9  1  0  0  0  0
  7 10  1  0  0  0  0
 10 11  1  0  0  0  0
 10 12  1  0  0  0  0
 10 13  1  0  0  0  0
 13 14  1  0  0  0  0
 13 15  1  0  0  0  0
 15 16  1  0  0  0  0
 15 17  1  0  0  0  0
 15 18  1  0  0  0  0
 18 19  1  0  0  0  0
 18 20  1  0  0  0  0
  1 21  1  0  0  0  0
 18 21  1  0  0  0  0
 21 22  1  0  0  0  0
 21 23  1  0  0  0  0
 13 24  1  0  0  0  0
 24 25  1  0  0  0  0
M  END
> <VConfSearch Rank>
364

> <Conf_Id>
155

> <Delta U+W>
0.339

> <U+W>
11.252

> <U>
13.420

> <W>
-2.167

> <W(PB)>
-4.325

> <W(SA)>
2.157

> <Valence>
18.609

> <Coulomb>
-8.052

> <VdW>
2.863

> <VdW6>
-12.524

> <VdW12>
15.387

> <Bond>
0.430

> <Angle>
4.724

> <Pdih>
13.455

> <Idih>
0.000

> <Tether>
0.000

$$$$
VeraChem MOL file


 25 25  0  0  0  0  0  0  0  0999 V2000     
   21.6830   18.9221   21.2034 C   0  0  0  0  0  0  0  0  0  0  0  0
   22.5319   18.2827   21.4807 H   0  0  0  0  0  0  0  0  0  0  0  0
   21.8480   19.1863   20.1499 H   0  0  0  0  0  0  0  0  0  0  0  0
   20.3757   18.0887   21.2596 C   0  0  0  0  0  0  0  0  0  0  0  0
   19.5469   18.6896   20.8720 H   0  0  0  0  0  0  0  0  0  0  0  0
   20.4684   17.2760   20.5264 H   0  0  0  0  0  0  0  0  0  0  0  0
   19.9964   17.4352   22.6206 C   0  0  0  0  0  0  0  0  0  0  0  0
   20.5100   16.4658   22.6745 H   0  0  0  0  0  0  0  0  0  0  0  0
   18.9236   17.1993   22.6156 H   0  0  0  0  0  0  0  0  0  0  0  0
   20.3417   18.2048   23.9247 C   0  0  0  0  0  0  0  0  0  0  0  0
   20.1320   17.5329   24.7672 H   0  0  0  0  0  0  0  0  0  0  0  0
   21.4245   18.3454   23.9829 H   0  0  0  0  0  0  0  0  0  0  0  0
   19.6069   19.5507   24.1945 C   0  0  0  0  0  0  0  0  0  0  0  0
   20.2313   20.1416   24.8798 H   0  0  0  0  0  0  0  0  0  0  0  0
   19.2651   20.4418   22.9740 C   0  0  0  0  0  0  0  0  0  0  0  0
   18.5917   19.8935   22.3088 H   0  0  0  0  0  0  0  0  0  0  0  0
   18.6491   21.2753   23.3363 H   0  0  0  0  0  0  0  0  0  0  0  0
   20.4476   21.0662   22.1739 C   0  0  0  0  0  0  0  0  0  0  0  0
   20.7183   22.0087   22.6692 H   0  0  0  0  0  0  0  0  0  0  0  0
   20.0890   21.3526   21.1760 H   0  0  0  0  0  0  0  0  0  0  0  0
   21.7526   20.2400   22.0293 C   0  0  0  0  0  0  0  0  0  0  0  0
   22.1781   20.0561   23.0209 H   0  0  0  0  0  0  0  0  0  0  0  0
   22.5001   20.8836   21.5457 H   0  0  0  0  0  0  0  0  0  0  0  0
   18.3772   19.2530   24.8468 O   0  0  0  0  0  0  0  0  0  0  0  0
   18.5997   18.7333   25.6466 H   0  0  0  0  0  0  0  0  0  0  0  0
  1  2  1  0  0  0  0
  1  3  1  0  0  0  0
  1  4  1  0  0  0  0
  4  5  1  0  0  0  0
  4  6  1  0  0  0  0
  4  7  1  0  0  0  0
  7  8  1  0  0  0  0
  7  9  1  0  0  0  0
  7 10  1  0  0  0  0
 10 11  1  0  0  0  0
 10 12  1  0  0  0  0
 10 13  1  0  0  0  0
 13 14  1  0  0  0  0
 13 15  1  0  0  0  0
 15 16  1  0  0  0  0
 15 17  1  0  0  0  0
 15 18  1  0  0  0  0
 18 19  1  0  0  0  0
 18 20  1  0  0  0  0
  1 21  1  0  0  0  0
 18 21  1  0  0  0  0
 21 22  1  0  0  0  0
 21 23  1  0  0  0  0
 13 24  1  0  0  0  0
 24 25  1  0  0  0  0
M  END
> <VConfSearch Rank>
365

> <Conf_Id>
146

> <Delta U+W>
2.553

> <U+W>
13.466

> <U>
15.643

> <W>
-2.176

> <W(PB)>
-4.307

> <W(SA)>
2.131

> <Valence>
18.916

> <Coulomb>
-7.506

> <VdW>
4.232

> <VdW6>
-13.632

> <VdW12>
17.864

> <Bond>
0.735

> <Angle>
9.140

> <Pdih>
9.042

> <Idih>
0.000

> <Tether>
0.000

$$$$
VeraChem MOL file


 25 25  0  0  0  0  0  0  0  0999 V2000     
   19.8264   17.2812   22.2460 C   0  0  0  0  0  0  0  0  0  0  0  0
   19.3998   16.9673   21.2837 H   0  0  0  0  0  0  0  0  0  0  0  0
   19.9054   16.3654   22.8476 H   0  0  0  0  0  0  0  0  0  0  0  0
   18.8279   18.2223   22.9653 C   0  0  0  0  0  0  0  0  0  0  0  0
   17.9039   17.6518   23.1308 H   0  0  0  0  0  0  0  0  0  0  0  0
   19.1878   18.4619   23.9724 H   0  0  0  0  0  0  0  0  0  0  0  0
   18.4398   19.5151   22.2047 C   0  0  0  0  0  0  0  0  0  0  0  0
   17.6469   20.0120   22.7804 H   0  0  0  0  0  0  0  0  0  0  0  0
   17.9850   19.2471   21.2415 H   0  0  0  0  0  0  0  0  0  0  0  0
   19.5673   20.5513   21.9583 C   0  0  0  0  0  0  0  0  0  0  0  0
   20.1609   20.2667   21.0838 H   0  0  0  0  0  0  0  0  0  0  0  0
   19.0823   21.4925   21.6659 H   0  0  0  0  0  0  0  0  0  0  0  0
   20.4951   20.8157   23.1721 C   0  0  0  0  0  0  0  0  0  0  0  0
   19.9924   20.4988   24.0958 H   0  0  0  0  0  0  0  0  0  0  0  0
   21.8775   20.1217   23.0762 C   0  0  0  0  0  0  0  0  0  0  0  0
   22.3634   20.4146   22.1361 H   0  0  0  0  0  0  0  0  0  0  0  0
   22.5139   20.5221   23.8762 H   0  0  0  0  0  0  0  0  0  0  0  0
   21.8963   18.5741   23.2029 C   0  0  0  0  0  0  0  0  0  0  0  0
   21.4508   18.2554   24.1541 H   0  0  0  0  0  0  0  0  0  0  0  0
   22.9503   18.2704   23.2645 H   0  0  0  0  0  0  0  0  0  0  0  0
   21.2626   17.8154   22.0083 C   0  0  0  0  0  0  0  0  0  0  0  0
   21.8958   16.9469   21.7806 H   0  0  0  0  0  0  0  0  0  0  0  0
   21.3020   18.4266   21.0996 H   0  0  0  0  0  0  0  0  0  0  0  0
   20.7298   22.2170   23.2520 O   0  0  0  0  0  0  0  0  0  0  0  0
   21.2677   22.3687   24.0570 H   0  0  0  0  0  0  0  0  0  0  0  0
  1  2  1  0  0  0  0
  1  3  1  0  0  0  0
  1  4  1  0  0  0  0
  4  5  1  0  0  0  0
  4  6  1  0  0  0  0
  4  7  1  0  0  0  0
  7  8  1  0  0  0  0
  7  9  1  0  0  0  0
  7 10  1  0  0  0  0
 10 11  1  0  0  0  0
 10 12  1  0  0  0  0
 10 13  1  0  0  0  0
 13 14  1  0  0  0  0
 13 15  1  0  0  0  0
 15 16  1  0  0  0  0
 15 17  1  0  0  0  0
 15 18  1  0  0  0  0
 18 19  1  0  0  0  0
 18 20  1  0  0  0  0
  1 21  1  0  0  0  0
 18 21  1  0  0  0  0
 21 22  1  0  0  0  0
 21 23  1  0  0  0  0
 13 24  1  0  0  0  0
 24 25  1  0  0  0  0
M  END
> <VConfSearch Rank>
366

> <Conf_Id>
62

> <Delta U+W>
-1.779

> <U+W>
9.134

> <U>
11.364

> <W>
-2.230

> <W(PB)>
-4.359

> <W(SA)>
2.129

> <Valence>
16.582

> <Coulomb>
-8.150

> <VdW>
2.933

> <VdW6>
-12.531

> <VdW12>
15.464

> <Bond>
0.439

> <Angle>
5.099

> <Pdih>
11.044

> <Idih>
0.000

> <Tether>
0.000

$$$$
VeraChem MOL file


 25 25  0  0  0  0  0  0  0  0999 V2000     
   18.6238   19.2767   23.3337 C   0  0  0  0  0  0  0  0  0  0  0  0
   19.1514   20.0752   23.8678 H   0  0  0  0  0  0  0  0  0  0  0  0
   17.6012   19.3052   23.7338 H   0  0  0  0  0  0  0  0  0  0  0  0
   19.2224   17.8954   23.6990 C   0  0  0  0  0  0  0  0  0  0  0  0
   19.1092   17.7645   24.7839 H   0  0  0  0  0  0  0  0  0  0  0  0
   18.6152   17.1038   23.2395 H   0  0  0  0  0  0  0  0  0  0  0  0
   20.7125   17.6554   23.3459 C   0  0  0  0  0  0  0  0  0  0  0  0
   20.8153   17.3502   22.2984 H   0  0  0  0  0  0  0  0  0  0  0  0
   21.0443   16.7798   23.9206 H   0  0  0  0  0  0  0  0  0  0  0  0
   21.6682   18.8359   23.6656 C   0  0  0  0  0  0  0  0  0  0  0  0
   21.2536   19.4770   24.4533 H   0  0  0  0  0  0  0  0  0  0  0  0
   22.5827   18.4056   24.0945 H   0  0  0  0  0  0  0  0  0  0  0  0
   22.0890   19.6853   22.4397 C   0  0  0  0  0  0  0  0  0  0  0  0
   22.4906   19.0078   21.6725 H   0  0  0  0  0  0  0  0  0  0  0  0
   20.9806   20.5484   21.7868 C   0  0  0  0  0  0  0  0  0  0  0  0
   20.5488   21.2394   22.5209 H   0  0  0  0  0  0  0  0  0  0  0  0
   21.4713   21.1890   21.0420 H   0  0  0  0  0  0  0  0  0  0  0  0
   19.8730   19.7474   21.0512 C   0  0  0  0  0  0  0  0  0  0  0  0
   20.2484   18.7642   20.7459 H   0  0  0  0  0  0  0  0  0  0  0  0
   19.6487   20.2611   20.1063 H   0  0  0  0  0  0  0  0  0  0  0  0
   18.5358   19.6045   21.8223 C   0  0  0  0  0  0  0  0  0  0  0  0
   17.9149   18.8488   21.3224 H   0  0  0  0  0  0  0  0  0  0  0  0
   17.9883   20.5518   21.7228 H   0  0  0  0  0  0  0  0  0  0  0  0
   23.1246   20.5650   22.8593 O   0  0  0  0  0  0  0  0  0  0  0  0
   23.8486   20.0043   23.2078 H   0  0  0  0  0  0  0  0  0  0  0  0
  1  2  1  0  0  0  0
  1  3  1  0  0  0  0
  1  4  1  0  0  0  0
  4  5  1  0  0  0  0
  4  6  1  0  0  0  0
  4  7  1  0  0  0  0
  7  8  1  0  0  0  0
  7  9  1  0  0  0  0
  7 10  1  0  0  0  0
 10 11  1  0  0  0  0
 10 12  1  0  0  0  0
 10 13  1  0  0  0  0
 13 14  1  0  0  0  0
 13 15  1  0  0  0  0
 15 16  1  0  0  0  0
 15 17  1  0  0  0  0
 15 18  1  0  0  0  0
 18 19  1  0  0  0  0
 18 20  1  0  0  0  0
  1 21  1  0  0  0  0
 18 21  1  0  0  0  0
 21 22  1  0  0  0  0
 21 23  1  0  0  0  0
 13 24  1  0  0  0  0
 24 25  1  0  0  0  0
M  END
> <VConfSearch Rank>
367

> <Conf_Id>
121

> <Delta U+W>
-1.283

> <U+W>
9.630

> <U>
11.876

> <W>
-2.246

> <W(PB)>
-4.376

> <W(SA)>
2.130

> <Valence>
17.153

> <Coulomb>
-7.966

> <VdW>
2.689

> <VdW6>
-12.458

> <VdW12>
15.147

> <Bond>
0.421

> <Angle>
5.258

> <Pdih>
11.475

> <Idih>
0.000

> <Tether>
0.000

$$$$
VeraChem MOL file


 25 25  0  0  0  0  0  0  0  0999 V2000     
   20.5128   21.0679   22.2464 C   0  0  0  0  0  0  0  0  0  0  0  0
   20.0522   20.6255   21.3557 H   0  0  0  0  0  0  0  0  0  0  0  0
   20.5980   22.1375   22.0113 H   0  0  0  0  0  0  0  0  0  0  0  0
   21.9502   20.5230   22.4381 C   0  0  0  0  0  0  0  0  0  0  0  0
   22.5257   20.7917   21.5418 H   0  0  0  0  0  0  0  0  0  0  0  0
   22.4317   21.0540   23.2704 H   0  0  0  0  0  0  0  0  0  0  0  0
   22.1036   18.9964   22.6592 C   0  0  0  0  0  0  0  0  0  0  0  0
   21.9402   18.7416   23.7125 H   0  0  0  0  0  0  0  0  0  0  0  0
   23.1578   18.7470   22.4768 H   0  0  0  0  0  0  0  0  0  0  0  0
   21.2283   18.1019   21.7408 C   0  0  0  0  0  0  0  0  0  0  0  0
   20.9624   18.6254   20.8145 H   0  0  0  0  0  0  0  0  0  0  0  0
   21.8478   17.2523   21.4241 H   0  0  0  0  0  0  0  0  0  0  0  0
   19.9637   17.5120   22.4136 C   0  0  0  0  0  0  0  0  0  0  0  0
   20.2745   17.0010   23.3362 H   0  0  0  0  0  0  0  0  0  0  0  0
   18.8404   18.5181   22.7704 C   0  0  0  0  0  0  0  0  0  0  0  0
   18.5072   19.0558   21.8743 H   0  0  0  0  0  0  0  0  0  0  0  0
   17.9702   17.9340   23.0975 H   0  0  0  0  0  0  0  0  0  0  0  0
   19.1871   19.5051   23.9172 C   0  0  0  0  0  0  0  0  0  0  0  0
   19.9679   19.0864   24.5621 H   0  0  0  0  0  0  0  0  0  0  0  0
   18.3088   19.5933   24.5713 H   0  0  0  0  0  0  0  0  0  0  0  0
   19.5654   20.9387   23.4652 C   0  0  0  0  0  0  0  0  0  0  0  0
   19.9964   21.4794   24.3186 H   0  0  0  0  0  0  0  0  0  0  0  0
   18.6358   21.4687   23.2167 H   0  0  0  0  0  0  0  0  0  0  0  0
   19.4141   16.5502   21.5218 O   0  0  0  0  0  0  0  0  0  0  0  0
   18.6564   16.1355   21.9844 H   0  0  0  0  0  0  0  0  0  0  0  0
  1  2  1  0  0  0  0
  1  3  1  0  0  0  0
  1  4  1  0  0  0  0
  4  5  1  0  0  0  0
  4  6  1  0  0  0  0
  4  7  1  0  0  0  0
  7  8  1  0  0  0  0
  7  9  1  0  0  0  0
  7 10  1  0  0  0  0
 10 11  1  0  0  0  0
 10 12  1  0  0  0  0
 10 13  1  0  0  0  0
 13 14  1  0  0  0  0
 13 15  1  0  0  0  0
 15 16  1  0  0  0  0
 15 17  1  0  0  0  0
 15 18  1  0  0  0  0
 18 19  1  0  0  0  0
 18 20  1  0  0  0  0
  1 21  1  0  0  0  0
 18 21  1  0  0  0  0
 21 22  1  0  0  0  0
 21 23  1  0  0  0  0
 13 24  1  0  0  0  0
 24 25  1  0  0  0  0
M  END
> <VConfSearch Rank>
368

> <Conf_Id>
24

> <Delta U+W>
-1.236

> <U+W>
9.678

> <U>
11.876

> <W>
-2.199

> <W(PB)>
-4.335

> <W(SA)>
2.137

> <Valence>
17.153

> <Coulomb>
-7.966

> <VdW>
2.689

> <VdW6>
-12.458

> <VdW12>
15.147

> <Bond>
0.421

> <Angle>
5.258

> <Pdih>
11.475

> <Idih>
0.000

> <Tether>
0.000

$$$$
VeraChem MOL file


 25 25  0  0  0  0  0  0  0  0999 V2000     
   21.6839   19.0033   21.0482 C   0  0  0  0  0  0  0  0  0  0  0  0
   22.1917   19.8664   20.5966 H   0  0  0  0  0  0  0  0  0  0  0  0
   22.0151   18.1288   20.4716 H   0  0  0  0  0  0  0  0  0  0  0  0
   22.1863   18.8319   22.5064 C   0  0  0  0  0  0  0  0  0  0  0  0
   21.9659   17.8220   22.8749 H   0  0  0  0  0  0  0  0  0  0  0  0
   23.2833   18.8841   22.4746 H   0  0  0  0  0  0  0  0  0  0  0  0
   21.6891   19.8871   23.5251 C   0  0  0  0  0  0  0  0  0  0  0  0
   21.5846   20.8710   23.0480 H   0  0  0  0  0  0  0  0  0  0  0  0
   22.4857   20.0092   24.2720 H   0  0  0  0  0  0  0  0  0  0  0  0
   20.3988   19.4992   24.3014 C   0  0  0  0  0  0  0  0  0  0  0  0
   20.3836   18.4241   24.5210 H   0  0  0  0  0  0  0  0  0  0  0  0
   20.4590   19.9985   25.2781 H   0  0  0  0  0  0  0  0  0  0  0  0
   19.0744   19.9352   23.6283 C   0  0  0  0  0  0  0  0  0  0  0  0
   19.2667   20.8367   23.0316 H   0  0  0  0  0  0  0  0  0  0  0  0
   18.3996   18.8639   22.7346 C   0  0  0  0  0  0  0  0  0  0  0  0
   17.9712   18.0772   23.3694 H   0  0  0  0  0  0  0  0  0  0  0  0
   17.5493   19.3404   22.2291 H   0  0  0  0  0  0  0  0  0  0  0  0
   19.2887   18.1877   21.6608 C   0  0  0  0  0  0  0  0  0  0  0  0
   18.6321   17.6430   20.9688 H   0  0  0  0  0  0  0  0  0  0  0  0
   19.9072   17.4124   22.1276 H   0  0  0  0  0  0  0  0  0  0  0  0
   20.1587   19.1774   20.8453 C   0  0  0  0  0  0  0  0  0  0  0  0
   19.8759   20.2159   21.0531 H   0  0  0  0  0  0  0  0  0  0  0  0
   19.9410   19.0386   19.7775 H   0  0  0  0  0  0  0  0  0  0  0  0
   18.1458   20.2781   24.6490 O   0  0  0  0  0  0  0  0  0  0  0  0
   18.0054   19.4670   25.1796 H   0  0  0  0  0  0  0  0  0  0  0  0
  1  2  1  0  0  0  0
  1  3  1  0  0  0  0
  1  4  1  0  0  0  0
  4  5  1  0  0  0  0
  4  6  1  0  0  0  0
  4  7  1  0  0  0  0
  7  8  1  0  0  0  0
  7  9  1  0  0  0  0
  7 10  1  0  0  0  0
 10 11  1  0  0  0  0
 10 12  1  0  0  0  0
 10 13  1  0  0  0  0
 13 14  1  0  0  0  0
 13 15  1  0  0  0  0
 15 16  1  0  0  0  0
 15 17  1  0  0  0  0
 15 18  1  0  0  0  0
 18 19  1  0  0  0  0
 18 20  1  0  0  0  0
  1 21  1  0  0  0  0
 18 21  1  0  0  0  0
 21 22  1  0  0  0  0
 21 23  1  0  0  0  0
 13 24  1  0  0  0  0
 24 25  1  0  0  0  0
M  END
> <VConfSearch Rank>
369

> <Conf_Id>
167

> <Delta U+W>
0.388

> <U+W>
11.301

> <U>
13.202

> <W>
-1.901

> <W(PB)>
-4.065

> <W(SA)>
2.163

> <Valence>
18.957

> <Coulomb>
-8.753

> <VdW>
2.998

> <VdW6>
-12.294

> <VdW12>
15.292

> <Bond>
0.419

> <Angle>
4.543

> <Pdih>
13.996

> <Idih>
0.000

> <Tether>
0.000

$$$$
VeraChem MOL file


 25 25  0  0  0  0  0  0  0  0999 V2000     
   20.1343   17.8312   24.1565 C   0  0  0  0  0  0  0  0  0  0  0  0
   21.0201   17.4177   24.6572 H   0  0  0  0  0  0  0  0  0  0  0  0
   19.2708   17.3631   24.6486 H   0  0  0  0  0  0  0  0  0  0  0  0
   20.1366   17.3754   22.6741 C   0  0  0  0  0  0  0  0  0  0  0  0
   21.1488   17.4223   22.2569 H   0  0  0  0  0  0  0  0  0  0  0  0
   19.8880   16.3053   22.6661 H   0  0  0  0  0  0  0  0  0  0  0  0
   19.1320   18.1099   21.7489 C   0  0  0  0  0  0  0  0  0  0  0  0
   18.2842   18.5061   22.3226 H   0  0  0  0  0  0  0  0  0  0  0  0
   18.6963   17.3607   21.0739 H   0  0  0  0  0  0  0  0  0  0  0  0
   19.7570   19.2156   20.8550 C   0  0  0  0  0  0  0  0  0  0  0  0
   20.5749   18.7863   20.2618 H   0  0  0  0  0  0  0  0  0  0  0  0
   18.9938   19.5231   20.1280 H   0  0  0  0  0  0  0  0  0  0  0  0
   20.2631   20.4920   21.5721 C   0  0  0  0  0  0  0  0  0  0  0  0
   19.4533   20.9014   22.1908 H   0  0  0  0  0  0  0  0  0  0  0  0
   21.5276   20.2703   22.4420 C   0  0  0  0  0  0  0  0  0  0  0  0
   22.0634   19.3767   22.1065 H   0  0  0  0  0  0  0  0  0  0  0  0
   22.2367   21.0917   22.2734 H   0  0  0  0  0  0  0  0  0  0  0  0
   21.2678   20.1973   23.9690 C   0  0  0  0  0  0  0  0  0  0  0  0
   21.1184   21.2221   24.3355 H   0  0  0  0  0  0  0  0  0  0  0  0
   22.1757   19.8322   24.4679 H   0  0  0  0  0  0  0  0  0  0  0  0
   20.0543   19.3535   24.4340 C   0  0  0  0  0  0  0  0  0  0  0  0
   19.1217   19.7653   24.0316 H   0  0  0  0  0  0  0  0  0  0  0  0
   19.9660   19.4820   25.5214 H   0  0  0  0  0  0  0  0  0  0  0  0
   20.5773   21.4468   20.5652 O   0  0  0  0  0  0  0  0  0  0  0  0
   20.8299   22.2719   21.0298 H   0  0  0  0  0  0  0  0  0  0  0  0
  1  2  1  0  0  0  0
  1  3  1  0  0  0  0
  1  4  1  0  0  0  0
  4  5  1  0  0  0  0
  4  6  1  0  0  0  0
  4  7  1  0  0  0  0
  7  8  1  0  0  0  0
  7  9  1  0  0  0  0
  7 10  1  0  0  0  0
 10 11  1  0  0  0  0
 10 12  1  0  0  0  0
 10 13  1  0  0  0  0
 13 14  1  0  0  0  0
 13 15  1  0  0  0  0
 15 16  1  0  0  0  0
 15 17  1  0  0  0  0
 15 18  1  0  0  0  0
 18 19  1  0  0  0  0
 18 20  1  0  0  0  0
  1 21  1  0  0  0  0
 18 21  1  0  0  0  0
 21 22  1  0  0  0  0
 21 23  1  0  0  0  0
 13 24  1  0  0  0  0
 24 25  1  0  0  0  0
M  END
> <VConfSearch Rank>
370

> <Conf_Id>
60

> <Delta U+W>
-1.838

> <U+W>
9.075

> <U>
11.150

> <W>
-2.074

> <W(PB)>
-4.196

> <W(SA)>
2.121

> <Valence>
16.582

> <Coulomb>
-8.361

> <VdW>
2.928

> <VdW6>
-12.539

> <VdW12>
15.467

> <Bond>
0.441

> <Angle>
5.093

> <Pdih>
11.049

> <Idih>
0.000

> <Tether>
0.000

$$$$
VeraChem MOL file


 25 25  0  0  0  0  0  0  0  0999 V2000     
   18.5542   20.1019   22.1105 C   0  0  0  0  0  0  0  0  0  0  0  0
   17.5955   19.8014   22.5547 H   0  0  0  0  0  0  0  0  0  0  0  0
   18.3096   20.8873   21.3824 H   0  0  0  0  0  0  0  0  0  0  0  0
   19.1478   18.9086   21.3203 C   0  0  0  0  0  0  0  0  0  0  0  0
   18.4302   18.6531   20.5287 H   0  0  0  0  0  0  0  0  0  0  0  0
   20.0510   19.2195   20.7830 H   0  0  0  0  0  0  0  0  0  0  0  0
   19.4145   17.6164   22.1327 C   0  0  0  0  0  0  0  0  0  0  0  0
   19.7189   16.8356   21.4222 H   0  0  0  0  0  0  0  0  0  0  0  0
   18.4725   17.2654   22.5752 H   0  0  0  0  0  0  0  0  0  0  0  0
   20.4933   17.6965   23.2438 C   0  0  0  0  0  0  0  0  0  0  0  0
   20.0694   18.1390   24.1509 H   0  0  0  0  0  0  0  0  0  0  0  0
   20.7373   16.6656   23.5327 H   0  0  0  0  0  0  0  0  0  0  0  0
   21.7923   18.4427   22.8433 C   0  0  0  0  0  0  0  0  0  0  0  0
   21.8732   18.4873   21.7489 H   0  0  0  0  0  0  0  0  0  0  0  0
   21.9005   19.8771   23.4180 C   0  0  0  0  0  0  0  0  0  0  0  0
   21.7871   19.8384   24.5093 H   0  0  0  0  0  0  0  0  0  0  0  0
   22.9247   20.2306   23.2393 H   0  0  0  0  0  0  0  0  0  0  0  0
   20.9308   20.9413   22.8354 C   0  0  0  0  0  0  0  0  0  0  0  0
   21.0549   21.0274   21.7483 H   0  0  0  0  0  0  0  0  0  0  0  0
   21.2442   21.9144   23.2377 H   0  0  0  0  0  0  0  0  0  0  0  0
   19.4401   20.7395   23.2122 C   0  0  0  0  0  0  0  0  0  0  0  0
   19.0100   21.7241   23.4414 H   0  0  0  0  0  0  0  0  0  0  0  0
   19.3529   20.1798   24.1503 H   0  0  0  0  0  0  0  0  0  0  0  0
   22.9016   17.7030   23.3397 O   0  0  0  0  0  0  0  0  0  0  0  0
   22.8622   16.8200   22.9164 H   0  0  0  0  0  0  0  0  0  0  0  0
  1  2  1  0  0  0  0
  1  3  1  0  0  0  0
  1  4  1  0  0  0  0
  4  5  1  0  0  0  0
  4  6  1  0  0  0  0
  4  7  1  0  0  0  0
  7  8  1  0  0  0  0
  7  9  1  0  0  0  0
  7 10  1  0  0  0  0
 10 11  1  0  0  0  0
 10 12  1  0  0  0  0
 10 13  1  0  0  0  0
 13 14  1  0  0  0  0
 13 15  1  0  0  0  0
 15 16  1  0  0  0  0
 15 17  1  0  0  0  0
 15 18  1  0  0  0  0
 18 19  1  0  0  0  0
 18 20  1  0  0  0  0
  1 21  1  0  0  0  0
 18 21  1  0  0  0  0
 21 22  1  0  0  0  0
 21 23  1  0  0  0  0
 13 24  1  0  0  0  0
 24 25  1  0  0  0  0
M  END
> <VConfSearch Rank>
371

> <Conf_Id>
129

> <Delta U+W>
-1.846

> <U+W>
9.067

> <U>
11.150

> <W>
-2.083

> <W(PB)>
-4.217

> <W(SA)>
2.134

> <Valence>
16.583

> <Coulomb>
-8.361

> <VdW>
2.928

> <VdW6>
-12.539

> <VdW12>
15.467

> <Bond>
0.441

> <Angle>
5.093

> <Pdih>
11.049

> <Idih>
0.000

> <Tether>
0.000

$$$$
VeraChem MOL file


 25 25  0  0  0  0  0  0  0  0999 V2000     
   21.6666   17.7484   23.0146 C   0  0  0  0  0  0  0  0  0  0  0  0
   21.7762   17.3107   24.0161 H   0  0  0  0  0  0  0  0  0  0  0  0
   22.4059   17.2351   22.3846 H   0  0  0  0  0  0  0  0  0  0  0  0
   22.0621   19.2455   23.0647 C   0  0  0  0  0  0  0  0  0  0  0  0
   23.1123   19.2944   23.3831 H   0  0  0  0  0  0  0  0  0  0  0  0
   22.0599   19.6744   22.0561 H   0  0  0  0  0  0  0  0  0  0  0  0
   21.2459   20.1351   24.0356 C   0  0  0  0  0  0  0  0  0  0  0  0
   21.7142   21.1289   24.0458 H   0  0  0  0  0  0  0  0  0  0  0  0
   21.3495   19.7467   25.0578 H   0  0  0  0  0  0  0  0  0  0  0  0
   19.7395   20.3239   23.7187 C   0  0  0  0  0  0  0  0  0  0  0  0
   19.1659   19.4671   24.0866 H   0  0  0  0  0  0  0  0  0  0  0  0
   19.3896   21.1717   24.3232 H   0  0  0  0  0  0  0  0  0  0  0  0
   19.4110   20.5900   22.2268 C   0  0  0  0  0  0  0  0  0  0  0  0
   20.3095   20.9502   21.7085 H   0  0  0  0  0  0  0  0  0  0  0  0
   18.8431   19.3622   21.4710 C   0  0  0  0  0  0  0  0  0  0  0  0
   17.9621   18.9807   22.0034 H   0  0  0  0  0  0  0  0  0  0  0  0
   18.4748   19.7114   20.4970 H   0  0  0  0  0  0  0  0  0  0  0  0
   19.8241   18.1889   21.2026 C   0  0  0  0  0  0  0  0  0  0  0  0
   20.6967   18.5333   20.6326 H   0  0  0  0  0  0  0  0  0  0  0  0
   19.3069   17.4846   20.5368 H   0  0  0  0  0  0  0  0  0  0  0  0
   20.2579   17.4023   22.4666 C   0  0  0  0  0  0  0  0  0  0  0  0
   20.2629   16.3322   22.2178 H   0  0  0  0  0  0  0  0  0  0  0  0
   19.5031   17.4948   23.2556 H   0  0  0  0  0  0  0  0  0  0  0  0
   18.4280   21.6157   22.1644 O   0  0  0  0  0  0  0  0  0  0  0  0
   17.6377   21.2700   22.6280 H   0  0  0  0  0  0  0  0  0  0  0  0
  1  2  1  0  0  0  0
  1  3  1  0  0  0  0
  1  4  1  0  0  0  0
  4  5  1  0  0  0  0
  4  6  1  0  0  0  0
  4  7  1  0  0  0  0
  7  8  1  0  0  0  0
  7  9  1  0  0  0  0
  7 10  1  0  0  0  0
 10 11  1  0  0  0  0
 10 12  1  0  0  0  0
 10 13  1  0  0  0  0
 13 14  1  0  0  0  0
 13 15  1  0  0  0  0
 15 16  1  0  0  0  0
 15 17  1  0  0  0  0
 15 18  1  0  0  0  0
 18 19  1  0  0  0  0
 18 20  1  0  0  0  0
  1 21  1  0  0  0  0
 18 21  1  0  0  0  0
 21 22  1  0  0  0  0
 21 23  1  0  0  0  0
 13 24  1  0  0  0  0
 24 25  1  0  0  0  0
M  END
> <VConfSearch Rank>
372

> <Conf_Id>
140

> <Delta U+W>
-1.702

> <U+W>
9.211

> <U>
11.181

> <W>
-1.969

> <W(PB)>
-4.093

> <W(SA)>
2.124

> <Valence>
16.954

> <Coulomb>
-8.661

> <VdW>
2.887

> <VdW6>
-12.561

> <VdW12>
15.448

> <Bond>
0.433

> <Angle>
5.120

> <Pdih>
11.401

> <Idih>
0.000

> <Tether>
0.000

$$$$
VeraChem MOL file


 25 25  0  0  0  0  0  0  0  0999 V2000     
   18.2556   18.8964   22.9213 C   0  0  0  0  0  0  0  0  0  0  0  0
   17.7795   19.1250   23.8844 H   0  0  0  0  0  0  0  0  0  0  0  0
   17.4496   18.5260   22.2731 H   0  0  0  0  0  0  0  0  0  0  0  0
   19.2680   17.7394   23.1235 C   0  0  0  0  0  0  0  0  0  0  0  0
   19.8231   17.8710   24.0591 H   0  0  0  0  0  0  0  0  0  0  0  0
   18.6829   16.8229   23.2800 H   0  0  0  0  0  0  0  0  0  0  0  0
   20.2419   17.4936   21.9421 C   0  0  0  0  0  0  0  0  0  0  0  0
   19.8131   17.8483   20.9961 H   0  0  0  0  0  0  0  0  0  0  0  0
   20.3450   16.4066   21.8200 H   0  0  0  0  0  0  0  0  0  0  0  0
   21.6714   18.0641   22.1475 C   0  0  0  0  0  0  0  0  0  0  0  0
   22.0908   17.6590   23.0777 H   0  0  0  0  0  0  0  0  0  0  0  0
   22.3017   17.6689   21.3395 H   0  0  0  0  0  0  0  0  0  0  0  0
   21.8159   19.6068   22.1452 C   0  0  0  0  0  0  0  0  0  0  0  0
   21.3681   20.0109   21.2276 H   0  0  0  0  0  0  0  0  0  0  0  0
   21.1952   20.3068   23.3818 C   0  0  0  0  0  0  0  0  0  0  0  0
   21.1158   19.6027   24.2164 H   0  0  0  0  0  0  0  0  0  0  0  0
   21.8826   21.0850   23.7403 H   0  0  0  0  0  0  0  0  0  0  0  0
   19.8279   20.9940   23.1297 C   0  0  0  0  0  0  0  0  0  0  0  0
   20.0196   21.9436   22.6114 H   0  0  0  0  0  0  0  0  0  0  0  0
   19.3823   21.2669   24.0958 H   0  0  0  0  0  0  0  0  0  0  0  0
   18.7899   20.2069   22.2911 C   0  0  0  0  0  0  0  0  0  0  0  0
   19.1752   20.0159   21.2829 H   0  0  0  0  0  0  0  0  0  0  0  0
   17.9272   20.8690   22.1359 H   0  0  0  0  0  0  0  0  0  0  0  0
   23.2071   19.9003   22.1203 O   0  0  0  0  0  0  0  0  0  0  0  0
   23.5833   19.5275   22.9440 H   0  0  0  0  0  0  0  0  0  0  0  0
  1  2  1  0  0  0  0
  1  3  1  0  0  0  0
  1  4  1  0  0  0  0
  4  5  1  0  0  0  0
  4  6  1  0  0  0  0
  4  7  1  0  0  0  0
  7  8  1  0  0  0  0
  7  9  1  0  0  0  0
  7 10  1  0  0  0  0
 10 11  1  0  0  0  0
 10 12  1  0  0  0  0
 10 13  1  0  0  0  0
 13 14  1  0  0  0  0
 13 15  1  0  0  0  0
 15 16  1  0  0  0  0
 15 17  1  0  0  0  0
 15 18  1  0  0  0  0
 18 19  1  0  0  0  0
 18 20  1  0  0  0  0
  1 21  1  0  0  0  0
 18 21  1  0  0  0  0
 21 22  1  0  0  0  0
 21 23  1  0  0  0  0
 13 24  1  0  0  0  0
 24 25  1  0  0  0  0
M  END
> <VConfSearch Rank>
373

> <Conf_Id>
68

> <Delta U+W>
-1.765

> <U+W>
9.148

> <U>
11.181

> <W>
-2.032

> <W(PB)>
-4.147

> <W(SA)>
2.114

> <Valence>
16.955

> <Coulomb>
-8.661

> <VdW>
2.887

> <VdW6>
-12.561

> <VdW12>
15.448

> <Bond>
0.433

> <Angle>
5.121

> <Pdih>
11.402

> <Idih>
0.000

> <Tether>
0.000

$$$$
VeraChem MOL file


 25 25  0  0  0  0  0  0  0  0999 V2000     
   19.9199   19.7966   24.3961 C   0  0  0  0  0  0  0  0  0  0  0  0
   19.8165   20.0769   25.4533 H   0  0  0  0  0  0  0  0  0  0  0  0
   19.0108   20.1841   23.9225 H   0  0  0  0  0  0  0  0  0  0  0  0
   19.9619   18.2486   24.3109 C   0  0  0  0  0  0  0  0  0  0  0  0
   20.9960   17.8811   24.2945 H   0  0  0  0  0  0  0  0  0  0  0  0
   19.5338   17.8550   25.2430 H   0  0  0  0  0  0  0  0  0  0  0  0
   19.1422   17.6383   23.1438 C   0  0  0  0  0  0  0  0  0  0  0  0
   18.1012   17.9831   23.2103 H   0  0  0  0  0  0  0  0  0  0  0  0
   19.1024   16.5511   23.2968 H   0  0  0  0  0  0  0  0  0  0  0  0
   19.6762   17.8937   21.7091 C   0  0  0  0  0  0  0  0  0  0  0  0
   20.7058   17.5282   21.6145 H   0  0  0  0  0  0  0  0  0  0  0  0
   19.0829   17.2621   21.0340 H   0  0  0  0  0  0  0  0  0  0  0  0
   19.5648   19.3658   21.2343 C   0  0  0  0  0  0  0  0  0  0  0  0
   18.8218   19.8848   21.8509 H   0  0  0  0  0  0  0  0  0  0  0  0
   20.8940   20.1596   21.2648 C   0  0  0  0  0  0  0  0  0  0  0  0
   21.4994   19.8589   20.3995 H   0  0  0  0  0  0  0  0  0  0  0  0
   20.6658   21.2232   21.1167 H   0  0  0  0  0  0  0  0  0  0  0  0
   21.7820   20.0057   22.5265 C   0  0  0  0  0  0  0  0  0  0  0  0
   22.7072   20.5697   22.3459 H   0  0  0  0  0  0  0  0  0  0  0  0
   22.1098   18.9661   22.6401 H   0  0  0  0  0  0  0  0  0  0  0  0
   21.1757   20.5270   23.8534 C   0  0  0  0  0  0  0  0  0  0  0  0
   20.9504   21.5975   23.7543 H   0  0  0  0  0  0  0  0  0  0  0  0
   21.9594   20.4593   24.6205 H   0  0  0  0  0  0  0  0  0  0  0  0
   19.0924   19.3744   19.8928 O   0  0  0  0  0  0  0  0  0  0  0  0
   19.7587   18.8921   19.3614 H   0  0  0  0  0  0  0  0  0  0  0  0
  1  2  1  0  0  0  0
  1  3  1  0  0  0  0
  1  4  1  0  0  0  0
  4  5  1  0  0  0  0
  4  6  1  0  0  0  0
  4  7  1  0  0  0  0
  7  8  1  0  0  0  0
  7  9  1  0  0  0  0
  7 10  1  0  0  0  0
 10 11  1  0  0  0  0
 10 12  1  0  0  0  0
 10 13  1  0  0  0  0
 13 14  1  0  0  0  0
 13 15  1  0  0  0  0
 15 16  1  0  0  0  0
 15 17  1  0  0  0  0
 15 18  1  0  0  0  0
 18 19  1  0  0  0  0
 18 20  1  0  0  0  0
  1 21  1  0  0  0  0
 18 21  1  0  0  0  0
 21 22  1  0  0  0  0
 21 23  1  0  0  0  0
 13 24  1  0  0  0  0
 24 25  1  0  0  0  0
M  END
> <VConfSearch Rank>
374

> <Conf_Id>
165

> <Delta U+W>
-1.999

> <U+W>
8.915

> <U>
10.935

> <W>
-2.020

> <W(PB)>
-4.135

> <W(SA)>
2.115

> <Valence>
16.757

> <Coulomb>
-8.731

> <VdW>
2.908

> <VdW6>
-12.597

> <VdW12>
15.506

> <Bond>
0.434

> <Angle>
5.069

> <Pdih>
11.254

> <Idih>
0.000

> <Tether>
0.000

$$$$
VeraChem MOL file


 25 25  0  0  0  0  0  0  0  0999 V2000     
   18.7074   18.3339   22.3571 C   0  0  0  0  0  0  0  0  0  0  0  0
   17.7087   17.9088   22.1867 H   0  0  0  0  0  0  0  0  0  0  0  0
   19.3948   17.5130   22.1237 H   0  0  0  0  0  0  0  0  0  0  0  0
   18.7903   18.7097   23.8595 C   0  0  0  0  0  0  0  0  0  0  0  0
   17.8331   19.1690   24.1422 H   0  0  0  0  0  0  0  0  0  0  0  0
   18.8636   17.7890   24.4540 H   0  0  0  0  0  0  0  0  0  0  0  0
   19.9146   19.6866   24.2861 C   0  0  0  0  0  0  0  0  0  0  0  0
   19.7638   19.9148   25.3500 H   0  0  0  0  0  0  0  0  0  0  0  0
   19.7953   20.6501   23.7774 H   0  0  0  0  0  0  0  0  0  0  0  0
   21.3664   19.1660   24.1271 C   0  0  0  0  0  0  0  0  0  0  0  0
   22.0353   19.9177   24.5676 H   0  0  0  0  0  0  0  0  0  0  0  0
   21.4867   18.2602   24.7351 H   0  0  0  0  0  0  0  0  0  0  0  0
   21.8563   18.8663   22.6890 C   0  0  0  0  0  0  0  0  0  0  0  0
   21.4456   17.9046   22.3600 H   0  0  0  0  0  0  0  0  0  0  0  0
   21.4943   19.9525   21.6434 C   0  0  0  0  0  0  0  0  0  0  0  0
   21.3115   20.9177   22.1305 H   0  0  0  0  0  0  0  0  0  0  0  0
   22.3682   20.1187   20.9992 H   0  0  0  0  0  0  0  0  0  0  0  0
   20.3102   19.5811   20.7112 C   0  0  0  0  0  0  0  0  0  0  0  0
   20.5281   18.6279   20.2102 H   0  0  0  0  0  0  0  0  0  0  0  0
   20.2678   20.3316   19.9100 H   0  0  0  0  0  0  0  0  0  0  0  0
   18.9051   19.5095   21.3649 C   0  0  0  0  0  0  0  0  0  0  0  0
   18.1793   19.3797   20.5505 H   0  0  0  0  0  0  0  0  0  0  0  0
   18.6431   20.4683   21.8304 H   0  0  0  0  0  0  0  0  0  0  0  0
   23.2732   18.7417   22.7391 O   0  0  0  0  0  0  0  0  0  0  0  0
   23.4709   18.0202   23.3721 H   0  0  0  0  0  0  0  0  0  0  0  0
  1  2  1  0  0  0  0
  1  3  1  0  0  0  0
  1  4  1  0  0  0  0
  4  5  1  0  0  0  0
  4  6  1  0  0  0  0
  4  7  1  0  0  0  0
  7  8  1  0  0  0  0
  7  9  1  0  0  0  0
  7 10  1  0  0  0  0
 10 11  1  0  0  0  0
 10 12  1  0  0  0  0
 10 13  1  0  0  0  0
 13 14  1  0  0  0  0
 13 15  1  0  0  0  0
 15 16  1  0  0  0  0
 15 17  1  0  0  0  0
 15 18  1  0  0  0  0
 18 19  1  0  0  0  0
 18 20  1  0  0  0  0
  1 21  1  0  0  0  0
 18 21  1  0  0  0  0
 21 22  1  0  0  0  0
 21 23  1  0  0  0  0
 13 24  1  0  0  0  0
 24 25  1  0  0  0  0
M  END
> <VConfSearch Rank>
375

> <Conf_Id>
133

> <Delta U+W>
-2.139

> <U+W>
8.774

> <U>
10.905

> <W>
-2.131

> <W(PB)>
-4.281

> <W(SA)>
2.150

> <Valence>
16.378

> <Coulomb>
-8.448

> <VdW>
2.976

> <VdW6>
-12.570

> <VdW12>
15.545

> <Bond>
0.439

> <Angle>
5.049

> <Pdih>
10.889

> <Idih>
0.000

> <Tether>
0.000

$$$$
VeraChem MOL file


 25 25  0  0  0  0  0  0  0  0999 V2000     
   21.6532   19.7036   21.5253 C   0  0  0  0  0  0  0  0  0  0  0  0
   22.4370   20.0677   20.8468 H   0  0  0  0  0  0  0  0  0  0  0  0
   21.7923   18.6168   21.5417 H   0  0  0  0  0  0  0  0  0  0  0  0
   20.2771   20.0681   20.9096 C   0  0  0  0  0  0  0  0  0  0  0  0
   19.9008   21.0159   21.3153 H   0  0  0  0  0  0  0  0  0  0  0  0
   20.4344   20.2581   19.8390 H   0  0  0  0  0  0  0  0  0  0  0  0
   19.1999   18.9569   21.0181 C   0  0  0  0  0  0  0  0  0  0  0  0
   19.5816   18.0335   20.5613 H   0  0  0  0  0  0  0  0  0  0  0  0
   18.3444   19.2597   20.3990 H   0  0  0  0  0  0  0  0  0  0  0  0
   18.6648   18.6418   22.4406 C   0  0  0  0  0  0  0  0  0  0  0  0
   18.2497   19.5449   22.9035 H   0  0  0  0  0  0  0  0  0  0  0  0
   17.8087   17.9648   22.3172 H   0  0  0  0  0  0  0  0  0  0  0  0
   19.6943   17.9630   23.3805 C   0  0  0  0  0  0  0  0  0  0  0  0
   20.4917   17.5186   22.7733 H   0  0  0  0  0  0  0  0  0  0  0  0
   20.3217   18.9043   24.4379 C   0  0  0  0  0  0  0  0  0  0  0  0
   19.5849   19.0615   25.2373 H   0  0  0  0  0  0  0  0  0  0  0  0
   21.1711   18.3904   24.9059 H   0  0  0  0  0  0  0  0  0  0  0  0
   20.7867   20.3020   23.9541 C   0  0  0  0  0  0  0  0  0  0  0  0
   21.1318   20.8558   24.8379 H   0  0  0  0  0  0  0  0  0  0  0  0
   19.9345   20.8812   23.5807 H   0  0  0  0  0  0  0  0  0  0  0  0
   21.9412   20.3156   22.9210 C   0  0  0  0  0  0  0  0  0  0  0  0
   22.8216   19.8206   23.3528 H   0  0  0  0  0  0  0  0  0  0  0  0
   22.2345   21.3638   22.7720 H   0  0  0  0  0  0  0  0  0  0  0  0
   19.0411   16.9104   24.0812 O   0  0  0  0  0  0  0  0  0  0  0  0
   19.7232   16.4719   24.6316 H   0  0  0  0  0  0  0  0  0  0  0  0
  1  2  1  0  0  0  0
  1  3  1  0  0  0  0
  1  4  1  0  0  0  0
  4  5  1  0  0  0  0
  4  6  1  0  0  0  0
  4  7  1  0  0  0  0
  7  8  1  0  0  0  0
  7  9  1  0  0  0  0
  7 10  1  0  0  0  0
 10 11  1  0  0  0  0
 10 12  1  0  0  0  0
 10 13  1  0  0  0  0
 13 14  1  0  0  0  0
 13 15  1  0  0  0  0
 15 16  1  0  0  0  0
 15 17  1  0  0  0  0
 15 18  1  0  0  0  0
 18 19  1  0  0  0  0
 18 20  1  0  0  0  0
  1 21  1  0  0  0  0
 18 21  1  0  0  0  0
 21 22  1  0  0  0  0
 21 23  1  0  0  0  0
 13 24  1  0  0  0  0
 24 25  1  0  0  0  0
M  END
> <VConfSearch Rank>
376

> <Conf_Id>
95

> <Delta U+W>
-2.190

> <U+W>
8.723

> <U>
10.905

> <W>
-2.182

> <W(PB)>
-4.296

> <W(SA)>
2.114

> <Valence>
16.377

> <Coulomb>
-8.448

> <VdW>
2.976

> <VdW6>
-12.570

> <VdW12>
15.546

> <Bond>
0.439

> <Angle>
5.049

> <Pdih>
10.889

> <Idih>
0.000

> <Tether>
0.000

$$$$
VeraChem MOL file


 25 25  0  0  0  0  0  0  0  0999 V2000     
   20.1988   20.4845   21.3930 C   0  0  0  0  0  0  0  0  0  0  0  0
   20.1947   21.3460   20.7112 H   0  0  0  0  0  0  0  0  0  0  0  0
   19.4462   19.8163   20.9623 H   0  0  0  0  0  0  0  0  0  0  0  0
   19.7472   21.0064   22.7887 C   0  0  0  0  0  0  0  0  0  0  0  0
   20.1430   22.0250   22.9014 H   0  0  0  0  0  0  0  0  0  0  0  0
   18.6543   21.1161   22.7917 H   0  0  0  0  0  0  0  0  0  0  0  0
   20.1858   20.2108   24.0461 C   0  0  0  0  0  0  0  0  0  0  0  0
   19.8799   20.7889   24.9287 H   0  0  0  0  0  0  0  0  0  0  0  0
   21.2786   20.2074   24.1087 H   0  0  0  0  0  0  0  0  0  0  0  0
   19.6157   18.7716   24.2198 C   0  0  0  0  0  0  0  0  0  0  0  0
   20.2639   18.2139   24.9084 H   0  0  0  0  0  0  0  0  0  0  0  0
   18.6503   18.8685   24.7336 H   0  0  0  0  0  0  0  0  0  0  0  0
   19.3755   17.9191   22.9481 C   0  0  0  0  0  0  0  0  0  0  0  0
   18.6915   18.4702   22.2944 H   0  0  0  0  0  0  0  0  0  0  0  0
   20.6334   17.4886   22.1401 C   0  0  0  0  0  0  0  0  0  0  0  0
   21.0197   16.5616   22.5848 H   0  0  0  0  0  0  0  0  0  0  0  0
   20.3152   17.2186   21.1252 H   0  0  0  0  0  0  0  0  0  0  0  0
   21.8283   18.4760   22.0477 C   0  0  0  0  0  0  0  0  0  0  0  0
   22.6496   17.9558   21.5362 H   0  0  0  0  0  0  0  0  0  0  0  0
   22.2261   18.6572   23.0512 H   0  0  0  0  0  0  0  0  0  0  0  0
   21.5962   19.8178   21.2933 C   0  0  0  0  0  0  0  0  0  0  0  0
   21.7872   19.6328   20.2274 H   0  0  0  0  0  0  0  0  0  0  0  0
   22.3634   20.5387   21.6067 H   0  0  0  0  0  0  0  0  0  0  0  0
   18.7063   16.7306   23.3533 O   0  0  0  0  0  0  0  0  0  0  0  0
   17.8823   17.0095   23.8042 H   0  0  0  0  0  0  0  0  0  0  0  0
  1  2  1  0  0  0  0
  1  3  1  0  0  0  0
  1  4  1  0  0  0  0
  4  5  1  0  0  0  0
  4  6  1  0  0  0  0
  4  7  1  0  0  0  0
  7  8  1  0  0  0  0
  7  9  1  0  0  0  0
  7 10  1  0  0  0  0
 10 11  1  0  0  0  0
 10 12  1  0  0  0  0
 10 13  1  0  0  0  0
 13 14  1  0  0  0  0
 13 15  1  0  0  0  0
 15 16  1  0  0  0  0
 15 17  1  0  0  0  0
 15 18  1  0  0  0  0
 18 19  1  0  0  0  0
 18 20  1  0  0  0  0
  1 21  1  0  0  0  0
 18 21  1  0  0  0  0
 21 22  1  0  0  0  0
 21 23  1  0  0  0  0
 13 24  1  0  0  0  0
 24 25  1  0  0  0  0
M  END
> <VConfSearch Rank>
377

> <Conf_Id>
161

> <Delta U+W>
2.120

> <U+W>
13.033

> <U>
15.076

> <W>
-2.043

> <W(PB)>
-4.186

> <W(SA)>
2.143

> <Valence>
18.884

> <Coulomb>
-8.074

> <VdW>
4.266

> <VdW6>
-13.486

> <VdW12>
17.752

> <Bond>
0.713

> <Angle>
8.955

> <Pdih>
9.215

> <Idih>
0.000

> <Tether>
0.000

$$$$
VeraChem MOL file


 25 25  0  0  0  0  0  0  0  0999 V2000     
   21.1550   20.6381   23.7056 C   0  0  0  0  0  0  0  0  0  0  0  0
   21.7708   21.4670   24.0806 H   0  0  0  0  0  0  0  0  0  0  0  0
   20.6373   20.2510   24.5924 H   0  0  0  0  0  0  0  0  0  0  0  0
   22.1055   19.5565   23.1343 C   0  0  0  0  0  0  0  0  0  0  0  0
   22.3519   19.7680   22.0851 H   0  0  0  0  0  0  0  0  0  0  0  0
   23.0551   19.6474   23.6794 H   0  0  0  0  0  0  0  0  0  0  0  0
   21.6227   18.0902   23.3138 C   0  0  0  0  0  0  0  0  0  0  0  0
   21.1182   17.9544   24.2799 H   0  0  0  0  0  0  0  0  0  0  0  0
   22.5239   17.4638   23.3666 H   0  0  0  0  0  0  0  0  0  0  0  0
   20.7555   17.5317   22.1560 C   0  0  0  0  0  0  0  0  0  0  0  0
   21.0902   17.9567   21.2019 H   0  0  0  0  0  0  0  0  0  0  0  0
   20.9613   16.4562   22.0741 H   0  0  0  0  0  0  0  0  0  0  0  0
   19.2210   17.6750   22.3187 C   0  0  0  0  0  0  0  0  0  0  0  0
   18.9009   16.9901   23.1169 H   0  0  0  0  0  0  0  0  0  0  0  0
   18.6958   19.0839   22.6791 C   0  0  0  0  0  0  0  0  0  0  0  0
   17.6069   19.0922   22.5362 H   0  0  0  0  0  0  0  0  0  0  0  0
   18.8310   19.2501   23.7533 H   0  0  0  0  0  0  0  0  0  0  0  0
   19.3175   20.2439   21.8563 C   0  0  0  0  0  0  0  0  0  0  0  0
   18.5091   20.7975   21.3595 H   0  0  0  0  0  0  0  0  0  0  0  0
   19.9407   19.8623   21.0396 H   0  0  0  0  0  0  0  0  0  0  0  0
   20.1398   21.2458   22.7017 C   0  0  0  0  0  0  0  0  0  0  0  0
   19.4460   21.8866   23.2629 H   0  0  0  0  0  0  0  0  0  0  0  0
   20.6763   21.9155   22.0158 H   0  0  0  0  0  0  0  0  0  0  0  0
   18.6116   17.2734   21.0998 O   0  0  0  0  0  0  0  0  0  0  0  0
   18.8090   17.9828   20.4551 H   0  0  0  0  0  0  0  0  0  0  0  0
  1  2  1  0  0  0  0
  1  3  1  0  0  0  0
  1  4  1  0  0  0  0
  4  5  1  0  0  0  0
  4  6  1  0  0  0  0
  4  7  1  0  0  0  0
  7  8  1  0  0  0  0
  7  9  1  0  0  0  0
  7 10  1  0  0  0  0
 10 11  1  0  0  0  0
 10 12  1  0  0  0  0
 10 13  1  0  0  0  0
 13 14  1  0  0  0  0
 13 15  1  0  0  0  0
 15 16  1  0  0  0  0
 15 17  1  0  0  0  0
 15 18  1  0  0  0  0
 18 19  1  0  0  0  0
 18 20  1  0  0  0  0
  1 21  1  0  0  0  0
 18 21  1  0  0  0  0
 21 22  1  0  0  0  0
 21 23  1  0  0  0  0
 13 24  1  0  0  0  0
 24 25  1  0  0  0  0
M  END
> <VConfSearch Rank>
378

> <Conf_Id>
164

> <Delta U+W>
0.008

> <U+W>
10.922

> <U>
12.433

> <W>
-1.511

> <W(PB)>
-3.669

> <W(SA)>
2.157

> <Valence>
19.007

> <Coulomb>
-9.373

> <VdW>
2.799

> <VdW6>
-12.597

> <VdW12>
15.396

> <Bond>
0.425

> <Angle>
4.784

> <Pdih>
13.799

> <Idih>
0.000

> <Tether>
0.000

$$$$
VeraChem MOL file


 25 25  0  0  0  0  0  0  0  0999 V2000     
   19.2210   18.8778   21.2205 C   0  0  0  0  0  0  0  0  0  0  0  0
   19.7773   17.9469   21.3783 H   0  0  0  0  0  0  0  0  0  0  0  0
   18.5659   18.6663   20.3644 H   0  0  0  0  0  0  0  0  0  0  0  0
   20.1815   20.0160   20.7943 C   0  0  0  0  0  0  0  0  0  0  0  0
   20.6680   19.7032   19.8603 H   0  0  0  0  0  0  0  0  0  0  0  0
   19.5951   20.9090   20.5389 H   0  0  0  0  0  0  0  0  0  0  0  0
   21.2940   20.4147   21.7973 C   0  0  0  0  0  0  0  0  0  0  0  0
   20.9048   21.1141   22.5460 H   0  0  0  0  0  0  0  0  0  0  0  0
   22.0398   20.9970   21.2391 H   0  0  0  0  0  0  0  0  0  0  0  0
   22.0212   19.2292   22.4861 C   0  0  0  0  0  0  0  0  0  0  0  0
   21.9555   18.3203   21.8758 H   0  0  0  0  0  0  0  0  0  0  0  0
   23.0903   19.4785   22.5213 H   0  0  0  0  0  0  0  0  0  0  0  0
   21.5743   18.9478   23.9427 C   0  0  0  0  0  0  0  0  0  0  0  0
   21.6521   19.8851   24.5118 H   0  0  0  0  0  0  0  0  0  0  0  0
   20.1430   18.3857   24.1316 C   0  0  0  0  0  0  0  0  0  0  0  0
   20.0155   17.4491   23.5754 H   0  0  0  0  0  0  0  0  0  0  0  0
   20.0438   18.1105   25.1902 H   0  0  0  0  0  0  0  0  0  0  0  0
   19.0008   19.3849   23.8063 C   0  0  0  0  0  0  0  0  0  0  0  0
   19.3540   20.4177   23.9045 H   0  0  0  0  0  0  0  0  0  0  0  0
   18.2268   19.2847   24.5796 H   0  0  0  0  0  0  0  0  0  0  0  0
   18.3076   19.1745   22.4359 C   0  0  0  0  0  0  0  0  0  0  0  0
   17.6822   20.0500   22.2147 H   0  0  0  0  0  0  0  0  0  0  0  0
   17.6115   18.3307   22.5379 H   0  0  0  0  0  0  0  0  0  0  0  0
   22.4832   18.0073   24.4980 O   0  0  0  0  0  0  0  0  0  0  0  0
   22.3893   17.1877   23.9705 H   0  0  0  0  0  0  0  0  0  0  0  0
  1  2  1  0  0  0  0
  1  3  1  0  0  0  0
  1  4  1  0  0  0  0
  4  5  1  0  0  0  0
  4  6  1  0  0  0  0
  4  7  1  0  0  0  0
  7  8  1  0  0  0  0
  7  9  1  0  0  0  0
  7 10  1  0  0  0  0
 10 11  1  0  0  0  0
 10 12  1  0  0  0  0
 10 13  1  0  0  0  0
 13 14  1  0  0  0  0
 13 15  1  0  0  0  0
 15 16  1  0  0  0  0
 15 17  1  0  0  0  0
 15 18  1  0  0  0  0
 18 19  1  0  0  0  0
 18 20  1  0  0  0  0
  1 21  1  0  0  0  0
 18 21  1  0  0  0  0
 21 22  1  0  0  0  0
 21 23  1  0  0  0  0
 13 24  1  0  0  0  0
 24 25  1  0  0  0  0
M  END
> <VConfSearch Rank>
379

> <Conf_Id>
15

> <Delta U+W>
-1.271

> <U+W>
9.643

> <U>
11.413

> <W>
-1.770

> <W(PB)>
-3.908

> <W(SA)>
2.138

> <Valence>
17.496

> <Coulomb>
-8.736

> <VdW>
2.653

> <VdW6>
-12.485

> <VdW12>
15.138

> <Bond>
0.414

> <Angle>
5.295

> <Pdih>
11.787

> <Idih>
0.000

> <Tether>
0.000

$$$$
VeraChem MOL file


 25 25  0  0  0  0  0  0  0  0999 V2000     
   21.5923   20.5823   23.1561 C   0  0  0  0  0  0  0  0  0  0  0  0
   22.1617   21.4892   23.4015 H   0  0  0  0  0  0  0  0  0  0  0  0
   22.3517   19.8453   22.8657 H   0  0  0  0  0  0  0  0  0  0  0  0
   20.8668   20.1380   24.4534 C   0  0  0  0  0  0  0  0  0  0  0  0
   21.6288   19.8209   25.1785 H   0  0  0  0  0  0  0  0  0  0  0  0
   20.3735   21.0112   24.9016 H   0  0  0  0  0  0  0  0  0  0  0  0
   19.8183   19.0086   24.3105 C   0  0  0  0  0  0  0  0  0  0  0  0
   18.8856   19.4226   23.9099 H   0  0  0  0  0  0  0  0  0  0  0  0
   19.5584   18.6553   25.3177 H   0  0  0  0  0  0  0  0  0  0  0  0
   20.2999   17.7994   23.4671 C   0  0  0  0  0  0  0  0  0  0  0  0
   21.3695   17.8794   23.2440 H   0  0  0  0  0  0  0  0  0  0  0  0
   20.2061   16.8915   24.0772 H   0  0  0  0  0  0  0  0  0  0  0  0
   19.5019   17.5688   22.1631 C   0  0  0  0  0  0  0  0  0  0  0  0
   18.5233   17.1522   22.4416 H   0  0  0  0  0  0  0  0  0  0  0  0
   19.2326   18.8183   21.2852 C   0  0  0  0  0  0  0  0  0  0  0  0
   18.8157   18.4584   20.3349 H   0  0  0  0  0  0  0  0  0  0  0  0
   18.4287   19.4201   21.7258 H   0  0  0  0  0  0  0  0  0  0  0  0
   20.4492   19.7261   20.9616 C   0  0  0  0  0  0  0  0  0  0  0  0
   20.2580   20.1717   19.9757 H   0  0  0  0  0  0  0  0  0  0  0  0
   21.3647   19.1334   20.8375 H   0  0  0  0  0  0  0  0  0  0  0  0
   20.6779   20.9042   21.9483 C   0  0  0  0  0  0  0  0  0  0  0  0
   19.7239   21.3324   22.2840 H   0  0  0  0  0  0  0  0  0  0  0  0
   21.1712   21.7044   21.3795 H   0  0  0  0  0  0  0  0  0  0  0  0
   20.1992   16.6100   21.3802 O   0  0  0  0  0  0  0  0  0  0  0  0
   21.0160   17.0550   21.0769 H   0  0  0  0  0  0  0  0  0  0  0  0
  1  2  1  0  0  0  0
  1  3  1  0  0  0  0
  1  4  1  0  0  0  0
  4  5  1  0  0  0  0
  4  6  1  0  0  0  0
  4  7  1  0  0  0  0
  7  8  1  0  0  0  0
  7  9  1  0  0  0  0
  7 10  1  0  0  0  0
 10 11  1  0  0  0  0
 10 12  1  0  0  0  0
 10 13  1  0  0  0  0
 13 14  1  0  0  0  0
 13 15  1  0  0  0  0
 15 16  1  0  0  0  0
 15 17  1  0  0  0  0
 15 18  1  0  0  0  0
 18 19  1  0  0  0  0
 18 20  1  0  0  0  0
  1 21  1  0  0  0  0
 18 21  1  0  0  0  0
 21 22  1  0  0  0  0
 21 23  1  0  0  0  0
 13 24  1  0  0  0  0
 24 25  1  0  0  0  0
M  END
> <VConfSearch Rank>
380

> <Conf_Id>
115

> <Delta U+W>
0.038

> <U+W>
10.952

> <U>
12.526

> <W>
-1.575

> <W(PB)>
-3.698

> <W(SA)>
2.123

> <Valence>
19.016

> <Coulomb>
-9.226

> <VdW>
2.737

> <VdW6>
-12.612

> <VdW12>
15.349

> <Bond>
0.421

> <Angle>
4.883

> <Pdih>
13.711

> <Idih>
0.000

> <Tether>
0.000

$$$$
VeraChem MOL file


 25 25  0  0  0  0  0  0  0  0999 V2000     
   21.9878   18.7457   23.9180 C   0  0  0  0  0  0  0  0  0  0  0  0
   22.5637   18.0665   24.5616 H   0  0  0  0  0  0  0  0  0  0  0  0
   22.6577   19.5904   23.7080 H   0  0  0  0  0  0  0  0  0  0  0  0
   20.7655   19.2273   24.7337 C   0  0  0  0  0  0  0  0  0  0  0  0
   20.1593   18.3670   25.0484 H   0  0  0  0  0  0  0  0  0  0  0  0
   21.1460   19.6752   25.6619 H   0  0  0  0  0  0  0  0  0  0  0  0
   19.8766   20.2775   24.0281 C   0  0  0  0  0  0  0  0  0  0  0  0
   20.5000   21.0181   23.5095 H   0  0  0  0  0  0  0  0  0  0  0  0
   19.3472   20.8388   24.8103 H   0  0  0  0  0  0  0  0  0  0  0  0
   18.8048   19.6745   23.0808 C   0  0  0  0  0  0  0  0  0  0  0  0
   18.6918   18.5951   23.2422 H   0  0  0  0  0  0  0  0  0  0  0  0
   17.8374   20.1143   23.3590 H   0  0  0  0  0  0  0  0  0  0  0  0
   19.0428   19.9621   21.5813 C   0  0  0  0  0  0  0  0  0  0  0  0
   19.4699   20.9697   21.4757 H   0  0  0  0  0  0  0  0  0  0  0  0
   19.9661   18.9485   20.8695 C   0  0  0  0  0  0  0  0  0  0  0  0
   19.5233   17.9447   20.9118 H   0  0  0  0  0  0  0  0  0  0  0  0
   19.9950   19.2176   19.8054 H   0  0  0  0  0  0  0  0  0  0  0  0
   21.4270   18.9082   21.3803 C   0  0  0  0  0  0  0  0  0  0  0  0
   21.7956   19.9258   21.5663 H   0  0  0  0  0  0  0  0  0  0  0  0
   22.0485   18.5191   20.5620 H   0  0  0  0  0  0  0  0  0  0  0  0
   21.6529   17.9906   22.6103 C   0  0  0  0  0  0  0  0  0  0  0  0
   22.5078   17.3394   22.3814 H   0  0  0  0  0  0  0  0  0  0  0  0
   20.8046   17.3111   22.7666 H   0  0  0  0  0  0  0  0  0  0  0  0
   17.7830   19.9292   20.9214 O   0  0  0  0  0  0  0  0  0  0  0  0
   17.9476   20.1663   19.9849 H   0  0  0  0  0  0  0  0  0  0  0  0
  1  2  1  0  0  0  0
  1  3  1  0  0  0  0
  1  4  1  0  0  0  0
  4  5  1  0  0  0  0
  4  6  1  0  0  0  0
  4  7  1  0  0  0  0
  7  8  1  0  0  0  0
  7  9  1  0  0  0  0
  7 10  1  0  0  0  0
 10 11  1  0  0  0  0
 10 12  1  0  0  0  0
 10 13  1  0  0  0  0
 13 14  1  0  0  0  0
 13 15  1  0  0  0  0
 15 16  1  0  0  0  0
 15 17  1  0  0  0  0
 15 18  1  0  0  0  0
 18 19  1  0  0  0  0
 18 20  1  0  0  0  0
  1 21  1  0  0  0  0
 18 21  1  0  0  0  0
 21 22  1  0  0  0  0
 21 23  1  0  0  0  0
 13 24  1  0  0  0  0
 24 25  1  0  0  0  0
M  END
> <VConfSearch Rank>
381

> <Conf_Id>
30

> <Delta U+W>
0.000

> <U+W>
10.913

> <U>
13.140

> <W>
-2.227

> <W(PB)>
-4.367

> <W(SA)>
2.140

> <Valence>
19.155

> <Coulomb>
-8.157

> <VdW>
2.142

> <VdW6>
-11.576

> <VdW12>
13.718

> <Bond>
0.294

> <Angle>
3.547

> <Pdih>
15.314

> <Idih>
0.000

> <Tether>
0.000

$$$$
VeraChem MOL file


 25 25  0  0  0  0  0  0  0  0999 V2000     
   22.1228   18.3817   23.3560 C   0  0  0  0  0  0  0  0  0  0  0  0
   23.1578   18.4135   22.9890 H   0  0  0  0  0  0  0  0  0  0  0  0
   22.1355   17.7051   24.2214 H   0  0  0  0  0  0  0  0  0  0  0  0
   21.2320   17.7487   22.2588 C   0  0  0  0  0  0  0  0  0  0  0  0
   21.7624   16.8759   21.8542 H   0  0  0  0  0  0  0  0  0  0  0  0
   20.3250   17.3346   22.7144 H   0  0  0  0  0  0  0  0  0  0  0  0
   20.8830   18.7021   21.0879 C   0  0  0  0  0  0  0  0  0  0  0  0
   21.1963   18.2327   20.1454 H   0  0  0  0  0  0  0  0  0  0  0  0
   21.4671   19.6279   21.1468 H   0  0  0  0  0  0  0  0  0  0  0  0
   19.3751   19.0419   20.9772 C   0  0  0  0  0  0  0  0  0  0  0  0
   19.2559   19.8575   20.2517 H   0  0  0  0  0  0  0  0  0  0  0  0
   18.8549   18.1767   20.5460 H   0  0  0  0  0  0  0  0  0  0  0  0
   18.6453   19.4225   22.2897 C   0  0  0  0  0  0  0  0  0  0  0  0
   18.5373   18.5270   22.9160 H   0  0  0  0  0  0  0  0  0  0  0  0
   19.3310   20.5310   23.1255 C   0  0  0  0  0  0  0  0  0  0  0  0
   19.8603   21.2323   22.4678 H   0  0  0  0  0  0  0  0  0  0  0  0
   18.5467   21.1258   23.6124 H   0  0  0  0  0  0  0  0  0  0  0  0
   20.2673   20.0159   24.2550 C   0  0  0  0  0  0  0  0  0  0  0  0
   19.8628   19.1090   24.7245 H   0  0  0  0  0  0  0  0  0  0  0  0
   20.2637   20.7793   25.0452 H   0  0  0  0  0  0  0  0  0  0  0  0
   21.7446   19.8072   23.8391 C   0  0  0  0  0  0  0  0  0  0  0  0
   22.3748   20.0262   24.7119 H   0  0  0  0  0  0  0  0  0  0  0  0
   22.0331   20.5573   23.0918 H   0  0  0  0  0  0  0  0  0  0  0  0
   17.3433   19.8705   21.9316 O   0  0  0  0  0  0  0  0  0  0  0  0
   16.8605   20.0332   22.7687 H   0  0  0  0  0  0  0  0  0  0  0  0
  1  2  1  0  0  0  0
  1  3  1  0  0  0  0
  1  4  1  0  0  0  0
  4  5  1  0  0  0  0
  4  6  1  0  0  0  0
  4  7  1  0  0  0  0
  7  8  1  0  0  0  0
  7  9  1  0  0  0  0
  7 10  1  0  0  0  0
 10 11  1  0  0  0  0
 10 12  1  0  0  0  0
 10 13  1  0  0  0  0
 13 14  1  0  0  0  0
 13 15  1  0  0  0  0
 15 16  1  0  0  0  0
 15 17  1  0  0  0  0
 15 18  1  0  0  0  0
 18 19  1  0  0  0  0
 18 20  1  0  0  0  0
  1 21  1  0  0  0  0
 18 21  1  0  0  0  0
 21 22  1  0  0  0  0
 21 23  1  0  0  0  0
 13 24  1  0  0  0  0
 24 25  1  0  0  0  0
M  END
> <VConfSearch Rank>
382

> <Conf_Id>
162

> <Delta U+W>
0.219

> <U+W>
11.132

> <U>
13.296

> <W>
-2.164

> <W(PB)>
-4.311

> <W(SA)>
2.148

> <Valence>
18.607

> <Coulomb>
-8.339

> <VdW>
3.028

> <VdW6>
-12.271

> <VdW12>
15.299

> <Bond>
0.423

> <Angle>
4.488

> <Pdih>
13.696

> <Idih>
0.000

> <Tether>
0.000

$$$$
VeraChem MOL file


 25 25  0  0  0  0  0  0  0  0999 V2000     
   21.0729   20.5051   21.3028 C   0  0  0  0  0  0  0  0  0  0  0  0
   21.7013   19.6830   20.9376 H   0  0  0  0  0  0  0  0  0  0  0  0
   21.2875   21.3433   20.6258 H   0  0  0  0  0  0  0  0  0  0  0  0
   19.5765   20.1360   21.1472 C   0  0  0  0  0  0  0  0  0  0  0  0
   18.9520   20.7534   21.8068 H   0  0  0  0  0  0  0  0  0  0  0  0
   19.2843   20.4150   20.1255 H   0  0  0  0  0  0  0  0  0  0  0  0
   19.2465   18.6263   21.3131 C   0  0  0  0  0  0  0  0  0  0  0  0
   20.0388   17.9975   20.8852 H   0  0  0  0  0  0  0  0  0  0  0  0
   18.3558   18.4272   20.7013 H   0  0  0  0  0  0  0  0  0  0  0  0
   18.9068   18.1783   22.7585 C   0  0  0  0  0  0  0  0  0  0  0  0
   18.3884   18.9866   23.2887 H   0  0  0  0  0  0  0  0  0  0  0  0
   18.1714   17.3658   22.6936 H   0  0  0  0  0  0  0  0  0  0  0  0
   20.0862   17.6390   23.6068 C   0  0  0  0  0  0  0  0  0  0  0  0
   20.3762   16.6609   23.1965 H   0  0  0  0  0  0  0  0  0  0  0  0
   21.3596   18.5170   23.6461 C   0  0  0  0  0  0  0  0  0  0  0  0
   22.0220   18.1369   24.4346 H   0  0  0  0  0  0  0  0  0  0  0  0
   21.9242   18.3662   22.7198 H   0  0  0  0  0  0  0  0  0  0  0  0
   21.1009   20.0262   23.8970 C   0  0  0  0  0  0  0  0  0  0  0  0
   21.6584   20.3362   24.7911 H   0  0  0  0  0  0  0  0  0  0  0  0
   20.0489   20.2067   24.1478 H   0  0  0  0  0  0  0  0  0  0  0  0
   21.5181   20.9445   22.7230 C   0  0  0  0  0  0  0  0  0  0  0  0
   22.6124   21.0410   22.7231 H   0  0  0  0  0  0  0  0  0  0  0  0
   21.1295   21.9527   22.9207 H   0  0  0  0  0  0  0  0  0  0  0  0
   19.6178   17.4603   24.9382 O   0  0  0  0  0  0  0  0  0  0  0  0
   20.3744   17.1222   25.4601 H   0  0  0  0  0  0  0  0  0  0  0  0
  1  2  1  0  0  0  0
  1  3  1  0  0  0  0
  1  4  1  0  0  0  0
  4  5  1  0  0  0  0
  4  6  1  0  0  0  0
  4  7  1  0  0  0  0
  7  8  1  0  0  0  0
  7  9  1  0  0  0  0
  7 10  1  0  0  0  0
 10 11  1  0  0  0  0
 10 12  1  0  0  0  0
 10 13  1  0  0  0  0
 13 14  1  0  0  0  0
 13 15  1  0  0  0  0
 15 16  1  0  0  0  0
 15 17  1  0  0  0  0
 15 18  1  0  0  0  0
 18 19  1  0  0  0  0
 18 20  1  0  0  0  0
  1 21  1  0  0  0  0
 18 21  1  0  0  0  0
 21 22  1  0  0  0  0
 21 23  1  0  0  0  0
 13 24  1  0  0  0  0
 24 25  1  0  0  0  0
M  END
> <VConfSearch Rank>
383

> <Conf_Id>
155

> <Delta U+W>
0.339

> <U+W>
11.252

> <U>
13.420

> <W>
-2.167

> <W(PB)>
-4.325

> <W(SA)>
2.157

> <Valence>
18.609

> <Coulomb>
-8.052

> <VdW>
2.863

> <VdW6>
-12.524

> <VdW12>
15.387

> <Bond>
0.430

> <Angle>
4.724

> <Pdih>
13.455

> <Idih>
0.000

> <Tether>
0.000

$$$$
VeraChem MOL file


 25 25  0  0  0  0  0  0  0  0999 V2000     
   19.4035   18.7151   24.3703 C   0  0  0  0  0  0  0  0  0  0  0  0
   18.3199   18.5733   24.2607 H   0  0  0  0  0  0  0  0  0  0  0  0
   19.6202   18.5060   25.4268 H   0  0  0  0  0  0  0  0  0  0  0  0
   20.1467   17.6388   23.5361 C   0  0  0  0  0  0  0  0  0  0  0  0
   21.2209   17.7045   23.7361 H   0  0  0  0  0  0  0  0  0  0  0  0
   19.8699   16.6557   23.9407 H   0  0  0  0  0  0  0  0  0  0  0  0
   19.8703   17.5971   22.0047 C   0  0  0  0  0  0  0  0  0  0  0  0
   18.9795   16.9738   21.8481 H   0  0  0  0  0  0  0  0  0  0  0  0
   20.6928   17.0638   21.5089 H   0  0  0  0  0  0  0  0  0  0  0  0
   19.6188   18.9412   21.2685 C   0  0  0  0  0  0  0  0  0  0  0  0
   19.3061   18.7004   20.2440 H   0  0  0  0  0  0  0  0  0  0  0  0
   18.7328   19.4224   21.6917 H   0  0  0  0  0  0  0  0  0  0  0  0
   20.7955   19.9571   21.1809 C   0  0  0  0  0  0  0  0  0  0  0  0
   20.3641   20.9570   21.0293 H   0  0  0  0  0  0  0  0  0  0  0  0
   21.7693   20.0362   22.3834 C   0  0  0  0  0  0  0  0  0  0  0  0
   22.2575   19.0659   22.5121 H   0  0  0  0  0  0  0  0  0  0  0  0
   22.5925   20.7043   22.0977 H   0  0  0  0  0  0  0  0  0  0  0  0
   21.2104   20.5600   23.7404 C   0  0  0  0  0  0  0  0  0  0  0  0
   21.2858   21.6559   23.7260 H   0  0  0  0  0  0  0  0  0  0  0  0
   21.8768   20.2316   24.5493 H   0  0  0  0  0  0  0  0  0  0  0  0
   19.7453   20.2121   24.1135 C   0  0  0  0  0  0  0  0  0  0  0  0
   19.0685   20.6440   23.3695 H   0  0  0  0  0  0  0  0  0  0  0  0
   19.4985   20.7608   25.0327 H   0  0  0  0  0  0  0  0  0  0  0  0
   21.5755   19.6234   20.0379 O   0  0  0  0  0  0  0  0  0  0  0  0
   20.9674   19.6246   19.2702 H   0  0  0  0  0  0  0  0  0  0  0  0
  1  2  1  0  0  0  0
  1  3  1  0  0  0  0
  1  4  1  0  0  0  0
  4  5  1  0  0  0  0
  4  6  1  0  0  0  0
  4  7  1  0  0  0  0
  7  8  1  0  0  0  0
  7  9  1  0  0  0  0
  7 10  1  0  0  0  0
 10 11  1  0  0  0  0
 10 12  1  0  0  0  0
 10 13  1  0  0  0  0
 13 14  1  0  0  0  0
 13 15  1  0  0  0  0
 15 16  1  0  0  0  0
 15 17  1  0  0  0  0
 15 18  1  0  0  0  0
 18 19  1  0  0  0  0
 18 20  1  0  0  0  0
  1 21  1  0  0  0  0
 18 21  1  0  0  0  0
 21 22  1  0  0  0  0
 21 23  1  0  0  0  0
 13 24  1  0  0  0  0
 24 25  1  0  0  0  0
M  END
> <VConfSearch Rank>
384

> <Conf_Id>
146

> <Delta U+W>
2.553

> <U+W>
13.466

> <U>
15.643

> <W>
-2.176

> <W(PB)>
-4.307

> <W(SA)>
2.131

> <Valence>
18.916

> <Coulomb>
-7.506

> <VdW>
4.232

> <VdW6>
-13.632

> <VdW12>
17.864

> <Bond>
0.735

> <Angle>
9.140

> <Pdih>
9.042

> <Idih>
0.000

> <Tether>
0.000

$$$$
VeraChem MOL file


 25 25  0  0  0  0  0  0  0  0999 V2000     
   21.9954   18.8000   21.5327 C   0  0  0  0  0  0  0  0  0  0  0  0
   22.0760   17.8848   20.9307 H   0  0  0  0  0  0  0  0  0  0  0  0
   22.9420   19.3371   21.3834 H   0  0  0  0  0  0  0  0  0  0  0  0
   21.9111   18.4199   23.0323 C   0  0  0  0  0  0  0  0  0  0  0  0
   22.8357   17.8829   23.2846 H   0  0  0  0  0  0  0  0  0  0  0  0
   21.9368   19.3208   23.6559 H   0  0  0  0  0  0  0  0  0  0  0  0
   20.7254   17.5099   23.4399 C   0  0  0  0  0  0  0  0  0  0  0  0
   20.8668   17.2350   24.4942 H   0  0  0  0  0  0  0  0  0  0  0  0
   20.7797   16.5684   22.8768 H   0  0  0  0  0  0  0  0  0  0  0  0
   19.3001   18.1036   23.2918 C   0  0  0  0  0  0  0  0  0  0  0  0
   18.9566   18.0140   22.2564 H   0  0  0  0  0  0  0  0  0  0  0  0
   18.6203   17.4571   23.8631 H   0  0  0  0  0  0  0  0  0  0  0  0
   19.1416   19.5654   23.7839 C   0  0  0  0  0  0  0  0  0  0  0  0
   19.9611   19.8134   24.4717 H   0  0  0  0  0  0  0  0  0  0  0  0
   19.0917   20.6156   22.6453 C   0  0  0  0  0  0  0  0  0  0  0  0
   18.2930   20.3466   21.9414 H   0  0  0  0  0  0  0  0  0  0  0  0
   18.7901   21.5761   23.0831 H   0  0  0  0  0  0  0  0  0  0  0  0
   20.4078   20.8605   21.8582 C   0  0  0  0  0  0  0  0  0  0  0  0
   21.2149   21.1697   22.5348 H   0  0  0  0  0  0  0  0  0  0  0  0
   20.2341   21.7267   21.2051 H   0  0  0  0  0  0  0  0  0  0  0  0
   20.8566   19.6811   20.9571 C   0  0  0  0  0  0  0  0  0  0  0  0
   21.2194   20.0962   20.0068 H   0  0  0  0  0  0  0  0  0  0  0  0
   19.9964   19.0641   20.6739 H   0  0  0  0  0  0  0  0  0  0  0  0
   17.9157   19.6600   24.5006 O   0  0  0  0  0  0  0  0  0  0  0  0
   17.8629   20.5731   24.8523 H   0  0  0  0  0  0  0  0  0  0  0  0
  1  2  1  0  0  0  0
  1  3  1  0  0  0  0
  1  4  1  0  0  0  0
  4  5  1  0  0  0  0
  4  6  1  0  0  0  0
  4  7  1  0  0  0  0
  7  8  1  0  0  0  0
  7  9  1  0  0  0  0
  7 10  1  0  0  0  0
 10 11  1  0  0  0  0
 10 12  1  0  0  0  0
 10 13  1  0  0  0  0
 13 14  1  0  0  0  0
 13 15  1  0  0  0  0
 15 16  1  0  0  0  0
 15 17  1  0  0  0  0
 15 18  1  0  0  0  0
 18 19  1  0  0  0  0
 18 20  1  0  0  0  0
  1 21  1  0  0  0  0
 18 21  1  0  0  0  0
 21 22  1  0  0  0  0
 21 23  1  0  0  0  0
 13 24  1  0  0  0  0
 24 25  1  0  0  0  0
M  END
> <VConfSearch Rank>
385

> <Conf_Id>
62

> <Delta U+W>
-1.779

> <U+W>
9.134

> <U>
11.364

> <W>
-2.230

> <W(PB)>
-4.359

> <W(SA)>
2.129

> <Valence>
16.582

> <Coulomb>
-8.150

> <VdW>
2.933

> <VdW6>
-12.531

> <VdW12>
15.464

> <Bond>
0.439

> <Angle>
5.099

> <Pdih>
11.044

> <Idih>
0.000

> <Tether>
0.000

$$$$
VeraChem MOL file


 25 25  0  0  0  0  0  0  0  0999 V2000     
   19.3345   20.4615   21.7628 C   0  0  0  0  0  0  0  0  0  0  0  0
   19.7685   21.0198   22.6001 H   0  0  0  0  0  0  0  0  0  0  0  0
   18.7103   21.1955   21.2351 H   0  0  0  0  0  0  0  0  0  0  0  0
   18.3929   19.3483   22.2860 C   0  0  0  0  0  0  0  0  0  0  0  0
   17.5990   19.8358   22.8682 H   0  0  0  0  0  0  0  0  0  0  0  0
   17.8872   18.8715   21.4355 H   0  0  0  0  0  0  0  0  0  0  0  0
   19.0256   18.2483   23.1761 C   0  0  0  0  0  0  0  0  0  0  0  0
   19.4914   17.4732   22.5570 H   0  0  0  0  0  0  0  0  0  0  0  0
   18.2016   17.7324   23.6878 H   0  0  0  0  0  0  0  0  0  0  0  0
   20.0216   18.7575   24.2522 C   0  0  0  0  0  0  0  0  0  0  0  0
   19.8236   19.8055   24.5087 H   0  0  0  0  0  0  0  0  0  0  0  0
   19.8222   18.1921   25.1719 H   0  0  0  0  0  0  0  0  0  0  0  0
   21.5181   18.5576   23.9030 C   0  0  0  0  0  0  0  0  0  0  0  0
   21.6735   17.5001   23.6451 H   0  0  0  0  0  0  0  0  0  0  0  0
   22.0766   19.4223   22.7453 C   0  0  0  0  0  0  0  0  0  0  0  0
   21.9388   20.4888   22.9609 H   0  0  0  0  0  0  0  0  0  0  0  0
   23.1639   19.2699   22.7283 H   0  0  0  0  0  0  0  0  0  0  0  0
   21.5360   19.0603   21.3360 C   0  0  0  0  0  0  0  0  0  0  0  0
   21.1892   18.0210   21.3128 H   0  0  0  0  0  0  0  0  0  0  0  0
   22.3769   19.0850   20.6295 H   0  0  0  0  0  0  0  0  0  0  0  0
   20.4447   20.0111   20.7809 C   0  0  0  0  0  0  0  0  0  0  0  0
   19.9829   19.5474   19.8987 H   0  0  0  0  0  0  0  0  0  0  0  0
   20.9450   20.9171   20.4124 H   0  0  0  0  0  0  0  0  0  0  0  0
   22.2769   18.8599   25.0671 O   0  0  0  0  0  0  0  0  0  0  0  0
   21.9615   18.2597   25.7745 H   0  0  0  0  0  0  0  0  0  0  0  0
  1  2  1  0  0  0  0
  1  3  1  0  0  0  0
  1  4  1  0  0  0  0
  4  5  1  0  0  0  0
  4  6  1  0  0  0  0
  4  7  1  0  0  0  0
  7  8  1  0  0  0  0
  7  9  1  0  0  0  0
  7 10  1  0  0  0  0
 10 11  1  0  0  0  0
 10 12  1  0  0  0  0
 10 13  1  0  0  0  0
 13 14  1  0  0  0  0
 13 15  1  0  0  0  0
 15 16  1  0  0  0  0
 15 17  1  0  0  0  0
 15 18  1  0  0  0  0
 18 19  1  0  0  0  0
 18 20  1  0  0  0  0
  1 21  1  0  0  0  0
 18 21  1  0  0  0  0
 21 22  1  0  0  0  0
 21 23  1  0  0  0  0
 13 24  1  0  0  0  0
 24 25  1  0  0  0  0
M  END
> <VConfSearch Rank>
386

> <Conf_Id>
121

> <Delta U+W>
-1.283

> <U+W>
9.630

> <U>
11.876

> <W>
-2.246

> <W(PB)>
-4.376

> <W(SA)>
2.130

> <Valence>
17.153

> <Coulomb>
-7.966

> <VdW>
2.689

> <VdW6>
-12.458

> <VdW12>
15.147

> <Bond>
0.421

> <Angle>
5.258

> <Pdih>
11.475

> <Idih>
0.000

> <Tether>
0.000

$$$$
VeraChem MOL file


 25 25  0  0  0  0  0  0  0  0999 V2000     
   20.1329   20.8935   23.5437 C   0  0  0  0  0  0  0  0  0  0  0  0
   20.9889   21.0530   22.8782 H   0  0  0  0  0  0  0  0  0  0  0  0
   19.9912   21.8590   24.0481 H   0  0  0  0  0  0  0  0  0  0  0  0
   20.4841   19.8515   24.6349 C   0  0  0  0  0  0  0  0  0  0  0  0
   21.3370   20.2462   25.2038 H   0  0  0  0  0  0  0  0  0  0  0  0
   19.6549   19.7833   25.3520 H   0  0  0  0  0  0  0  0  0  0  0  0
   20.8541   18.4243   24.1562 C   0  0  0  0  0  0  0  0  0  0  0  0
   19.9498   17.8314   23.9782 H   0  0  0  0  0  0  0  0  0  0  0  0
   21.3521   17.9201   24.9957 H   0  0  0  0  0  0  0  0  0  0  0  0
   21.7973   18.3614   22.9250 C   0  0  0  0  0  0  0  0  0  0  0  0
   22.3925   19.2781   22.8343 H   0  0  0  0  0  0  0  0  0  0  0  0
   22.5263   17.5616   23.1112 H   0  0  0  0  0  0  0  0  0  0  0  0
   21.0996   18.0318   21.5817 C   0  0  0  0  0  0  0  0  0  0  0  0
   20.5138   17.1112   21.7179 H   0  0  0  0  0  0  0  0  0  0  0  0
   20.1621   19.1233   21.0063 C   0  0  0  0  0  0  0  0  0  0  0  0
   20.7092   20.0631   20.8627 H   0  0  0  0  0  0  0  0  0  0  0  0
   19.8677   18.8032   19.9983 H   0  0  0  0  0  0  0  0  0  0  0  0
   18.8564   19.3551   21.8131 C   0  0  0  0  0  0  0  0  0  0  0  0
   18.5995   18.4619   22.3939 H   0  0  0  0  0  0  0  0  0  0  0  0
   18.0278   19.4667   21.1004 H   0  0  0  0  0  0  0  0  0  0  0  0
   18.8521   20.6130   22.7188 C   0  0  0  0  0  0  0  0  0  0  0  0
   17.9885   20.5620   23.3956 H   0  0  0  0  0  0  0  0  0  0  0  0
   18.6757   21.4876   22.0778 H   0  0  0  0  0  0  0  0  0  0  0  0
   22.1179   17.7868   20.6197 O   0  0  0  0  0  0  0  0  0  0  0  0
   21.6673   17.5132   19.7937 H   0  0  0  0  0  0  0  0  0  0  0  0
  1  2  1  0  0  0  0
  1  3  1  0  0  0  0
  1  4  1  0  0  0  0
  4  5  1  0  0  0  0
  4  6  1  0  0  0  0
  4  7  1  0  0  0  0
  7  8  1  0  0  0  0
  7  9  1  0  0  0  0
  7 10  1  0  0  0  0
 10 11  1  0  0  0  0
 10 12  1  0  0  0  0
 10 13  1  0  0  0  0
 13 14  1  0  0  0  0
 13 15  1  0  0  0  0
 15 16  1  0  0  0  0
 15 17  1  0  0  0  0
 15 18  1  0  0  0  0
 18 19  1  0  0  0  0
 18 20  1  0  0  0  0
  1 21  1  0  0  0  0
 18 21  1  0  0  0  0
 21 22  1  0  0  0  0
 21 23  1  0  0  0  0
 13 24  1  0  0  0  0
 24 25  1  0  0  0  0
M  END
> <VConfSearch Rank>
387

> <Conf_Id>
24

> <Delta U+W>
-1.236

> <U+W>
9.678

> <U>
11.876

> <W>
-2.199

> <W(PB)>
-4.335

> <W(SA)>
2.137

> <Valence>
17.153

> <Coulomb>
-7.966

> <VdW>
2.689

> <VdW6>
-12.458

> <VdW12>
15.147

> <Bond>
0.421

> <Angle>
5.258

> <Pdih>
11.475

> <Idih>
0.000

> <Tether>
0.000

$$$$
VeraChem MOL file


 25 25  0  0  0  0  0  0  0  0999 V2000     
   21.5124   17.6182   23.4113 C   0  0  0  0  0  0  0  0  0  0  0  0
   22.3406   17.7999   24.1098 H   0  0  0  0  0  0  0  0  0  0  0  0
   21.5454   16.5439   23.1844 H   0  0  0  0  0  0  0  0  0  0  0  0
   20.1717   17.9123   24.1353 C   0  0  0  0  0  0  0  0  0  0  0  0
   19.3343   17.4426   23.6038 H   0  0  0  0  0  0  0  0  0  0  0  0
   20.2119   17.3962   25.1043 H   0  0  0  0  0  0  0  0  0  0  0  0
   19.8574   19.4049   24.4039 C   0  0  0  0  0  0  0  0  0  0  0  0
   20.7780   19.9656   24.6146 H   0  0  0  0  0  0  0  0  0  0  0  0
   19.2729   19.4452   25.3334 H   0  0  0  0  0  0  0  0  0  0  0  0
   19.0093   20.1091   23.3072 C   0  0  0  0  0  0  0  0  0  0  0  0
   18.2625   19.4217   22.8897 H   0  0  0  0  0  0  0  0  0  0  0  0
   18.4343   20.8965   23.8134 H   0  0  0  0  0  0  0  0  0  0  0  0
   19.8279   20.7753   22.1744 C   0  0  0  0  0  0  0  0  0  0  0  0
   20.8040   21.0741   22.5788 H   0  0  0  0  0  0  0  0  0  0  0  0
   20.0421   19.9053   20.9099 C   0  0  0  0  0  0  0  0  0  0  0  0
   19.0962   19.8252   20.3582 H   0  0  0  0  0  0  0  0  0  0  0  0
   20.7326   20.4450   20.2483 H   0  0  0  0  0  0  0  0  0  0  0  0
   20.5957   18.4751   21.1303 C   0  0  0  0  0  0  0  0  0  0  0  0
   20.9115   18.0782   20.1559 H   0  0  0  0  0  0  0  0  0  0  0  0
   19.7857   17.8108   21.4533 H   0  0  0  0  0  0  0  0  0  0  0  0
   21.7958   18.4051   22.1082 C   0  0  0  0  0  0  0  0  0  0  0  0
   22.1624   19.4080   22.3561 H   0  0  0  0  0  0  0  0  0  0  0  0
   22.6381   17.9202   21.5961 H   0  0  0  0  0  0  0  0  0  0  0  0
   19.1467   21.9541   21.7644 O   0  0  0  0  0  0  0  0  0  0  0  0
   18.2734   21.6664   21.4273 H   0  0  0  0  0  0  0  0  0  0  0  0
  1  2  1  0  0  0  0
  1  3  1  0  0  0  0
  1  4  1  0  0  0  0
  4  5  1  0  0  0  0
  4  6  1  0  0  0  0
  4  7  1  0  0  0  0
  7  8  1  0  0  0  0
  7  9  1  0  0  0  0
  7 10  1  0  0  0  0
 10 11  1  0  0  0  0
 10 12  1  0  0  0  0
 10 13  1  0  0  0  0
 13 14  1  0  0  0  0
 13 15  1  0  0  0  0
 15 16  1  0  0  0  0
 15 17  1  0  0  0  0
 15 18  1  0  0  0  0
 18 19  1  0  0  0  0
 18 20  1  0  0  0  0
  1 21  1  0  0  0  0
 18 21  1  0  0  0  0
 21 22  1  0  0  0  0
 21 23  1  0  0  0  0
 13 24  1  0  0  0  0
 24 25  1  0  0  0  0
M  END
> <VConfSearch Rank>
388

> <Conf_Id>
167

> <Delta U+W>
0.388

> <U+W>
11.301

> <U>
13.202

> <W>
-1.901

> <W(PB)>
-4.065

> <W(SA)>
2.163

> <Valence>
18.957

> <Coulomb>
-8.753

> <VdW>
2.998

> <VdW6>
-12.294

> <VdW12>
15.292

> <Bond>
0.419

> <Angle>
4.543

> <Pdih>
13.996

> <Idih>
0.000

> <Tether>
0.000

$$$$
VeraChem MOL file


 25 25  0  0  0  0  0  0  0  0999 V2000     
   20.1110   20.3043   24.4106 C   0  0  0  0  0  0  0  0  0  0  0  0
   20.1522   21.4019   24.4194 H   0  0  0  0  0  0  0  0  0  0  0  0
   19.9288   20.0067   25.4523 H   0  0  0  0  0  0  0  0  0  0  0  0
   21.5009   19.7530   23.9988 C   0  0  0  0  0  0  0  0  0  0  0  0
   21.9297   20.3524   23.1878 H   0  0  0  0  0  0  0  0  0  0  0  0
   22.1777   19.9197   24.8480 H   0  0  0  0  0  0  0  0  0  0  0  0
   21.5405   18.2447   23.6404 C   0  0  0  0  0  0  0  0  0  0  0  0
   20.7285   17.6993   24.1383 H   0  0  0  0  0  0  0  0  0  0  0  0
   22.4658   17.8293   24.0625 H   0  0  0  0  0  0  0  0  0  0  0  0
   21.5590   17.9364   22.1183 C   0  0  0  0  0  0  0  0  0  0  0  0
   22.4029   18.4598   21.6501 H   0  0  0  0  0  0  0  0  0  0  0  0
   21.7728   16.8658   22.0009 H   0  0  0  0  0  0  0  0  0  0  0  0
   20.2645   18.2460   21.3260 C   0  0  0  0  0  0  0  0  0  0  0  0
   19.4164   17.7482   21.8150 H   0  0  0  0  0  0  0  0  0  0  0  0
   19.9652   19.7593   21.1684 C   0  0  0  0  0  0  0  0  0  0  0  0
   20.8846   20.3400   21.2941 H   0  0  0  0  0  0  0  0  0  0  0  0
   19.6527   19.9654   20.1360 H   0  0  0  0  0  0  0  0  0  0  0  0
   18.8538   20.3080   22.1003 C   0  0  0  0  0  0  0  0  0  0  0  0
   17.8834   20.0082   21.6813 H   0  0  0  0  0  0  0  0  0  0  0  0
   18.8675   21.4057   22.0635 H   0  0  0  0  0  0  0  0  0  0  0  0
   18.8871   19.8454   23.5787 C   0  0  0  0  0  0  0  0  0  0  0  0
   18.7679   18.7579   23.6451 H   0  0  0  0  0  0  0  0  0  0  0  0
   17.9907   20.2514   24.0671 H   0  0  0  0  0  0  0  0  0  0  0  0
   20.4187   17.6852   20.0276 O   0  0  0  0  0  0  0  0  0  0  0  0
   19.5697   17.8257   19.5585 H   0  0  0  0  0  0  0  0  0  0  0  0
  1  2  1  0  0  0  0
  1  3  1  0  0  0  0
  1  4  1  0  0  0  0
  4  5  1  0  0  0  0
  4  6  1  0  0  0  0
  4  7  1  0  0  0  0
  7  8  1  0  0  0  0
  7  9  1  0  0  0  0
  7 10  1  0  0  0  0
 10 11  1  0  0  0  0
 10 12  1  0  0  0  0
 10 13  1  0  0  0  0
 13 14  1  0  0  0  0
 13 15  1  0  0  0  0
 15 16  1  0  0  0  0
 15 17  1  0  0  0  0
 15 18  1  0  0  0  0
 18 19  1  0  0  0  0
 18 20  1  0  0  0  0
  1 21  1  0  0  0  0
 18 21  1  0  0  0  0
 21 22  1  0  0  0  0
 21 23  1  0  0  0  0
 13 24  1  0  0  0  0
 24 25  1  0  0  0  0
M  END
> <VConfSearch Rank>
389

> <Conf_Id>
60

> <Delta U+W>
-1.838

> <U+W>
9.075

> <U>
11.150

> <W>
-2.074

> <W(PB)>
-4.196

> <W(SA)>
2.121

> <Valence>
16.582

> <Coulomb>
-8.361

> <VdW>
2.928

> <VdW6>
-12.539

> <VdW12>
15.467

> <Bond>
0.441

> <Angle>
5.093

> <Pdih>
11.049

> <Idih>
0.000

> <Tether>
0.000

$$$$
VeraChem MOL file


 25 25  0  0  0  0  0  0  0  0999 V2000     
   18.6962   18.8140   21.4416 C   0  0  0  0  0  0  0  0  0  0  0  0
   18.2777   17.8033   21.3428 H   0  0  0  0  0  0  0  0  0  0  0  0
   18.0963   19.4490   20.7754 H   0  0  0  0  0  0  0  0  0  0  0  0
   20.1485   18.8210   20.9015 C   0  0  0  0  0  0  0  0  0  0  0  0
   20.1031   18.5346   19.8419 H   0  0  0  0  0  0  0  0  0  0  0  0
   20.5468   19.8420   20.8938 H   0  0  0  0  0  0  0  0  0  0  0  0
   21.1403   17.8544   21.5963 C   0  0  0  0  0  0  0  0  0  0  0  0
   22.0836   17.8875   21.0341 H   0  0  0  0  0  0  0  0  0  0  0  0
   20.7715   16.8244   21.4984 H   0  0  0  0  0  0  0  0  0  0  0  0
   21.4638   18.1335   23.0870 C   0  0  0  0  0  0  0  0  0  0  0  0
   20.6736   17.7290   23.7274 H   0  0  0  0  0  0  0  0  0  0  0  0
   22.3513   17.5391   23.3422 H   0  0  0  0  0  0  0  0  0  0  0  0
   21.7215   19.6228   23.4339 C   0  0  0  0  0  0  0  0  0  0  0  0
   21.9711   20.1795   22.5207 H   0  0  0  0  0  0  0  0  0  0  0  0
   20.5353   20.3209   24.1445 C   0  0  0  0  0  0  0  0  0  0  0  0
   20.2628   19.7476   25.0402 H   0  0  0  0  0  0  0  0  0  0  0  0
   20.8927   21.2920   24.5120 H   0  0  0  0  0  0  0  0  0  0  0  0
   19.2634   20.5834   23.2926 C   0  0  0  0  0  0  0  0  0  0  0  0
   19.5040   21.1910   22.4107 H   0  0  0  0  0  0  0  0  0  0  0  0
   18.5956   21.2104   23.8991 H   0  0  0  0  0  0  0  0  0  0  0  0
   18.4727   19.3104   22.8938 C   0  0  0  0  0  0  0  0  0  0  0  0
   17.4009   19.5280   22.9981 H   0  0  0  0  0  0  0  0  0  0  0  0
   18.6571   18.5027   23.6110 H   0  0  0  0  0  0  0  0  0  0  0  0
   22.8389   19.6884   24.3121 O   0  0  0  0  0  0  0  0  0  0  0  0
   23.6001   19.3067   23.8268 H   0  0  0  0  0  0  0  0  0  0  0  0
  1  2  1  0  0  0  0
  1  3  1  0  0  0  0
  1  4  1  0  0  0  0
  4  5  1  0  0  0  0
  4  6  1  0  0  0  0
  4  7  1  0  0  0  0
  7  8  1  0  0  0  0
  7  9  1  0  0  0  0
  7 10  1  0  0  0  0
 10 11  1  0  0  0  0
 10 12  1  0  0  0  0
 10 13  1  0  0  0  0
 13 14  1  0  0  0  0
 13 15  1  0  0  0  0
 15 16  1  0  0  0  0
 15 17  1  0  0  0  0
 15 18  1  0  0  0  0
 18 19  1  0  0  0  0
 18 20  1  0  0  0  0
  1 21  1  0  0  0  0
 18 21  1  0  0  0  0
 21 22  1  0  0  0  0
 21 23  1  0  0  0  0
 13 24  1  0  0  0  0
 24 25  1  0  0  0  0
M  END
> <VConfSearch Rank>
390

> <Conf_Id>
129

> <Delta U+W>
-1.846

> <U+W>
9.067

> <U>
11.150

> <W>
-2.083

> <W(PB)>
-4.217

> <W(SA)>
2.134

> <Valence>
16.583

> <Coulomb>
-8.361

> <VdW>
2.928

> <VdW6>
-12.539

> <VdW12>
15.467

> <Bond>
0.441

> <Angle>
5.093

> <Pdih>
11.049

> <Idih>
0.000

> <Tether>
0.000

$$$$
VeraChem MOL file


 25 25  0  0  0  0  0  0  0  0999 V2000     
   20.6411   17.2344   22.2163 C   0  0  0  0  0  0  0  0  0  0  0  0
   20.2117   16.7602   21.3234 H   0  0  0  0  0  0  0  0  0  0  0  0
   21.2369   16.4537   22.7087 H   0  0  0  0  0  0  0  0  0  0  0  0
   19.4988   17.6253   23.1872 C   0  0  0  0  0  0  0  0  0  0  0  0
   18.9783   16.6993   23.4672 H   0  0  0  0  0  0  0  0  0  0  0  0
   19.9118   18.0045   24.1289 H   0  0  0  0  0  0  0  0  0  0  0  0
   18.4324   18.6008   22.6292 C   0  0  0  0  0  0  0  0  0  0  0  0
   17.6380   18.6882   23.3830 H   0  0  0  0  0  0  0  0  0  0  0  0
   17.9570   18.1526   21.7462 H   0  0  0  0  0  0  0  0  0  0  0  0
   18.9076   20.0334   22.2727 C   0  0  0  0  0  0  0  0  0  0  0  0
   19.3738   20.0411   21.2821 H   0  0  0  0  0  0  0  0  0  0  0  0
   18.0058   20.6502   22.1593 H   0  0  0  0  0  0  0  0  0  0  0  0
   19.8488   20.6911   23.3148 C   0  0  0  0  0  0  0  0  0  0  0  0
   19.7389   20.1859   24.2836 H   0  0  0  0  0  0  0  0  0  0  0  0
   21.3441   20.6965   22.9085 C   0  0  0  0  0  0  0  0  0  0  0  0
   21.4542   21.1739   21.9260 H   0  0  0  0  0  0  0  0  0  0  0  0
   21.8795   21.3437   23.6160 H   0  0  0  0  0  0  0  0  0  0  0  0
   22.0713   19.3246   22.8929 C   0  0  0  0  0  0  0  0  0  0  0  0
   22.0146   18.8424   23.8772 H   0  0  0  0  0  0  0  0  0  0  0  0
   23.1391   19.5296   22.7356 H   0  0  0  0  0  0  0  0  0  0  0  0
   21.6120   18.3583   21.7705 C   0  0  0  0  0  0  0  0  0  0  0  0
   22.5036   17.8681   21.3559 H   0  0  0  0  0  0  0  0  0  0  0  0
   21.1928   18.9188   20.9273 H   0  0  0  0  0  0  0  0  0  0  0  0
   19.4513   22.0465   23.4795 O   0  0  0  0  0  0  0  0  0  0  0  0
   19.5620   22.4753   22.6061 H   0  0  0  0  0  0  0  0  0  0  0  0
  1  2  1  0  0  0  0
  1  3  1  0  0  0  0
  1  4  1  0  0  0  0
  4  5  1  0  0  0  0
  4  6  1  0  0  0  0
  4  7  1  0  0  0  0
  7  8  1  0  0  0  0
  7  9  1  0  0  0  0
  7 10  1  0  0  0  0
 10 11  1  0  0  0  0
 10 12  1  0  0  0  0
 10 13  1  0  0  0  0
 13 14  1  0  0  0  0
 13 15  1  0  0  0  0
 15 16  1  0  0  0  0
 15 17  1  0  0  0  0
 15 18  1  0  0  0  0
 18 19  1  0  0  0  0
 18 20  1  0  0  0  0
  1 21  1  0  0  0  0
 18 21  1  0  0  0  0
 21 22  1  0  0  0  0
 21 23  1  0  0  0  0
 13 24  1  0  0  0  0
 24 25  1  0  0  0  0
M  END
> <VConfSearch Rank>
391

> <Conf_Id>
140

> <Delta U+W>
-1.702

> <U+W>
9.211

> <U>
11.181

> <W>
-1.969

> <W(PB)>
-4.093

> <W(SA)>
2.124

> <Valence>
16.954

> <Coulomb>
-8.661

> <VdW>
2.887

> <VdW6>
-12.561

> <VdW12>
15.448

> <Bond>
0.433

> <Angle>
5.120

> <Pdih>
11.401

> <Idih>
0.000

> <Tether>
0.000

$$$$
VeraChem MOL file


 25 25  0  0  0  0  0  0  0  0999 V2000     
   19.3598   20.5503   23.8823 C   0  0  0  0  0  0  0  0  0  0  0  0
   19.4693   20.4895   24.9736 H   0  0  0  0  0  0  0  0  0  0  0  0
   18.7096   21.4163   23.6977 H   0  0  0  0  0  0  0  0  0  0  0  0
   18.6154   19.2858   23.3809 C   0  0  0  0  0  0  0  0  0  0  0  0
   18.9730   18.3932   23.9065 H   0  0  0  0  0  0  0  0  0  0  0  0
   17.5667   19.3844   23.6931 H   0  0  0  0  0  0  0  0  0  0  0  0
   18.6426   19.0623   21.8467 C   0  0  0  0  0  0  0  0  0  0  0  0
   18.7844   20.0102   21.3117 H   0  0  0  0  0  0  0  0  0  0  0  0
   17.6461   18.7104   21.5466 H   0  0  0  0  0  0  0  0  0  0  0  0
   19.6639   17.9978   21.3621 C   0  0  0  0  0  0  0  0  0  0  0  0
   19.4707   17.0503   21.8818 H   0  0  0  0  0  0  0  0  0  0  0  0
   19.4568   17.8034   20.3012 H   0  0  0  0  0  0  0  0  0  0  0  0
   21.1652   18.3595   21.4897 C   0  0  0  0  0  0  0  0  0  0  0  0
   21.3487   19.3226   20.9951 H   0  0  0  0  0  0  0  0  0  0  0  0
   21.6856   18.4141   22.9494 C   0  0  0  0  0  0  0  0  0  0  0  0
   21.0406   17.8199   23.6048 H   0  0  0  0  0  0  0  0  0  0  0  0
   22.6654   17.9203   23.0031 H   0  0  0  0  0  0  0  0  0  0  0  0
   21.8674   19.8413   23.5286 C   0  0  0  0  0  0  0  0  0  0  0  0
   22.7978   20.2553   23.1162 H   0  0  0  0  0  0  0  0  0  0  0  0
   22.0289   19.7684   24.6126 H   0  0  0  0  0  0  0  0  0  0  0  0
   20.7376   20.8632   23.2467 C   0  0  0  0  0  0  0  0  0  0  0  0
   20.6311   21.0312   22.1689 H   0  0  0  0  0  0  0  0  0  0  0  0
   21.0679   21.8320   23.6457 H   0  0  0  0  0  0  0  0  0  0  0  0
   21.9005   17.3615   20.7929 O   0  0  0  0  0  0  0  0  0  0  0  0
   21.7177   16.5144   21.2488 H   0  0  0  0  0  0  0  0  0  0  0  0
  1  2  1  0  0  0  0
  1  3  1  0  0  0  0
  1  4  1  0  0  0  0
  4  5  1  0  0  0  0
  4  6  1  0  0  0  0
  4  7  1  0  0  0  0
  7  8  1  0  0  0  0
  7  9  1  0  0  0  0
  7 10  1  0  0  0  0
 10 11  1  0  0  0  0
 10 12  1  0  0  0  0
 10 13  1  0  0  0  0
 13 14  1  0  0  0  0
 13 15  1  0  0  0  0
 15 16  1  0  0  0  0
 15 17  1  0  0  0  0
 15 18  1  0  0  0  0
 18 19  1  0  0  0  0
 18 20  1  0  0  0  0
  1 21  1  0  0  0  0
 18 21  1  0  0  0  0
 21 22  1  0  0  0  0
 21 23  1  0  0  0  0
 13 24  1  0  0  0  0
 24 25  1  0  0  0  0
M  END
> <VConfSearch Rank>
392

> <Conf_Id>
68

> <Delta U+W>
-1.765

> <U+W>
9.148

> <U>
11.181

> <W>
-2.032

> <W(PB)>
-4.147

> <W(SA)>
2.114

> <Valence>
16.955

> <Coulomb>
-8.661

> <VdW>
2.887

> <VdW6>
-12.561

> <VdW12>
15.448

> <Bond>
0.433

> <Angle>
5.121

> <Pdih>
11.402

> <Idih>
0.000

> <Tether>
0.000

$$$$
VeraChem MOL file


 25 25  0  0  0  0  0  0  0  0999 V2000     
   21.3555   17.8206   22.0560 C   0  0  0  0  0  0  0  0  0  0  0  0
   21.9539   16.9422   21.7776 H   0  0  0  0  0  0  0  0  0  0  0  0
   21.9201   18.6709   21.6571 H   0  0  0  0  0  0  0  0  0  0  0  0
   21.2904   17.8872   23.6041 C   0  0  0  0  0  0  0  0  0  0  0  0
   20.3798   17.4056   23.9829 H   0  0  0  0  0  0  0  0  0  0  0  0
   22.1183   17.2804   23.9956 H   0  0  0  0  0  0  0  0  0  0  0  0
   21.4502   19.3097   24.2019 C   0  0  0  0  0  0  0  0  0  0  0  0
   22.3913   19.7510   23.8458 H   0  0  0  0  0  0  0  0  0  0  0  0
   21.5679   19.2035   25.2889 H   0  0  0  0  0  0  0  0  0  0  0  0
   20.2882   20.3067   23.9481 C   0  0  0  0  0  0  0  0  0  0  0  0
   19.3438   19.8957   24.3246 H   0  0  0  0  0  0  0  0  0  0  0  0
   20.4873   21.1892   24.5711 H   0  0  0  0  0  0  0  0  0  0  0  0
   20.1446   20.7647   22.4735 C   0  0  0  0  0  0  0  0  0  0  0  0
   21.0885   20.5790   21.9481 H   0  0  0  0  0  0  0  0  0  0  0  0
   18.9885   20.0905   21.6944 C   0  0  0  0  0  0  0  0  0  0  0  0
   18.0433   20.5587   21.9992 H   0  0  0  0  0  0  0  0  0  0  0  0
   19.1083   20.3219   20.6280 H   0  0  0  0  0  0  0  0  0  0  0  0
   18.8208   18.5582   21.8618 C   0  0  0  0  0  0  0  0  0  0  0  0
   17.9187   18.2656   21.3075 H   0  0  0  0  0  0  0  0  0  0  0  0
   18.5970   18.3087   22.9054 H   0  0  0  0  0  0  0  0  0  0  0  0
   19.9878   17.6843   21.3378 C   0  0  0  0  0  0  0  0  0  0  0  0
   20.1285   17.8713   20.2646 H   0  0  0  0  0  0  0  0  0  0  0  0
   19.6720   16.6349   21.4164 H   0  0  0  0  0  0  0  0  0  0  0  0
   19.9110   22.1675   22.4557 O   0  0  0  0  0  0  0  0  0  0  0  0
   19.0750   22.3153   22.9437 H   0  0  0  0  0  0  0  0  0  0  0  0
  1  2  1  0  0  0  0
  1  3  1  0  0  0  0
  1  4  1  0  0  0  0
  4  5  1  0  0  0  0
  4  6  1  0  0  0  0
  4  7  1  0  0  0  0
  7  8  1  0  0  0  0
  7  9  1  0  0  0  0
  7 10  1  0  0  0  0
 10 11  1  0  0  0  0
 10 12  1  0  0  0  0
 10 13  1  0  0  0  0
 13 14  1  0  0  0  0
 13 15  1  0  0  0  0
 15 16  1  0  0  0  0
 15 17  1  0  0  0  0
 15 18  1  0  0  0  0
 18 19  1  0  0  0  0
 18 20  1  0  0  0  0
  1 21  1  0  0  0  0
 18 21  1  0  0  0  0
 21 22  1  0  0  0  0
 21 23  1  0  0  0  0
 13 24  1  0  0  0  0
 24 25  1  0  0  0  0
M  END
> <VConfSearch Rank>
393

> <Conf_Id>
165

> <Delta U+W>
-1.999

> <U+W>
8.915

> <U>
10.935

> <W>
-2.020

> <W(PB)>
-4.135

> <W(SA)>
2.115

> <Valence>
16.757

> <Coulomb>
-8.731

> <VdW>
2.908

> <VdW6>
-12.597

> <VdW12>
15.506

> <Bond>
0.434

> <Angle>
5.069

> <Pdih>
11.254

> <Idih>
0.000

> <Tether>
0.000

$$$$
VeraChem MOL file


 25 25  0  0  0  0  0  0  0  0999 V2000     
   22.0935   18.7550   22.7014 C   0  0  0  0  0  0  0  0  0  0  0  0
   23.1784   18.5879   22.7490 H   0  0  0  0  0  0  0  0  0  0  0  0
   21.6701   17.7522   22.5758 H   0  0  0  0  0  0  0  0  0  0  0  0
   21.8234   19.6266   21.4473 C   0  0  0  0  0  0  0  0  0  0  0  0
   22.6014   20.4011   21.4049 H   0  0  0  0  0  0  0  0  0  0  0  0
   21.9682   19.0125   20.5482 H   0  0  0  0  0  0  0  0  0  0  0  0
   20.4529   20.3442   21.3631 C   0  0  0  0  0  0  0  0  0  0  0  0
   20.4731   20.9851   20.4712 H   0  0  0  0  0  0  0  0  0  0  0  0
   20.3356   21.0409   22.2011 H   0  0  0  0  0  0  0  0  0  0  0  0
   19.2092   19.4261   21.2436 C   0  0  0  0  0  0  0  0  0  0  0  0
   18.3365   20.0740   21.0845 H   0  0  0  0  0  0  0  0  0  0  0  0
   19.3039   18.8174   20.3351 H   0  0  0  0  0  0  0  0  0  0  0  0
   18.9046   18.4894   22.4383 C   0  0  0  0  0  0  0  0  0  0  0  0
   19.5798   17.6265   22.4027 H   0  0  0  0  0  0  0  0  0  0  0  0
   19.0188   19.1607   23.8314 C   0  0  0  0  0  0  0  0  0  0  0  0
   18.9034   20.2481   23.7513 H   0  0  0  0  0  0  0  0  0  0  0  0
   18.1720   18.8283   24.4470 H   0  0  0  0  0  0  0  0  0  0  0  0
   20.3119   18.8073   24.6136 C   0  0  0  0  0  0  0  0  0  0  0  0
   20.3911   17.7157   24.7093 H   0  0  0  0  0  0  0  0  0  0  0  0
   20.1958   19.1849   25.6387 H   0  0  0  0  0  0  0  0  0  0  0  0
   21.6426   19.3724   24.0508 C   0  0  0  0  0  0  0  0  0  0  0  0
   22.4230   19.1518   24.7920 H   0  0  0  0  0  0  0  0  0  0  0  0
   21.6064   20.4678   23.9922 H   0  0  0  0  0  0  0  0  0  0  0  0
   17.5745   18.0100   22.2754 O   0  0  0  0  0  0  0  0  0  0  0  0
   17.5434   17.5528   21.4091 H   0  0  0  0  0  0  0  0  0  0  0  0
  1  2  1  0  0  0  0
  1  3  1  0  0  0  0
  1  4  1  0  0  0  0
  4  5  1  0  0  0  0
  4  6  1  0  0  0  0
  4  7  1  0  0  0  0
  7  8  1  0  0  0  0
  7  9  1  0  0  0  0
  7 10  1  0  0  0  0
 10 11  1  0  0  0  0
 10 12  1  0  0  0  0
 10 13  1  0  0  0  0
 13 14  1  0  0  0  0
 13 15  1  0  0  0  0
 15 16  1  0  0  0  0
 15 17  1  0  0  0  0
 15 18  1  0  0  0  0
 18 19  1  0  0  0  0
 18 20  1  0  0  0  0
  1 21  1  0  0  0  0
 18 21  1  0  0  0  0
 21 22  1  0  0  0  0
 21 23  1  0  0  0  0
 13 24  1  0  0  0  0
 24 25  1  0  0  0  0
M  END
> <VConfSearch Rank>
394

> <Conf_Id>
133

> <Delta U+W>
-2.139

> <U+W>
8.774

> <U>
10.905

> <W>
-2.131

> <W(PB)>
-4.281

> <W(SA)>
2.150

> <Valence>
16.378

> <Coulomb>
-8.448

> <VdW>
2.976

> <VdW6>
-12.570

> <VdW12>
15.545

> <Bond>
0.439

> <Angle>
5.049

> <Pdih>
10.889

> <Idih>
0.000

> <Tether>
0.000

$$$$
VeraChem MOL file


 25 25  0  0  0  0  0  0  0  0999 V2000     
   19.2319   17.7400   22.7709 C   0  0  0  0  0  0  0  0  0  0  0  0
   18.6672   16.7980   22.8013 H   0  0  0  0  0  0  0  0  0  0  0  0
   18.4993   18.5044   23.0534 H   0  0  0  0  0  0  0  0  0  0  0  0
   19.7181   17.9623   21.3150 C   0  0  0  0  0  0  0  0  0  0  0  0
   20.7393   17.5846   21.1769 H   0  0  0  0  0  0  0  0  0  0  0  0
   19.0927   17.3406   20.6596 H   0  0  0  0  0  0  0  0  0  0  0  0
   19.5975   19.4219   20.8034 C   0  0  0  0  0  0  0  0  0  0  0  0
   18.5570   19.7593   20.9062 H   0  0  0  0  0  0  0  0  0  0  0  0
   19.7993   19.4150   19.7236 H   0  0  0  0  0  0  0  0  0  0  0  0
   20.5421   20.4681   21.4532 C   0  0  0  0  0  0  0  0  0  0  0  0
   21.5894   20.1663   21.3341 H   0  0  0  0  0  0  0  0  0  0  0  0
   20.4435   21.3935   20.8696 H   0  0  0  0  0  0  0  0  0  0  0  0
   20.2251   20.7888   22.9367 C   0  0  0  0  0  0  0  0  0  0  0  0
   19.1946   20.4846   23.1543 H   0  0  0  0  0  0  0  0  0  0  0  0
   21.1804   20.1250   23.9588 C   0  0  0  0  0  0  0  0  0  0  0  0
   22.1238   20.6875   23.9620 H   0  0  0  0  0  0  0  0  0  0  0  0
   20.7552   20.2412   24.9640 H   0  0  0  0  0  0  0  0  0  0  0  0
   21.5314   18.6317   23.7331 C   0  0  0  0  0  0  0  0  0  0  0  0
   22.2684   18.3500   24.4974 H   0  0  0  0  0  0  0  0  0  0  0  0
   22.0578   18.5016   22.7806 H   0  0  0  0  0  0  0  0  0  0  0  0
   20.3525   17.6318   23.8377 C   0  0  0  0  0  0  0  0  0  0  0  0
   19.9019   17.7039   24.8369 H   0  0  0  0  0  0  0  0  0  0  0  0
   20.7755   16.6197   23.7763 H   0  0  0  0  0  0  0  0  0  0  0  0
   20.3133   22.1969   23.1235 O   0  0  0  0  0  0  0  0  0  0  0  0
   20.0651   22.3742   24.0549 H   0  0  0  0  0  0  0  0  0  0  0  0
  1  2  1  0  0  0  0
  1  3  1  0  0  0  0
  1  4  1  0  0  0  0
  4  5  1  0  0  0  0
  4  6  1  0  0  0  0
  4  7  1  0  0  0  0
  7  8  1  0  0  0  0
  7  9  1  0  0  0  0
  7 10  1  0  0  0  0
 10 11  1  0  0  0  0
 10 12  1  0  0  0  0
 10 13  1  0  0  0  0
 13 14  1  0  0  0  0
 13 15  1  0  0  0  0
 15 16  1  0  0  0  0
 15 17  1  0  0  0  0
 15 18  1  0  0  0  0
 18 19  1  0  0  0  0
 18 20  1  0  0  0  0
  1 21  1  0  0  0  0
 18 21  1  0  0  0  0
 21 22  1  0  0  0  0
 21 23  1  0  0  0  0
 13 24  1  0  0  0  0
 24 25  1  0  0  0  0
M  END
> <VConfSearch Rank>
395

> <Conf_Id>
95

> <Delta U+W>
-2.190

> <U+W>
8.723

> <U>
10.905

> <W>
-2.182

> <W(PB)>
-4.296

> <W(SA)>
2.114

> <Valence>
16.377

> <Coulomb>
-8.448

> <VdW>
2.976

> <VdW6>
-12.570

> <VdW12>
15.546

> <Bond>
0.439

> <Angle>
5.049

> <Pdih>
10.889

> <Idih>
0.000

> <Tether>
0.000

$$$$
VeraChem MOL file


 25 25  0  0  0  0  0  0  0  0999 V2000     
   21.8912   18.3048   22.8247 C   0  0  0  0  0  0  0  0  0  0  0  0
   22.8953   17.8843   22.9719 H   0  0  0  0  0  0  0  0  0  0  0  0
   21.4442   17.6397   22.0791 H   0  0  0  0  0  0  0  0  0  0  0  0
   22.0783   19.7399   22.2505 C   0  0  0  0  0  0  0  0  0  0  0  0
   22.9831   20.1612   22.7096 H   0  0  0  0  0  0  0  0  0  0  0  0
   22.3019   19.6681   21.1775 H   0  0  0  0  0  0  0  0  0  0  0  0
   20.9402   20.7712   22.4687 C   0  0  0  0  0  0  0  0  0  0  0  0
   21.2987   21.7439   22.1052 H   0  0  0  0  0  0  0  0  0  0  0  0
   20.8014   20.9346   23.5420 H   0  0  0  0  0  0  0  0  0  0  0  0
   19.5764   20.4939   21.7688 C   0  0  0  0  0  0  0  0  0  0  0  0
   18.7916   21.0647   22.2823 H   0  0  0  0  0  0  0  0  0  0  0  0
   19.6412   20.9202   20.7592 H   0  0  0  0  0  0  0  0  0  0  0  0
   19.1154   19.0222   21.6173 C   0  0  0  0  0  0  0  0  0  0  0  0
   19.8887   18.4797   21.0636 H   0  0  0  0  0  0  0  0  0  0  0  0
   18.7751   18.2519   22.9255 C   0  0  0  0  0  0  0  0  0  0  0  0
   17.7280   18.4640   23.1800 H   0  0  0  0  0  0  0  0  0  0  0  0
   18.8146   17.1762   22.7120 H   0  0  0  0  0  0  0  0  0  0  0  0
   19.6161   18.5445   24.1976 C   0  0  0  0  0  0  0  0  0  0  0  0
   19.1604   17.9923   25.0307 H   0  0  0  0  0  0  0  0  0  0  0  0
   19.4856   19.5928   24.4841 H   0  0  0  0  0  0  0  0  0  0  0  0
   21.1249   18.1625   24.1663 C   0  0  0  0  0  0  0  0  0  0  0  0
   21.2037   17.1096   24.4697 H   0  0  0  0  0  0  0  0  0  0  0  0
   21.6513   18.7310   24.9449 H   0  0  0  0  0  0  0  0  0  0  0  0
   17.9427   19.0250   20.8113 O   0  0  0  0  0  0  0  0  0  0  0  0
   18.1830   19.4537   19.9637 H   0  0  0  0  0  0  0  0  0  0  0  0
  1  2  1  0  0  0  0
  1  3  1  0  0  0  0
  1  4  1  0  0  0  0
  4  5  1  0  0  0  0
  4  6  1  0  0  0  0
  4  7  1  0  0  0  0
  7  8  1  0  0  0  0
  7  9  1  0  0  0  0
  7 10  1  0  0  0  0
 10 11  1  0  0  0  0
 10 12  1  0  0  0  0
 10 13  1  0  0  0  0
 13 14  1  0  0  0  0
 13 15  1  0  0  0  0
 15 16  1  0  0  0  0
 15 17  1  0  0  0  0
 15 18  1  0  0  0  0
 18 19  1  0  0  0  0
 18 20  1  0  0  0  0
  1 21  1  0  0  0  0
 18 21  1  0  0  0  0
 21 22  1  0  0  0  0
 21 23  1  0  0  0  0
 13 24  1  0  0  0  0
 24 25  1  0  0  0  0
M  END
> <VConfSearch Rank>
396

> <Conf_Id>
161

> <Delta U+W>
2.120

> <U+W>
13.033

> <U>
15.076

> <W>
-2.043

> <W(PB)>
-4.186

> <W(SA)>
2.143

> <Valence>
18.884

> <Coulomb>
-8.074

> <VdW>
4.266

> <VdW6>
-13.486

> <VdW12>
17.752

> <Bond>
0.713

> <Angle>
8.955

> <Pdih>
9.215

> <Idih>
0.000

> <Tether>
0.000

$$$$
VeraChem MOL file


 25 25  0  0  0  0  0  0  0  0999 V2000     
   21.1296   17.4877   22.0824 C   0  0  0  0  0  0  0  0  0  0  0  0
   21.8107   16.6684   21.8144 H   0  0  0  0  0  0  0  0  0  0  0  0
   20.1394   17.1463   21.7547 H   0  0  0  0  0  0  0  0  0  0  0  0
   21.5496   18.7421   21.2765 C   0  0  0  0  0  0  0  0  0  0  0  0
   22.3330   19.3015   21.8053 H   0  0  0  0  0  0  0  0  0  0  0  0
   22.0231   18.3828   20.3524 H   0  0  0  0  0  0  0  0  0  0  0  0
   20.3826   19.6756   20.8500 C   0  0  0  0  0  0  0  0  0  0  0  0
   19.4897   19.0959   20.5799 H   0  0  0  0  0  0  0  0  0  0  0  0
   20.6972   20.1730   19.9222 H   0  0  0  0  0  0  0  0  0  0  0  0
   20.0270   20.7961   21.8612 C   0  0  0  0  0  0  0  0  0  0  0  0
   20.9356   21.1403   22.3700 H   0  0  0  0  0  0  0  0  0  0  0  0
   19.6780   21.6647   21.2873 H   0  0  0  0  0  0  0  0  0  0  0  0
   18.9101   20.4668   22.8839 C   0  0  0  0  0  0  0  0  0  0  0  0
   17.9564   20.4203   22.3387 H   0  0  0  0  0  0  0  0  0  0  0  0
   19.0616   19.1413   23.6655 C   0  0  0  0  0  0  0  0  0  0  0  0
   18.3454   19.1488   24.4980 H   0  0  0  0  0  0  0  0  0  0  0  0
   18.7313   18.3132   23.0292 H   0  0  0  0  0  0  0  0  0  0  0  0
   20.4826   18.8737   24.2300 C   0  0  0  0  0  0  0  0  0  0  0  0
   20.4101   18.7328   25.3170 H   0  0  0  0  0  0  0  0  0  0  0  0
   21.1319   19.7472   24.1019 H   0  0  0  0  0  0  0  0  0  0  0  0
   21.1757   17.6284   23.6270 C   0  0  0  0  0  0  0  0  0  0  0  0
   20.7262   16.7273   24.0660 H   0  0  0  0  0  0  0  0  0  0  0  0
   22.2250   17.6276   23.9523 H   0  0  0  0  0  0  0  0  0  0  0  0
   18.8485   21.5306   23.8234 O   0  0  0  0  0  0  0  0  0  0  0  0
   19.6524   21.4475   24.3753 H   0  0  0  0  0  0  0  0  0  0  0  0
  1  2  1  0  0  0  0
  1  3  1  0  0  0  0
  1  4  1  0  0  0  0
  4  5  1  0  0  0  0
  4  6  1  0  0  0  0
  4  7  1  0  0  0  0
  7  8  1  0  0  0  0
  7  9  1  0  0  0  0
  7 10  1  0  0  0  0
 10 11  1  0  0  0  0
 10 12  1  0  0  0  0
 10 13  1  0  0  0  0
 13 14  1  0  0  0  0
 13 15  1  0  0  0  0
 15 16  1  0  0  0  0
 15 17  1  0  0  0  0
 15 18  1  0  0  0  0
 18 19  1  0  0  0  0
 18 20  1  0  0  0  0
  1 21  1  0  0  0  0
 18 21  1  0  0  0  0
 21 22  1  0  0  0  0
 21 23  1  0  0  0  0
 13 24  1  0  0  0  0
 24 25  1  0  0  0  0
M  END
> <VConfSearch Rank>
397

> <Conf_Id>
164

> <Delta U+W>
0.008

> <U+W>
10.922

> <U>
12.433

> <W>
-1.511

> <W(PB)>
-3.669

> <W(SA)>
2.157

> <Valence>
19.007

> <Coulomb>
-9.373

> <VdW>
2.799

> <VdW6>
-12.597

> <VdW12>
15.396

> <Bond>
0.425

> <Angle>
4.784

> <Pdih>
13.799

> <Idih>
0.000

> <Tether>
0.000

$$$$
VeraChem MOL file


 25 25  0  0  0  0  0  0  0  0999 V2000     
   20.1615   18.7792   24.3970 C   0  0  0  0  0  0  0  0  0  0  0  0
   21.2343   18.9277   24.2299 H   0  0  0  0  0  0  0  0  0  0  0  0
   20.0811   18.5188   25.4612 H   0  0  0  0  0  0  0  0  0  0  0  0
   19.6515   17.5617   23.5862 C   0  0  0  0  0  0  0  0  0  0  0  0
   20.2128   16.6811   23.9272 H   0  0  0  0  0  0  0  0  0  0  0  0
   18.6030   17.3650   23.8478 H   0  0  0  0  0  0  0  0  0  0  0  0
   19.7793   17.6366   22.0432 C   0  0  0  0  0  0  0  0  0  0  0  0
   18.9371   18.1908   21.6135 H   0  0  0  0  0  0  0  0  0  0  0  0
   19.6603   16.6144   21.6584 H   0  0  0  0  0  0  0  0  0  0  0  0
   21.1265   18.1989   21.5163 C   0  0  0  0  0  0  0  0  0  0  0  0
   21.9255   18.0603   22.2547 H   0  0  0  0  0  0  0  0  0  0  0  0
   21.4200   17.5869   20.6528 H   0  0  0  0  0  0  0  0  0  0  0  0
   21.0740   19.6694   21.0313 C   0  0  0  0  0  0  0  0  0  0  0  0
   20.2583   19.7599   20.2998 H   0  0  0  0  0  0  0  0  0  0  0  0
   20.8673   20.7512   22.1211 C   0  0  0  0  0  0  0  0  0  0  0  0
   21.6577   20.6965   22.8794 H   0  0  0  0  0  0  0  0  0  0  0  0
   20.9995   21.7265   21.6337 H   0  0  0  0  0  0  0  0  0  0  0  0
   19.4628   20.7526   22.7816 C   0  0  0  0  0  0  0  0  0  0  0  0
   18.7231   20.2980   22.1129 H   0  0  0  0  0  0  0  0  0  0  0  0
   19.1340   21.7957   22.8862 H   0  0  0  0  0  0  0  0  0  0  0  0
   19.3929   20.1080   24.1895 C   0  0  0  0  0  0  0  0  0  0  0  0
   18.3390   19.9643   24.4638 H   0  0  0  0  0  0  0  0  0  0  0  0
   19.7910   20.8343   24.9113 H   0  0  0  0  0  0  0  0  0  0  0  0
   22.3018   19.9501   20.3733 O   0  0  0  0  0  0  0  0  0  0  0  0
   23.0043   19.8610   21.0496 H   0  0  0  0  0  0  0  0  0  0  0  0
  1  2  1  0  0  0  0
  1  3  1  0  0  0  0
  1  4  1  0  0  0  0
  4  5  1  0  0  0  0
  4  6  1  0  0  0  0
  4  7  1  0  0  0  0
  7  8  1  0  0  0  0
  7  9  1  0  0  0  0
  7 10  1  0  0  0  0
 10 11  1  0  0  0  0
 10 12  1  0  0  0  0
 10 13  1  0  0  0  0
 13 14  1  0  0  0  0
 13 15  1  0  0  0  0
 15 16  1  0  0  0  0
 15 17  1  0  0  0  0
 15 18  1  0  0  0  0
 18 19  1  0  0  0  0
 18 20  1  0  0  0  0
  1 21  1  0  0  0  0
 18 21  1  0  0  0  0
 21 22  1  0  0  0  0
 21 23  1  0  0  0  0
 13 24  1  0  0  0  0
 24 25  1  0  0  0  0
M  END
> <VConfSearch Rank>
398

> <Conf_Id>
15

> <Delta U+W>
-1.271

> <U+W>
9.643

> <U>
11.413

> <W>
-1.770

> <W(PB)>
-3.908

> <W(SA)>
2.138

> <Valence>
17.496

> <Coulomb>
-8.736

> <VdW>
2.653

> <VdW6>
-12.485

> <VdW12>
15.138

> <Bond>
0.414

> <Angle>
5.295

> <Pdih>
11.787

> <Idih>
0.000

> <Tether>
0.000

$$$$
VeraChem MOL file


 25 25  0  0  0  0  0  0  0  0999 V2000     
   19.8296   18.2386   21.0783 C   0  0  0  0  0  0  0  0  0  0  0  0
   19.3506   17.6867   20.2580 H   0  0  0  0  0  0  0  0  0  0  0  0
   20.8539   17.8468   21.1183 H   0  0  0  0  0  0  0  0  0  0  0  0
   19.8323   19.7368   20.6754 C   0  0  0  0  0  0  0  0  0  0  0  0
   20.4992   19.8559   19.8106 H   0  0  0  0  0  0  0  0  0  0  0  0
   18.8299   20.0108   20.3194 H   0  0  0  0  0  0  0  0  0  0  0  0
   20.2525   20.7488   21.7684 C   0  0  0  0  0  0  0  0  0  0  0  0
   19.4141   20.9168   22.4545 H   0  0  0  0  0  0  0  0  0  0  0  0
   20.4193   21.7216   21.2861 H   0  0  0  0  0  0  0  0  0  0  0  0
   21.5359   20.3497   22.5424 C   0  0  0  0  0  0  0  0  0  0  0  0
   22.0233   19.4878   22.0735 H   0  0  0  0  0  0  0  0  0  0  0  0
   22.2628   21.1675   22.4539 H   0  0  0  0  0  0  0  0  0  0  0  0
   21.3182   20.0808   24.0493 C   0  0  0  0  0  0  0  0  0  0  0  0
   21.1657   21.0521   24.5415 H   0  0  0  0  0  0  0  0  0  0  0  0
   20.1107   19.1840   24.4260 C   0  0  0  0  0  0  0  0  0  0  0  0
   20.2015   18.9575   25.4969 H   0  0  0  0  0  0  0  0  0  0  0  0
   19.1788   19.7565   24.3459 H   0  0  0  0  0  0  0  0  0  0  0  0
   19.9672   17.8403   23.6624 C   0  0  0  0  0  0  0  0  0  0  0  0
   19.4870   17.1337   24.3533 H   0  0  0  0  0  0  0  0  0  0  0  0
   20.9492   17.4036   23.4397 H   0  0  0  0  0  0  0  0  0  0  0  0
   19.0794   17.8937   22.3886 C   0  0  0  0  0  0  0  0  0  0  0  0
   18.2179   18.5595   22.5321 H   0  0  0  0  0  0  0  0  0  0  0  0
   18.6520   16.8902   22.2564 H   0  0  0  0  0  0  0  0  0  0  0  0
   22.4997   19.4872   24.5691 O   0  0  0  0  0  0  0  0  0  0  0  0
   22.5439   18.5917   24.1775 H   0  0  0  0  0  0  0  0  0  0  0  0
  1  2  1  0  0  0  0
  1  3  1  0  0  0  0
  1  4  1  0  0  0  0
  4  5  1  0  0  0  0
  4  6  1  0  0  0  0
  4  7  1  0  0  0  0
  7  8  1  0  0  0  0
  7  9  1  0  0  0  0
  7 10  1  0  0  0  0
 10 11  1  0  0  0  0
 10 12  1  0  0  0  0
 10 13  1  0  0  0  0
 13 14  1  0  0  0  0
 13 15  1  0  0  0  0
 15 16  1  0  0  0  0
 15 17  1  0  0  0  0
 15 18  1  0  0  0  0
 18 19  1  0  0  0  0
 18 20  1  0  0  0  0
  1 21  1  0  0  0  0
 18 21  1  0  0  0  0
 21 22  1  0  0  0  0
 21 23  1  0  0  0  0
 13 24  1  0  0  0  0
 24 25  1  0  0  0  0
M  END
> <VConfSearch Rank>
399

> <Conf_Id>
115

> <Delta U+W>
0.038

> <U+W>
10.952

> <U>
12.526

> <W>
-1.575

> <W(PB)>
-3.698

> <W(SA)>
2.123

> <Valence>
19.016

> <Coulomb>
-9.226

> <VdW>
2.737

> <VdW6>
-12.612

> <VdW12>
15.349

> <Bond>
0.421

> <Angle>
4.883

> <Pdih>
13.711

> <Idih>
0.000

> <Tether>
0.000

$$$$
VeraChem MOL file


 25 25  0  0  0  0  0  0  0  0999 V2000     
   18.5494   19.8778   21.6515 C   0  0  0  0  0  0  0  0  0  0  0  0
   17.6824   20.5356   21.5012 H   0  0  0  0  0  0  0  0  0  0  0  0
   18.6157   19.2661   20.7417 H   0  0  0  0  0  0  0  0  0  0  0  0
   18.2409   18.9811   22.8731 C   0  0  0  0  0  0  0  0  0  0  0  0
   18.0538   19.6024   23.7594 H   0  0  0  0  0  0  0  0  0  0  0  0
   17.2931   18.4641   22.6699 H   0  0  0  0  0  0  0  0  0  0  0  0
   19.3097   17.9091   23.1883 C   0  0  0  0  0  0  0  0  0  0  0  0
   19.6694   17.4448   22.2604 H   0  0  0  0  0  0  0  0  0  0  0  0
   18.8120   17.1023   23.7437 H   0  0  0  0  0  0  0  0  0  0  0  0
   20.4874   18.4185   24.0619 C   0  0  0  0  0  0  0  0  0  0  0  0
   20.2572   19.3917   24.5134 H   0  0  0  0  0  0  0  0  0  0  0  0
   20.5941   17.7230   24.9054 H   0  0  0  0  0  0  0  0  0  0  0  0
   21.8455   18.4851   23.3276 C   0  0  0  0  0  0  0  0  0  0  0  0
   21.9118   17.6421   22.6250 H   0  0  0  0  0  0  0  0  0  0  0  0
   22.0982   19.8007   22.5584 C   0  0  0  0  0  0  0  0  0  0  0  0
   22.0969   20.6486   23.2560 H   0  0  0  0  0  0  0  0  0  0  0  0
   23.1152   19.7537   22.1474 H   0  0  0  0  0  0  0  0  0  0  0  0
   21.1317   20.0780   21.3813 C   0  0  0  0  0  0  0  0  0  0  0  0
   20.9449   19.1563   20.8142 H   0  0  0  0  0  0  0  0  0  0  0  0
   21.6512   20.7486   20.6830 H   0  0  0  0  0  0  0  0  0  0  0  0
   19.8049   20.7709   21.7883 C   0  0  0  0  0  0  0  0  0  0  0  0
   19.6666   21.6327   21.1210 H   0  0  0  0  0  0  0  0  0  0  0  0
   19.8658   21.1941   22.7997 H   0  0  0  0  0  0  0  0  0  0  0  0
   22.8774   18.3525   24.2978 O   0  0  0  0  0  0  0  0  0  0  0  0
   23.7265   18.3428   23.8087 H   0  0  0  0  0  0  0  0  0  0  0  0
  1  2  1  0  0  0  0
  1  3  1  0  0  0  0
  1  4  1  0  0  0  0
  4  5  1  0  0  0  0
  4  6  1  0  0  0  0
  4  7  1  0  0  0  0
  7  8  1  0  0  0  0
  7  9  1  0  0  0  0
  7 10  1  0  0  0  0
 10 11  1  0  0  0  0
 10 12  1  0  0  0  0
 10 13  1  0  0  0  0
 13 14  1  0  0  0  0
 13 15  1  0  0  0  0
 15 16  1  0  0  0  0
 15 17  1  0  0  0  0
 15 18  1  0  0  0  0
 18 19  1  0  0  0  0
 18 20  1  0  0  0  0
  1 21  1  0  0  0  0
 18 21  1  0  0  0  0
 21 22  1  0  0  0  0
 21 23  1  0  0  0  0
 13 24  1  0  0  0  0
 24 25  1  0  0  0  0
M  END
> <VConfSearch Rank>
400

> <Conf_Id>
30

> <Delta U+W>
0.000

> <U+W>
10.913

> <U>
13.140

> <W>
-2.227

> <W(PB)>
-4.367

> <W(SA)>
2.140

> <Valence>
19.155

> <Coulomb>
-8.157

> <VdW>
2.142

> <VdW6>
-11.576

> <VdW12>
13.718

> <Bond>
0.294

> <Angle>
3.547

> <Pdih>
15.314

> <Idih>
0.000

> <Tether>
0.000

$$$$
VeraChem MOL file


 25 25  0  0  0  0  0  0  0  0999 V2000     
   20.7855   21.2308   22.0270 C   0  0  0  0  0  0  0  0  0  0  0  0
   20.3948   21.8849   21.2356 H   0  0  0  0  0  0  0  0  0  0  0  0
   21.6178   21.7829   22.4844 H   0  0  0  0  0  0  0  0  0  0  0  0
   21.3566   19.9507   21.3687 C   0  0  0  0  0  0  0  0  0  0  0  0
   21.9370   20.2540   20.4867 H   0  0  0  0  0  0  0  0  0  0  0  0
   22.0915   19.4889   22.0381 H   0  0  0  0  0  0  0  0  0  0  0  0
   20.2830   18.9247   20.9254 C   0  0  0  0  0  0  0  0  0  0  0  0
   20.4177   18.7128   19.8560 H   0  0  0  0  0  0  0  0  0  0  0  0
   19.2760   19.3511   21.0013 H   0  0  0  0  0  0  0  0  0  0  0  0
   20.3397   17.5792   21.6923 C   0  0  0  0  0  0  0  0  0  0  0  0
   19.4384   17.0020   21.4467 H   0  0  0  0  0  0  0  0  0  0  0  0
   21.1857   16.9953   21.3072 H   0  0  0  0  0  0  0  0  0  0  0  0
   20.4854   17.6574   23.2328 C   0  0  0  0  0  0  0  0  0  0  0  0
   21.4984   17.9993   23.4832 H   0  0  0  0  0  0  0  0  0  0  0  0
   19.4628   18.5770   23.9441 C   0  0  0  0  0  0  0  0  0  0  0  0
   18.5122   18.5864   23.3956 H   0  0  0  0  0  0  0  0  0  0  0  0
   19.2291   18.1354   24.9220 H   0  0  0  0  0  0  0  0  0  0  0  0
   19.9608   20.0249   24.2150 C   0  0  0  0  0  0  0  0  0  0  0  0
   21.0264   20.0358   24.4813 H   0  0  0  0  0  0  0  0  0  0  0  0
   19.4332   20.3812   25.1105 H   0  0  0  0  0  0  0  0  0  0  0  0
   19.6662   21.0428   23.0854 C   0  0  0  0  0  0  0  0  0  0  0  0
   19.4987   22.0238   23.5509 H   0  0  0  0  0  0  0  0  0  0  0  0
   18.7128   20.7983   22.6000 H   0  0  0  0  0  0  0  0  0  0  0  0
   20.3282   16.3363   23.7370 O   0  0  0  0  0  0  0  0  0  0  0  0
   20.5006   16.3795   24.7007 H   0  0  0  0  0  0  0  0  0  0  0  0
  1  2  1  0  0  0  0
  1  3  1  0  0  0  0
  1  4  1  0  0  0  0
  4  5  1  0  0  0  0
  4  6  1  0  0  0  0
  4  7  1  0  0  0  0
  7  8  1  0  0  0  0
  7  9  1  0  0  0  0
  7 10  1  0  0  0  0
 10 11  1  0  0  0  0
 10 12  1  0  0  0  0
 10 13  1  0  0  0  0
 13 14  1  0  0  0  0
 13 15  1  0  0  0  0
 15 16  1  0  0  0  0
 15 17  1  0  0  0  0
 15 18  1  0  0  0  0
 18 19  1  0  0  0  0
 18 20  1  0  0  0  0
  1 21  1  0  0  0  0
 18 21  1  0  0  0  0
 21 22  1  0  0  0  0
 21 23  1  0  0  0  0
 13 24  1  0  0  0  0
 24 25  1  0  0  0  0
M  END
> <VConfSearch Rank>
401

> <Conf_Id>
162

> <Delta U+W>
0.219

> <U+W>
11.132

> <U>
13.296

> <W>
-2.164

> <W(PB)>
-4.311

> <W(SA)>
2.148

> <Valence>
18.607

> <Coulomb>
-8.339

> <VdW>
3.028

> <VdW6>
-12.271

> <VdW12>
15.299

> <Bond>
0.423

> <Angle>
4.488

> <Pdih>
13.696

> <Idih>
0.000

> <Tether>
0.000

$$$$
VeraChem MOL file


 25 25  0  0  0  0  0  0  0  0999 V2000     
   21.8819   20.1030   23.6280 C   0  0  0  0  0  0  0  0  0  0  0  0
   22.1584   19.1065   23.9950 H   0  0  0  0  0  0  0  0  0  0  0  0
   22.6607   20.7714   24.0201 H   0  0  0  0  0  0  0  0  0  0  0  0
   21.9576   20.1364   22.0811 C   0  0  0  0  0  0  0  0  0  0  0  0
   21.3642   20.9689   21.6797 H   0  0  0  0  0  0  0  0  0  0  0  0
   22.9988   20.3685   21.8182 H   0  0  0  0  0  0  0  0  0  0  0  0
   21.6016   18.8000   21.3721 C   0  0  0  0  0  0  0  0  0  0  0  0
   21.9675   17.9372   21.9447 H   0  0  0  0  0  0  0  0  0  0  0  0
   22.1643   18.7819   20.4286 H   0  0  0  0  0  0  0  0  0  0  0  0
   20.1051   18.6240   21.0050 C   0  0  0  0  0  0  0  0  0  0  0  0
   19.6657   19.5960   20.7492 H   0  0  0  0  0  0  0  0  0  0  0  0
   20.0540   18.0381   20.0780 H   0  0  0  0  0  0  0  0  0  0  0  0
   19.2243   17.8843   22.0434 C   0  0  0  0  0  0  0  0  0  0  0  0
   19.5189   16.8249   22.0408 H   0  0  0  0  0  0  0  0  0  0  0  0
   19.3210   18.3849   23.5043 C   0  0  0  0  0  0  0  0  0  0  0  0
   18.5072   17.9303   24.0841 H   0  0  0  0  0  0  0  0  0  0  0  0
   20.2345   17.9851   23.9574 H   0  0  0  0  0  0  0  0  0  0  0  0
   19.2500   19.9260   23.6692 C   0  0  0  0  0  0  0  0  0  0  0  0
   18.4131   20.1716   24.3368 H   0  0  0  0  0  0  0  0  0  0  0  0
   18.9994   20.4104   22.7181 H   0  0  0  0  0  0  0  0  0  0  0  0
   20.5363   20.5611   24.2506 C   0  0  0  0  0  0  0  0  0  0  0  0
   20.5726   20.3581   25.3296 H   0  0  0  0  0  0  0  0  0  0  0  0
   20.4541   21.6523   24.1547 H   0  0  0  0  0  0  0  0  0  0  0  0
   17.8708   17.9879   21.6176 O   0  0  0  0  0  0  0  0  0  0  0  0
   17.3289   17.5185   22.2847 H   0  0  0  0  0  0  0  0  0  0  0  0
  1  2  1  0  0  0  0
  1  3  1  0  0  0  0
  1  4  1  0  0  0  0
  4  5  1  0  0  0  0
  4  6  1  0  0  0  0
  4  7  1  0  0  0  0
  7  8  1  0  0  0  0
  7  9  1  0  0  0  0
  7 10  1  0  0  0  0
 10 11  1  0  0  0  0
 10 12  1  0  0  0  0
 10 13  1  0  0  0  0
 13 14  1  0  0  0  0
 13 15  1  0  0  0  0
 15 16  1  0  0  0  0
 15 17  1  0  0  0  0
 15 18  1  0  0  0  0
 18 19  1  0  0  0  0
 18 20  1  0  0  0  0
  1 21  1  0  0  0  0
 18 21  1  0  0  0  0
 21 22  1  0  0  0  0
 21 23  1  0  0  0  0
 13 24  1  0  0  0  0
 24 25  1  0  0  0  0
M  END
> <VConfSearch Rank>
402

> <Conf_Id>
155

> <Delta U+W>
0.339

> <U+W>
11.252

> <U>
13.420

> <W>
-2.167

> <W(PB)>
-4.325

> <W(SA)>
2.157

> <Valence>
18.609

> <Coulomb>
-8.052

> <VdW>
2.863

> <VdW6>
-12.524

> <VdW12>
15.387

> <Bond>
0.430

> <Angle>
4.724

> <Pdih>
13.455

> <Idih>
0.000

> <Tether>
0.000

$$$$
VeraChem MOL file


 25 25  0  0  0  0  0  0  0  0999 V2000     
   19.0943   19.9372   24.0661 C   0  0  0  0  0  0  0  0  0  0  0  0
   19.5287   20.7058   24.7195 H   0  0  0  0  0  0  0  0  0  0  0  0
   18.0545   19.8222   24.4014 H   0  0  0  0  0  0  0  0  0  0  0  0
   19.0422   20.4732   22.6112 C   0  0  0  0  0  0  0  0  0  0  0  0
   18.5044   19.7575   21.9813 H   0  0  0  0  0  0  0  0  0  0  0  0
   18.3918   21.3584   22.6068 H   0  0  0  0  0  0  0  0  0  0  0  0
   20.3876   20.8913   21.9493 C   0  0  0  0  0  0  0  0  0  0  0  0
   20.5824   21.9350   22.2310 H   0  0  0  0  0  0  0  0  0  0  0  0
   20.2600   20.9004   20.8583 H   0  0  0  0  0  0  0  0  0  0  0  0
   21.6630   20.0797   22.3052 C   0  0  0  0  0  0  0  0  0  0  0  0
   22.5197   20.6039   21.8618 H   0  0  0  0  0  0  0  0  0  0  0  0
   21.8518   20.1599   23.3793 H   0  0  0  0  0  0  0  0  0  0  0  0
   21.7304   18.5908   21.8546 C   0  0  0  0  0  0  0  0  0  0  0  0
   22.4445   18.0740   22.5117 H   0  0  0  0  0  0  0  0  0  0  0  0
   20.4110   17.7786   21.8532 C   0  0  0  0  0  0  0  0  0  0  0  0
   19.7072   18.2417   21.1556 H   0  0  0  0  0  0  0  0  0  0  0  0
   20.6246   16.8033   21.3961 H   0  0  0  0  0  0  0  0  0  0  0  0
   19.7275   17.4966   23.2249 C   0  0  0  0  0  0  0  0  0  0  0  0
   20.1805   16.5843   23.6365 H   0  0  0  0  0  0  0  0  0  0  0  0
   18.6723   17.2464   23.0510 H   0  0  0  0  0  0  0  0  0  0  0  0
   19.8190   18.5842   24.3273 C   0  0  0  0  0  0  0  0  0  0  0  0
   20.8690   18.7490   24.5890 H   0  0  0  0  0  0  0  0  0  0  0  0
   19.3898   18.1614   25.2459 H   0  0  0  0  0  0  0  0  0  0  0  0
   22.2366   18.5604   20.5245 O   0  0  0  0  0  0  0  0  0  0  0  0
   23.0960   19.0299   20.5380 H   0  0  0  0  0  0  0  0  0  0  0  0
  1  2  1  0  0  0  0
  1  3  1  0  0  0  0
  1  4  1  0  0  0  0
  4  5  1  0  0  0  0
  4  6  1  0  0  0  0
  4  7  1  0  0  0  0
  7  8  1  0  0  0  0
  7  9  1  0  0  0  0
  7 10  1  0  0  0  0
 10 11  1  0  0  0  0
 10 12  1  0  0  0  0
 10 13  1  0  0  0  0
 13 14  1  0  0  0  0
 13 15  1  0  0  0  0
 15 16  1  0  0  0  0
 15 17  1  0  0  0  0
 15 18  1  0  0  0  0
 18 19  1  0  0  0  0
 18 20  1  0  0  0  0
  1 21  1  0  0  0  0
 18 21  1  0  0  0  0
 21 22  1  0  0  0  0
 21 23  1  0  0  0  0
 13 24  1  0  0  0  0
 24 25  1  0  0  0  0
M  END
> <VConfSearch Rank>
403

> <Conf_Id>
146

> <Delta U+W>
2.553

> <U+W>
13.466

> <U>
15.643

> <W>
-2.176

> <W(PB)>
-4.307

> <W(SA)>
2.131

> <Valence>
18.916

> <Coulomb>
-7.506

> <VdW>
4.232

> <VdW6>
-13.632

> <VdW12>
17.864

> <Bond>
0.735

> <Angle>
9.140

> <Pdih>
9.042

> <Idih>
0.000

> <Tether>
0.000

$$$$
VeraChem MOL file


 25 25  0  0  0  0  0  0  0  0999 V2000     
   20.3301   19.4226   20.5968 C   0  0  0  0  0  0  0  0  0  0  0  0
   19.5526   19.9654   20.0423 H   0  0  0  0  0  0  0  0  0  0  0  0
   21.0263   19.0436   19.8362 H   0  0  0  0  0  0  0  0  0  0  0  0
   19.6960   18.1943   21.2964 C   0  0  0  0  0  0  0  0  0  0  0  0
   19.2761   17.5523   20.5101 H   0  0  0  0  0  0  0  0  0  0  0  0
   20.4726   17.5809   21.7673 H   0  0  0  0  0  0  0  0  0  0  0  0
   18.5562   18.4947   22.3018 C   0  0  0  0  0  0  0  0  0  0  0  0
   18.1344   17.5317   22.6208 H   0  0  0  0  0  0  0  0  0  0  0  0
   17.7424   19.0187   21.7824 H   0  0  0  0  0  0  0  0  0  0  0  0
   18.9354   19.2921   23.5770 C   0  0  0  0  0  0  0  0  0  0  0  0
   18.9675   20.3643   23.3595 H   0  0  0  0  0  0  0  0  0  0  0  0
   18.1039   19.1810   24.2861 H   0  0  0  0  0  0  0  0  0  0  0  0
   20.2510   18.8458   24.2654 C   0  0  0  0  0  0  0  0  0  0  0  0
   20.5058   17.8261   23.9469 H   0  0  0  0  0  0  0  0  0  0  0  0
   21.4559   19.7832   23.9979 C   0  0  0  0  0  0  0  0  0  0  0  0
   21.1865   20.8078   24.2866 H   0  0  0  0  0  0  0  0  0  0  0  0
   22.2703   19.4893   24.6730 H   0  0  0  0  0  0  0  0  0  0  0  0
   22.0323   19.7913   22.5560 C   0  0  0  0  0  0  0  0  0  0  0  0
   22.3466   18.7832   22.2562 H   0  0  0  0  0  0  0  0  0  0  0  0
   22.9575   20.3831   22.5841 H   0  0  0  0  0  0  0  0  0  0  0  0
   21.1054   20.4273   21.4879 C   0  0  0  0  0  0  0  0  0  0  0  0
   21.7253   21.0397   20.8188 H   0  0  0  0  0  0  0  0  0  0  0  0
   20.4173   21.1427   21.9522 H   0  0  0  0  0  0  0  0  0  0  0  0
   20.0310   18.8304   25.6714 O   0  0  0  0  0  0  0  0  0  0  0  0
   20.8526   18.4903   26.0830 H   0  0  0  0  0  0  0  0  0  0  0  0
  1  2  1  0  0  0  0
  1  3  1  0  0  0  0
  1  4  1  0  0  0  0
  4  5  1  0  0  0  0
  4  6  1  0  0  0  0
  4  7  1  0  0  0  0
  7  8  1  0  0  0  0
  7  9  1  0  0  0  0
  7 10  1  0  0  0  0
 10 11  1  0  0  0  0
 10 12  1  0  0  0  0
 10 13  1  0  0  0  0
 13 14  1  0  0  0  0
 13 15  1  0  0  0  0
 15 16  1  0  0  0  0
 15 17  1  0  0  0  0
 15 18  1  0  0  0  0
 18 19  1  0  0  0  0
 18 20  1  0  0  0  0
  1 21  1  0  0  0  0
 18 21  1  0  0  0  0
 21 22  1  0  0  0  0
 21 23  1  0  0  0  0
 13 24  1  0  0  0  0
 24 25  1  0  0  0  0
M  END
> <VConfSearch Rank>
404

> <Conf_Id>
62

> <Delta U+W>
-1.779

> <U+W>
9.134

> <U>
11.364

> <W>
-2.230

> <W(PB)>
-4.359

> <W(SA)>
2.129

> <Valence>
16.582

> <Coulomb>
-8.150

> <VdW>
2.933

> <VdW6>
-12.531

> <VdW12>
15.464

> <Bond>
0.439

> <Angle>
5.099

> <Pdih>
11.044

> <Idih>
0.000

> <Tether>
0.000

$$$$
VeraChem MOL file


 25 25  0  0  0  0  0  0  0  0999 V2000     
   18.9123   20.0650   21.8836 C   0  0  0  0  0  0  0  0  0  0  0  0
   19.7860   20.5006   21.3857 H   0  0  0  0  0  0  0  0  0  0  0  0
   18.0529   20.5849   21.4389 H   0  0  0  0  0  0  0  0  0  0  0  0
   18.9253   20.4068   23.3945 C   0  0  0  0  0  0  0  0  0  0  0  0
   18.9056   21.5016   23.4841 H   0  0  0  0  0  0  0  0  0  0  0  0
   17.9920   20.0545   23.8542 H   0  0  0  0  0  0  0  0  0  0  0  0
   20.1243   19.8848   24.2267 C   0  0  0  0  0  0  0  0  0  0  0  0
   19.9584   18.8448   24.5299 H   0  0  0  0  0  0  0  0  0  0  0  0
   20.1328   20.4477   25.1702 H   0  0  0  0  0  0  0  0  0  0  0  0
   21.5153   20.0415   23.5560 C   0  0  0  0  0  0  0  0  0  0  0  0
   21.5066   20.8489   22.8135 H   0  0  0  0  0  0  0  0  0  0  0  0
   22.2151   20.3722   24.3346 H   0  0  0  0  0  0  0  0  0  0  0  0
   22.0921   18.7424   22.9387 C   0  0  0  0  0  0  0  0  0  0  0  0
   22.0766   17.9583   23.7093 H   0  0  0  0  0  0  0  0  0  0  0  0
   21.3686   18.1968   21.6822 C   0  0  0  0  0  0  0  0  0  0  0  0
   21.3584   18.9513   20.8864 H   0  0  0  0  0  0  0  0  0  0  0  0
   21.9826   17.3743   21.2917 H   0  0  0  0  0  0  0  0  0  0  0  0
   19.9457   17.6316   21.9379 C   0  0  0  0  0  0  0  0  0  0  0  0
   19.8380   17.3204   22.9831 H   0  0  0  0  0  0  0  0  0  0  0  0
   19.8374   16.7023   21.3622 H   0  0  0  0  0  0  0  0  0  0  0  0
   18.7785   18.5641   21.5243 C   0  0  0  0  0  0  0  0  0  0  0  0
   17.8426   18.1721   21.9450 H   0  0  0  0  0  0  0  0  0  0  0  0
   18.6651   18.4962   20.4337 H   0  0  0  0  0  0  0  0  0  0  0  0
   23.4430   18.9998   22.5763 O   0  0  0  0  0  0  0  0  0  0  0  0
   23.9070   19.2788   23.3930 H   0  0  0  0  0  0  0  0  0  0  0  0
  1  2  1  0  0  0  0
  1  3  1  0  0  0  0
  1  4  1  0  0  0  0
  4  5  1  0  0  0  0
  4  6  1  0  0  0  0
  4  7  1  0  0  0  0
  7  8  1  0  0  0  0
  7  9  1  0  0  0  0
  7 10  1  0  0  0  0
 10 11  1  0  0  0  0
 10 12  1  0  0  0  0
 10 13  1  0  0  0  0
 13 14  1  0  0  0  0
 13 15  1  0  0  0  0
 15 16  1  0  0  0  0
 15 17  1  0  0  0  0
 15 18  1  0  0  0  0
 18 19  1  0  0  0  0
 18 20  1  0  0  0  0
  1 21  1  0  0  0  0
 18 21  1  0  0  0  0
 21 22  1  0  0  0  0
 21 23  1  0  0  0  0
 13 24  1  0  0  0  0
 24 25  1  0  0  0  0
M  END
> <VConfSearch Rank>
405

> <Conf_Id>
121

> <Delta U+W>
-1.283

> <U+W>
9.630

> <U>
11.876

> <W>
-2.246

> <W(PB)>
-4.376

> <W(SA)>
2.130

> <Valence>
17.153

> <Coulomb>
-7.966

> <VdW>
2.689

> <VdW6>
-12.458

> <VdW12>
15.147

> <Bond>
0.421

> <Angle>
5.258

> <Pdih>
11.475

> <Idih>
0.000

> <Tether>
0.000

$$$$
VeraChem MOL file


 25 25  0  0  0  0  0  0  0  0999 V2000     
   21.5300   18.9415   24.0760 C   0  0  0  0  0  0  0  0  0  0  0  0
   20.6626   19.4090   24.5559 H   0  0  0  0  0  0  0  0  0  0  0  0
   22.2250   18.7354   24.9013 H   0  0  0  0  0  0  0  0  0  0  0  0
   22.2285   19.9466   23.1264 C   0  0  0  0  0  0  0  0  0  0  0  0
   22.5489   20.8042   23.7336 H   0  0  0  0  0  0  0  0  0  0  0  0
   23.1519   19.4967   22.7373 H   0  0  0  0  0  0  0  0  0  0  0  0
   21.3954   20.4925   21.9386 C   0  0  0  0  0  0  0  0  0  0  0  0
   21.4163   19.7894   21.0982 H   0  0  0  0  0  0  0  0  0  0  0  0
   21.9137   21.3852   21.5626 H   0  0  0  0  0  0  0  0  0  0  0  0
   19.9340   20.8889   22.2802 C   0  0  0  0  0  0  0  0  0  0  0  0
   19.8269   21.1287   23.3450 H   0  0  0  0  0  0  0  0  0  0  0  0
   19.7162   21.8259   21.7505 H   0  0  0  0  0  0  0  0  0  0  0  0
   18.8580   19.8635   21.8434 C   0  0  0  0  0  0  0  0  0  0  0  0
   19.0035   19.6501   20.7746 H   0  0  0  0  0  0  0  0  0  0  0  0
   18.8390   18.5165   22.6094 C   0  0  0  0  0  0  0  0  0  0  0  0
   18.7031   18.6876   23.6843 H   0  0  0  0  0  0  0  0  0  0  0  0
   17.9426   17.9703   22.2878 H   0  0  0  0  0  0  0  0  0  0  0  0
   20.0584   17.5945   22.3406 C   0  0  0  0  0  0  0  0  0  0  0  0
   20.5124   17.8300   21.3714 H   0  0  0  0  0  0  0  0  0  0  0  0
   19.6922   16.5648   22.2292 H   0  0  0  0  0  0  0  0  0  0  0  0
   21.1347   17.5781   23.4560 C   0  0  0  0  0  0  0  0  0  0  0  0
   22.0354   17.0780   23.0749 H   0  0  0  0  0  0  0  0  0  0  0  0
   20.7640   16.9414   24.2709 H   0  0  0  0  0  0  0  0  0  0  0  0
   17.5869   20.4769   22.0177 O   0  0  0  0  0  0  0  0  0  0  0  0
   16.9191   19.8469   21.6753 H   0  0  0  0  0  0  0  0  0  0  0  0
  1  2  1  0  0  0  0
  1  3  1  0  0  0  0
  1  4  1  0  0  0  0
  4  5  1  0  0  0  0
  4  6  1  0  0  0  0
  4  7  1  0  0  0  0
  7  8  1  0  0  0  0
  7  9  1  0  0  0  0
  7 10  1  0  0  0  0
 10 11  1  0  0  0  0
 10 12  1  0  0  0  0
 10 13  1  0  0  0  0
 13 14  1  0  0  0  0
 13 15  1  0  0  0  0
 15 16  1  0  0  0  0
 15 17  1  0  0  0  0
 15 18  1  0  0  0  0
 18 19  1  0  0  0  0
 18 20  1  0  0  0  0
  1 21  1  0  0  0  0
 18 21  1  0  0  0  0
 21 22  1  0  0  0  0
 21 23  1  0  0  0  0
 13 24  1  0  0  0  0
 24 25  1  0  0  0  0
M  END
> <VConfSearch Rank>
406

> <Conf_Id>
24

> <Delta U+W>
-1.236

> <U+W>
9.678

> <U>
11.876

> <W>
-2.199

> <W(PB)>
-4.335

> <W(SA)>
2.137

> <Valence>
17.153

> <Coulomb>
-7.966

> <VdW>
2.689

> <VdW6>
-12.458

> <VdW12>
15.147

> <Bond>
0.421

> <Angle>
5.258

> <Pdih>
11.475

> <Idih>
0.000

> <Tether>
0.000

$$$$
VeraChem MOL file


 25 25  0  0  0  0  0  0  0  0999 V2000     
   18.5121   19.6848   23.7890 C   0  0  0  0  0  0  0  0  0  0  0  0
   18.2367   19.1663   24.7175 H   0  0  0  0  0  0  0  0  0  0  0  0
   17.6983   20.3965   23.5937 H   0  0  0  0  0  0  0  0  0  0  0  0
   19.8098   20.4993   24.0351 C   0  0  0  0  0  0  0  0  0  0  0  0
   19.9346   21.2699   23.2638 H   0  0  0  0  0  0  0  0  0  0  0  0
   19.6632   21.0598   24.9685 H   0  0  0  0  0  0  0  0  0  0  0  0
   21.1135   19.6748   24.1750 C   0  0  0  0  0  0  0  0  0  0  0  0
   20.9162   18.7140   24.6693 H   0  0  0  0  0  0  0  0  0  0  0  0
   21.7676   20.2274   24.8635 H   0  0  0  0  0  0  0  0  0  0  0  0
   21.9130   19.4745   22.8565 C   0  0  0  0  0  0  0  0  0  0  0  0
   21.8541   20.3696   22.2242 H   0  0  0  0  0  0  0  0  0  0  0  0
   22.9701   19.3847   23.1418 H   0  0  0  0  0  0  0  0  0  0  0  0
   21.5330   18.2110   22.0464 C   0  0  0  0  0  0  0  0  0  0  0  0
   21.1651   17.4470   22.7440 H   0  0  0  0  0  0  0  0  0  0  0  0
   20.4836   18.4304   20.9273 C   0  0  0  0  0  0  0  0  0  0  0  0
   20.9449   18.9834   20.0986 H   0  0  0  0  0  0  0  0  0  0  0  0
   20.2189   17.4448   20.5221 H   0  0  0  0  0  0  0  0  0  0  0  0
   19.1767   19.1603   21.3272 C   0  0  0  0  0  0  0  0  0  0  0  0
   18.4519   19.0322   20.5117 H   0  0  0  0  0  0  0  0  0  0  0  0
   19.3562   20.2407   21.3743 H   0  0  0  0  0  0  0  0  0  0  0  0
   18.5411   18.6441   22.6428 C   0  0  0  0  0  0  0  0  0  0  0  0
   19.0364   17.7294   22.9886 H   0  0  0  0  0  0  0  0  0  0  0  0
   17.5062   18.3385   22.4365 H   0  0  0  0  0  0  0  0  0  0  0  0
   22.7093   17.7059   21.4278 O   0  0  0  0  0  0  0  0  0  0  0  0
   23.0305   18.4096   20.8272 H   0  0  0  0  0  0  0  0  0  0  0  0
  1  2  1  0  0  0  0
  1  3  1  0  0  0  0
  1  4  1  0  0  0  0
  4  5  1  0  0  0  0
  4  6  1  0  0  0  0
  4  7  1  0  0  0  0
  7  8  1  0  0  0  0
  7  9  1  0  0  0  0
  7 10  1  0  0  0  0
 10 11  1  0  0  0  0
 10 12  1  0  0  0  0
 10 13  1  0  0  0  0
 13 14  1  0  0  0  0
 13 15  1  0  0  0  0
 15 16  1  0  0  0  0
 15 17  1  0  0  0  0
 15 18  1  0  0  0  0
 18 19  1  0  0  0  0
 18 20  1  0  0  0  0
  1 21  1  0  0  0  0
 18 21  1  0  0  0  0
 21 22  1  0  0  0  0
 21 23  1  0  0  0  0
 13 24  1  0  0  0  0
 24 25  1  0  0  0  0
M  END
> <VConfSearch Rank>
407

> <Conf_Id>
167

> <Delta U+W>
0.388

> <U+W>
11.301

> <U>
13.202

> <W>
-1.901

> <W(PB)>
-4.065

> <W(SA)>
2.163

> <Valence>
18.957

> <Coulomb>
-8.753

> <VdW>
2.998

> <VdW6>
-12.294

> <VdW12>
15.292

> <Bond>
0.419

> <Angle>
4.543

> <Pdih>
13.996

> <Idih>
0.000

> <Tether>
0.000

$$$$
VeraChem MOL file


 25 25  0  0  0  0  0  0  0  0999 V2000     
   19.0097   20.8311   22.4762 C   0  0  0  0  0  0  0  0  0  0  0  0
   18.0086   20.7067   22.0419 H   0  0  0  0  0  0  0  0  0  0  0  0
   19.0769   21.8884   22.7668 H   0  0  0  0  0  0  0  0  0  0  0  0
   20.0705   20.5767   21.3738 C   0  0  0  0  0  0  0  0  0  0  0  0
   19.7804   19.7257   20.7473 H   0  0  0  0  0  0  0  0  0  0  0  0
   20.0406   21.4387   20.6933 H   0  0  0  0  0  0  0  0  0  0  0  0
   21.5281   20.4105   21.8765 C   0  0  0  0  0  0  0  0  0  0  0  0
   21.6749   20.9212   22.8369 H   0  0  0  0  0  0  0  0  0  0  0  0
   22.1833   20.9368   21.1689 H   0  0  0  0  0  0  0  0  0  0  0  0
   22.0288   18.9422   21.9510 C   0  0  0  0  0  0  0  0  0  0  0  0
   21.9096   18.4656   20.9692 H   0  0  0  0  0  0  0  0  0  0  0  0
   23.1107   18.9713   22.1364 H   0  0  0  0  0  0  0  0  0  0  0  0
   21.3909   18.0397   23.0363 C   0  0  0  0  0  0  0  0  0  0  0  0
   21.4822   18.5334   24.0131 H   0  0  0  0  0  0  0  0  0  0  0  0
   19.9071   17.6783   22.7673 C   0  0  0  0  0  0  0  0  0  0  0  0
   19.6802   17.7875   21.7020 H   0  0  0  0  0  0  0  0  0  0  0  0
   19.7473   16.6111   22.9712 H   0  0  0  0  0  0  0  0  0  0  0  0
   18.8764   18.4652   23.6178 C   0  0  0  0  0  0  0  0  0  0  0  0
   18.8659   18.0277   24.6255 H   0  0  0  0  0  0  0  0  0  0  0  0
   17.8717   18.2939   23.2083 H   0  0  0  0  0  0  0  0  0  0  0  0
   19.1128   19.9887   23.7725 C   0  0  0  0  0  0  0  0  0  0  0  0
   20.0665   20.1814   24.2770 H   0  0  0  0  0  0  0  0  0  0  0  0
   18.3515   20.3671   24.4682 H   0  0  0  0  0  0  0  0  0  0  0  0
   22.1425   16.8325   23.0783 O   0  0  0  0  0  0  0  0  0  0  0  0
   21.7750   16.2984   23.8133 H   0  0  0  0  0  0  0  0  0  0  0  0
  1  2  1  0  0  0  0
  1  3  1  0  0  0  0
  1  4  1  0  0  0  0
  4  5  1  0  0  0  0
  4  6  1  0  0  0  0
  4  7  1  0  0  0  0
  7  8  1  0  0  0  0
  7  9  1  0  0  0  0
  7 10  1  0  0  0  0
 10 11  1  0  0  0  0
 10 12  1  0  0  0  0
 10 13  1  0  0  0  0
 13 14  1  0  0  0  0
 13 15  1  0  0  0  0
 15 16  1  0  0  0  0
 15 17  1  0  0  0  0
 15 18  1  0  0  0  0
 18 19  1  0  0  0  0
 18 20  1  0  0  0  0
  1 21  1  0  0  0  0
 18 21  1  0  0  0  0
 21 22  1  0  0  0  0
 21 23  1  0  0  0  0
 13 24  1  0  0  0  0
 24 25  1  0  0  0  0
M  END
> <VConfSearch Rank>
408

> <Conf_Id>
60

> <Delta U+W>
-1.838

> <U+W>
9.075

> <U>
11.150

> <W>
-2.074

> <W(PB)>
-4.196

> <W(SA)>
2.121

> <Valence>
16.582

> <Coulomb>
-8.361

> <VdW>
2.928

> <VdW6>
-12.539

> <VdW12>
15.467

> <Bond>
0.441

> <Angle>
5.093

> <Pdih>
11.049

> <Idih>
0.000

> <Tether>
0.000

$$$$
VeraChem MOL file


 25 25  0  0  0  0  0  0  0  0999 V2000     
   19.3576   17.4259   22.1864 C   0  0  0  0  0  0  0  0  0  0  0  0
   19.4254   16.5459   22.8404 H   0  0  0  0  0  0  0  0  0  0  0  0
   18.7439   17.1121   21.3309 H   0  0  0  0  0  0  0  0  0  0  0  0
   20.7673   17.7683   21.6423 C   0  0  0  0  0  0  0  0  0  0  0  0
   21.1146   16.8987   21.0679 H   0  0  0  0  0  0  0  0  0  0  0  0
   20.7049   18.5775   20.9058 H   0  0  0  0  0  0  0  0  0  0  0  0
   21.8520   18.0802   22.7039 C   0  0  0  0  0  0  0  0  0  0  0  0
   22.8102   18.1861   22.1770 H   0  0  0  0  0  0  0  0  0  0  0  0
   21.9710   17.2123   23.3665 H   0  0  0  0  0  0  0  0  0  0  0  0
   21.6416   19.3493   23.5699 C   0  0  0  0  0  0  0  0  0  0  0  0
   20.9482   19.1366   24.3899 H   0  0  0  0  0  0  0  0  0  0  0  0
   22.5961   19.5621   24.0694 H   0  0  0  0  0  0  0  0  0  0  0  0
   21.1751   20.6053   22.7892 C   0  0  0  0  0  0  0  0  0  0  0  0
   21.4020   20.4850   21.7214 H   0  0  0  0  0  0  0  0  0  0  0  0
   19.6692   20.9291   22.9538 C   0  0  0  0  0  0  0  0  0  0  0  0
   19.4335   21.0174   24.0224 H   0  0  0  0  0  0  0  0  0  0  0  0
   19.4952   21.9266   22.5289 H   0  0  0  0  0  0  0  0  0  0  0  0
   18.6645   19.9535   22.2822 C   0  0  0  0  0  0  0  0  0  0  0  0
   18.8548   19.8801   21.2037 H   0  0  0  0  0  0  0  0  0  0  0  0
   17.6691   20.4105   22.3671 H   0  0  0  0  0  0  0  0  0  0  0  0
   18.5887   18.5476   22.9321 C   0  0  0  0  0  0  0  0  0  0  0  0
   17.5332   18.2450   22.9682 H   0  0  0  0  0  0  0  0  0  0  0  0
   18.8946   18.5928   23.9833 H   0  0  0  0  0  0  0  0  0  0  0  0
   21.9045   21.7267   23.2734 O   0  0  0  0  0  0  0  0  0  0  0  0
   22.8514   21.5412   23.1015 H   0  0  0  0  0  0  0  0  0  0  0  0
  1  2  1  0  0  0  0
  1  3  1  0  0  0  0
  1  4  1  0  0  0  0
  4  5  1  0  0  0  0
  4  6  1  0  0  0  0
  4  7  1  0  0  0  0
  7  8  1  0  0  0  0
  7  9  1  0  0  0  0
  7 10  1  0  0  0  0
 10 11  1  0  0  0  0
 10 12  1  0  0  0  0
 10 13  1  0  0  0  0
 13 14  1  0  0  0  0
 13 15  1  0  0  0  0
 15 16  1  0  0  0  0
 15 17  1  0  0  0  0
 15 18  1  0  0  0  0
 18 19  1  0  0  0  0
 18 20  1  0  0  0  0
  1 21  1  0  0  0  0
 18 21  1  0  0  0  0
 21 22  1  0  0  0  0
 21 23  1  0  0  0  0
 13 24  1  0  0  0  0
 24 25  1  0  0  0  0
M  END
> <VConfSearch Rank>
409

> <Conf_Id>
129

> <Delta U+W>
-1.846

> <U+W>
9.067

> <U>
11.150

> <W>
-2.083

> <W(PB)>
-4.217

> <W(SA)>
2.134

> <Valence>
16.583

> <Coulomb>
-8.361

> <VdW>
2.928

> <VdW6>
-12.539

> <VdW12>
15.467

> <Bond>
0.441

> <Angle>
5.093

> <Pdih>
11.049

> <Idih>
0.000

> <Tether>
0.000

$$$$
VeraChem MOL file


 25 25  0  0  0  0  0  0  0  0999 V2000     
   18.4116   19.7087   23.4093 C   0  0  0  0  0  0  0  0  0  0  0  0
   18.1809   19.5591   24.4727 H   0  0  0  0  0  0  0  0  0  0  0  0
   17.5024   20.1381   22.9667 H   0  0  0  0  0  0  0  0  0  0  0  0
   18.6464   18.3321   22.7384 C   0  0  0  0  0  0  0  0  0  0  0  0
   17.7171   17.7557   22.8438 H   0  0  0  0  0  0  0  0  0  0  0  0
   18.7747   18.4520   21.6565 H   0  0  0  0  0  0  0  0  0  0  0  0
   19.7905   17.4708   23.3294 C   0  0  0  0  0  0  0  0  0  0  0  0
   19.7568   16.4912   22.8332 H   0  0  0  0  0  0  0  0  0  0  0  0
   19.5859   17.2743   24.3906 H   0  0  0  0  0  0  0  0  0  0  0  0
   21.2324   18.0244   23.1886 C   0  0  0  0  0  0  0  0  0  0  0  0
   21.4336   18.7585   23.9755 H   0  0  0  0  0  0  0  0  0  0  0  0
   21.9165   17.1925   23.4043 H   0  0  0  0  0  0  0  0  0  0  0  0
   21.5740   18.6197   21.7981 C   0  0  0  0  0  0  0  0  0  0  0  0
   20.8709   18.2344   21.0477 H   0  0  0  0  0  0  0  0  0  0  0  0
   21.5734   20.1684   21.7508 C   0  0  0  0  0  0  0  0  0  0  0  0
   22.2526   20.5579   22.5204 H   0  0  0  0  0  0  0  0  0  0  0  0
   22.0072   20.4728   20.7888 H   0  0  0  0  0  0  0  0  0  0  0  0
   20.1961   20.8733   21.8825 C   0  0  0  0  0  0  0  0  0  0  0  0
   19.5083   20.5343   21.0971 H   0  0  0  0  0  0  0  0  0  0  0  0
   20.3611   21.9400   21.6778 H   0  0  0  0  0  0  0  0  0  0  0  0
   19.5412   20.7635   23.2837 C   0  0  0  0  0  0  0  0  0  0  0  0
   19.1003   21.7388   23.5319 H   0  0  0  0  0  0  0  0  0  0  0  0
   20.3042   20.6058   24.0542 H   0  0  0  0  0  0  0  0  0  0  0  0
   22.8800   18.1869   21.4383 O   0  0  0  0  0  0  0  0  0  0  0  0
   23.4872   18.5454   22.1178 H   0  0  0  0  0  0  0  0  0  0  0  0
  1  2  1  0  0  0  0
  1  3  1  0  0  0  0
  1  4  1  0  0  0  0
  4  5  1  0  0  0  0
  4  6  1  0  0  0  0
  4  7  1  0  0  0  0
  7  8  1  0  0  0  0
  7  9  1  0  0  0  0
  7 10  1  0  0  0  0
 10 11  1  0  0  0  0
 10 12  1  0  0  0  0
 10 13  1  0  0  0  0
 13 14  1  0  0  0  0
 13 15  1  0  0  0  0
 15 16  1  0  0  0  0
 15 17  1  0  0  0  0
 15 18  1  0  0  0  0
 18 19  1  0  0  0  0
 18 20  1  0  0  0  0
  1 21  1  0  0  0  0
 18 21  1  0  0  0  0
 21 22  1  0  0  0  0
 21 23  1  0  0  0  0
 13 24  1  0  0  0  0
 24 25  1  0  0  0  0
M  END
> <VConfSearch Rank>
410

> <Conf_Id>
140

> <Delta U+W>
-1.702

> <U+W>
9.211

> <U>
11.181

> <W>
-1.969

> <W(PB)>
-4.093

> <W(SA)>
2.124

> <Valence>
16.954

> <Coulomb>
-8.661

> <VdW>
2.887

> <VdW6>
-12.561

> <VdW12>
15.448

> <Bond>
0.433

> <Angle>
5.120

> <Pdih>
11.401

> <Idih>
0.000

> <Tether>
0.000

$$$$
VeraChem MOL file


 25 25  0  0  0  0  0  0  0  0999 V2000     
   20.5525   20.2023   20.8777 C   0  0  0  0  0  0  0  0  0  0  0  0
   20.9597   21.2224   20.8731 H   0  0  0  0  0  0  0  0  0  0  0  0
   20.3622   19.9548   19.8244 H   0  0  0  0  0  0  0  0  0  0  0  0
   19.1883   20.2092   21.6148 C   0  0  0  0  0  0  0  0  0  0  0  0
   19.2326   20.8493   22.5032 H   0  0  0  0  0  0  0  0  0  0  0  0
   18.4674   20.7095   20.9537 H   0  0  0  0  0  0  0  0  0  0  0  0
   18.6209   18.8124   21.9773 C   0  0  0  0  0  0  0  0  0  0  0  0
   19.0117   18.0398   21.3026 H   0  0  0  0  0  0  0  0  0  0  0  0
   17.5388   18.8365   21.7887 H   0  0  0  0  0  0  0  0  0  0  0  0
   18.8130   18.3969   23.4610 C   0  0  0  0  0  0  0  0  0  0  0  0
   18.3751   19.1662   24.1103 H   0  0  0  0  0  0  0  0  0  0  0  0
   18.2156   17.4906   23.6281 H   0  0  0  0  0  0  0  0  0  0  0  0
   20.2617   18.0967   23.9215 C   0  0  0  0  0  0  0  0  0  0  0  0
   20.7069   17.3492   23.2515 H   0  0  0  0  0  0  0  0  0  0  0  0
   21.1787   19.3450   23.9947 C   0  0  0  0  0  0  0  0  0  0  0  0
   20.5759   20.2533   24.0953 H   0  0  0  0  0  0  0  0  0  0  0  0
   21.7736   19.3037   24.9172 H   0  0  0  0  0  0  0  0  0  0  0  0
   22.1791   19.4945   22.8190 C   0  0  0  0  0  0  0  0  0  0  0  0
   23.0101   18.7975   22.9943 H   0  0  0  0  0  0  0  0  0  0  0  0
   22.6213   20.4994   22.8525 H   0  0  0  0  0  0  0  0  0  0  0  0
   21.6350   19.2217   21.3943 C   0  0  0  0  0  0  0  0  0  0  0  0
   21.2846   18.1868   21.3081 H   0  0  0  0  0  0  0  0  0  0  0  0
   22.4867   19.2832   20.7032 H   0  0  0  0  0  0  0  0  0  0  0  0
   20.1818   17.5274   25.2221 O   0  0  0  0  0  0  0  0  0  0  0  0
   19.7792   18.2092   25.7983 H   0  0  0  0  0  0  0  0  0  0  0  0
  1  2  1  0  0  0  0
  1  3  1  0  0  0  0
  1  4  1  0  0  0  0
  4  5  1  0  0  0  0
  4  6  1  0  0  0  0
  4  7  1  0  0  0  0
  7  8  1  0  0  0  0
  7  9  1  0  0  0  0
  7 10  1  0  0  0  0
 10 11  1  0  0  0  0
 10 12  1  0  0  0  0
 10 13  1  0  0  0  0
 13 14  1  0  0  0  0
 13 15  1  0  0  0  0
 15 16  1  0  0  0  0
 15 17  1  0  0  0  0
 15 18  1  0  0  0  0
 18 19  1  0  0  0  0
 18 20  1  0  0  0  0
  1 21  1  0  0  0  0
 18 21  1  0  0  0  0
 21 22  1  0  0  0  0
 21 23  1  0  0  0  0
 13 24  1  0  0  0  0
 24 25  1  0  0  0  0
M  END
> <VConfSearch Rank>
411

> <Conf_Id>
68

> <Delta U+W>
-1.765

> <U+W>
9.148

> <U>
11.181

> <W>
-2.032

> <W(PB)>
-4.147

> <W(SA)>
2.114

> <Valence>
16.955

> <Coulomb>
-8.661

> <VdW>
2.887

> <VdW6>
-12.561

> <VdW12>
15.448

> <Bond>
0.433

> <Angle>
5.121

> <Pdih>
11.402

> <Idih>
0.000

> <Tether>
0.000

$$$$
VeraChem MOL file


 25 25  0  0  0  0  0  0  0  0999 V2000     
   21.0848   17.7359   23.4690 C   0  0  0  0  0  0  0  0  0  0  0  0
   21.5509   16.9284   24.0502 H   0  0  0  0  0  0  0  0  0  0  0  0
   21.5010   17.6202   22.4618 H   0  0  0  0  0  0  0  0  0  0  0  0
   21.5229   19.0888   24.0880 C   0  0  0  0  0  0  0  0  0  0  0  0
   20.7772   19.4559   24.8048 H   0  0  0  0  0  0  0  0  0  0  0  0
   22.4254   18.9013   24.6858 H   0  0  0  0  0  0  0  0  0  0  0  0
   21.8841   20.1901   23.0569 C   0  0  0  0  0  0  0  0  0  0  0  0
   22.6654   19.8149   22.3817 H   0  0  0  0  0  0  0  0  0  0  0  0
   22.3446   21.0228   23.6058 H   0  0  0  0  0  0  0  0  0  0  0  0
   20.7145   20.7681   22.2163 C   0  0  0  0  0  0  0  0  0  0  0  0
   19.9369   21.1751   22.8737 H   0  0  0  0  0  0  0  0  0  0  0  0
   21.1144   21.6344   21.6721 H   0  0  0  0  0  0  0  0  0  0  0  0
   20.1089   19.7759   21.1898 C   0  0  0  0  0  0  0  0  0  0  0  0
   20.8308   18.9732   20.9999 H   0  0  0  0  0  0  0  0  0  0  0  0
   18.7553   19.1525   21.6109 C   0  0  0  0  0  0  0  0  0  0  0  0
   17.9645   19.8978   21.4538 H   0  0  0  0  0  0  0  0  0  0  0  0
   18.5278   18.3244   20.9271 H   0  0  0  0  0  0  0  0  0  0  0  0
   18.6319   18.6481   23.0719 C   0  0  0  0  0  0  0  0  0  0  0  0
   17.5958   18.3126   23.2155 H   0  0  0  0  0  0  0  0  0  0  0  0
   18.7534   19.4792   23.7760 H   0  0  0  0  0  0  0  0  0  0  0  0
   19.5571   17.4695   23.4657 C   0  0  0  0  0  0  0  0  0  0  0  0
   19.3466   16.6094   22.8156 H   0  0  0  0  0  0  0  0  0  0  0  0
   19.2708   17.1525   24.4779 H   0  0  0  0  0  0  0  0  0  0  0  0
   19.8990   20.4649   19.9635 O   0  0  0  0  0  0  0  0  0  0  0  0
   19.2668   21.1874   20.1563 H   0  0  0  0  0  0  0  0  0  0  0  0
  1  2  1  0  0  0  0
  1  3  1  0  0  0  0
  1  4  1  0  0  0  0
  4  5  1  0  0  0  0
  4  6  1  0  0  0  0
  4  7  1  0  0  0  0
  7  8  1  0  0  0  0
  7  9  1  0  0  0  0
  7 10  1  0  0  0  0
 10 11  1  0  0  0  0
 10 12  1  0  0  0  0
 10 13  1  0  0  0  0
 13 14  1  0  0  0  0
 13 15  1  0  0  0  0
 15 16  1  0  0  0  0
 15 17  1  0  0  0  0
 15 18  1  0  0  0  0
 18 19  1  0  0  0  0
 18 20  1  0  0  0  0
  1 21  1  0  0  0  0
 18 21  1  0  0  0  0
 21 22  1  0  0  0  0
 21 23  1  0  0  0  0
 13 24  1  0  0  0  0
 24 25  1  0  0  0  0
M  END
> <VConfSearch Rank>
412

> <Conf_Id>
165

> <Delta U+W>
-1.999

> <U+W>
8.915

> <U>
10.935

> <W>
-2.020

> <W(PB)>
-4.135

> <W(SA)>
2.115

> <Valence>
16.757

> <Coulomb>
-8.731

> <VdW>
2.908

> <VdW6>
-12.597

> <VdW12>
15.506

> <Bond>
0.434

> <Angle>
5.069

> <Pdih>
11.254

> <Idih>
0.000

> <Tether>
0.000

$$$$
VeraChem MOL file


 25 25  0  0  0  0  0  0  0  0999 V2000     
   21.8685   19.8245   21.9418 C   0  0  0  0  0  0  0  0  0  0  0  0
   22.7523   20.2551   21.4514 H   0  0  0  0  0  0  0  0  0  0  0  0
   22.2651   19.3488   22.8459 H   0  0  0  0  0  0  0  0  0  0  0  0
   21.2843   18.7630   20.9736 C   0  0  0  0  0  0  0  0  0  0  0  0
   21.3238   19.1798   19.9578 H   0  0  0  0  0  0  0  0  0  0  0  0
   21.9486   17.8883   20.9603 H   0  0  0  0  0  0  0  0  0  0  0  0
   19.8282   18.2976   21.2251 C   0  0  0  0  0  0  0  0  0  0  0  0
   19.5507   17.6292   20.3986 H   0  0  0  0  0  0  0  0  0  0  0  0
   19.1375   19.1443   21.1392 H   0  0  0  0  0  0  0  0  0  0  0  0
   19.5780   17.5260   22.5464 C   0  0  0  0  0  0  0  0  0  0  0  0
   18.5382   17.1724   22.5288 H   0  0  0  0  0  0  0  0  0  0  0  0
   20.2042   16.6245   22.5546 H   0  0  0  0  0  0  0  0  0  0  0  0
   19.8037   18.2982   23.8695 C   0  0  0  0  0  0  0  0  0  0  0  0
   20.8790   18.3573   24.0749 H   0  0  0  0  0  0  0  0  0  0  0  0
   19.2073   19.7293   23.8924 C   0  0  0  0  0  0  0  0  0  0  0  0
   18.3999   19.8275   23.1572 H   0  0  0  0  0  0  0  0  0  0  0  0
   18.7270   19.8893   24.8671 H   0  0  0  0  0  0  0  0  0  0  0  0
   20.2493   20.8652   23.7106 C   0  0  0  0  0  0  0  0  0  0  0  0
   21.0311   20.7661   24.4760 H   0  0  0  0  0  0  0  0  0  0  0  0
   19.7459   21.8176   23.9256 H   0  0  0  0  0  0  0  0  0  0  0  0
   20.9104   20.9865   22.3124 C   0  0  0  0  0  0  0  0  0  0  0  0
   21.5012   21.9127   22.3168 H   0  0  0  0  0  0  0  0  0  0  0  0
   20.1509   21.1363   21.5344 H   0  0  0  0  0  0  0  0  0  0  0  0
   19.2010   17.5407   24.9129 O   0  0  0  0  0  0  0  0  0  0  0  0
   19.6274   16.6584   24.9037 H   0  0  0  0  0  0  0  0  0  0  0  0
  1  2  1  0  0  0  0
  1  3  1  0  0  0  0
  1  4  1  0  0  0  0
  4  5  1  0  0  0  0
  4  6  1  0  0  0  0
  4  7  1  0  0  0  0
  7  8  1  0  0  0  0
  7  9  1  0  0  0  0
  7 10  1  0  0  0  0
 10 11  1  0  0  0  0
 10 12  1  0  0  0  0
 10 13  1  0  0  0  0
 13 14  1  0  0  0  0
 13 15  1  0  0  0  0
 15 16  1  0  0  0  0
 15 17  1  0  0  0  0
 15 18  1  0  0  0  0
 18 19  1  0  0  0  0
 18 20  1  0  0  0  0
  1 21  1  0  0  0  0
 18 21  1  0  0  0  0
 21 22  1  0  0  0  0
 21 23  1  0  0  0  0
 13 24  1  0  0  0  0
 24 25  1  0  0  0  0
M  END
> <VConfSearch Rank>
413

> <Conf_Id>
133

> <Delta U+W>
-2.139

> <U+W>
8.774

> <U>
10.905

> <W>
-2.131

> <W(PB)>
-4.281

> <W(SA)>
2.150

> <Valence>
16.378

> <Coulomb>
-8.448

> <VdW>
2.976

> <VdW6>
-12.570

> <VdW12>
15.545

> <Bond>
0.439

> <Angle>
5.049

> <Pdih>
10.889

> <Idih>
0.000

> <Tether>
0.000

$$$$
VeraChem MOL file


 25 25  0  0  0  0  0  0  0  0999 V2000     
   19.5927   19.7977   24.2612 C   0  0  0  0  0  0  0  0  0  0  0  0
   19.2413   20.0876   25.2610 H   0  0  0  0  0  0  0  0  0  0  0  0
   18.8130   20.1631   23.5834 H   0  0  0  0  0  0  0  0  0  0  0  0
   19.6771   18.2499   24.2113 C   0  0  0  0  0  0  0  0  0  0  0  0
   20.6916   17.9014   24.4437 H   0  0  0  0  0  0  0  0  0  0  0  0
   19.0480   17.8587   25.0226 H   0  0  0  0  0  0  0  0  0  0  0  0
   19.1644   17.6114   22.8936 C   0  0  0  0  0  0  0  0  0  0  0  0
   18.1312   17.9361   22.7092 H   0  0  0  0  0  0  0  0  0  0  0  0
   19.1084   16.5253   23.0485 H   0  0  0  0  0  0  0  0  0  0  0  0
   20.0155   17.8632   21.6203 C   0  0  0  0  0  0  0  0  0  0  0  0
   21.0448   17.5169   21.7717 H   0  0  0  0  0  0  0  0  0  0  0  0
   19.6095   17.2156   20.8314 H   0  0  0  0  0  0  0  0  0  0  0  0
   19.9950   19.3274   21.1106 C   0  0  0  0  0  0  0  0  0  0  0  0
   19.1206   19.8382   21.5305 H   0  0  0  0  0  0  0  0  0  0  0  0
   21.2697   20.1430   21.4391 C   0  0  0  0  0  0  0  0  0  0  0  0
   22.0627   19.8346   20.7445 H   0  0  0  0  0  0  0  0  0  0  0  0
   21.0743   21.2016   21.2248 H   0  0  0  0  0  0  0  0  0  0  0  0
   21.8380   20.0196   22.8764 C   0  0  0  0  0  0  0  0  0  0  0  0
   22.7717   20.5974   22.9094 H   0  0  0  0  0  0  0  0  0  0  0  0
   22.1447   18.9872   23.0797 H   0  0  0  0  0  0  0  0  0  0  0  0
   20.9290   20.5456   24.0155 C   0  0  0  0  0  0  0  0  0  0  0  0
   20.7166   21.6103   23.8491 H   0  0  0  0  0  0  0  0  0  0  0  0
   21.5120   20.5021   24.9457 H   0  0  0  0  0  0  0  0  0  0  0  0
   19.8529   19.3111   19.6946 O   0  0  0  0  0  0  0  0  0  0  0  0
   19.7977   20.2459   19.4057 H   0  0  0  0  0  0  0  0  0  0  0  0
  1  2  1  0  0  0  0
  1  3  1  0  0  0  0
  1  4  1  0  0  0  0
  4  5  1  0  0  0  0
  4  6  1  0  0  0  0
  4  7  1  0  0  0  0
  7  8  1  0  0  0  0
  7  9  1  0  0  0  0
  7 10  1  0  0  0  0
 10 11  1  0  0  0  0
 10 12  1  0  0  0  0
 10 13  1  0  0  0  0
 13 14  1  0  0  0  0
 13 15  1  0  0  0  0
 15 16  1  0  0  0  0
 15 17  1  0  0  0  0
 15 18  1  0  0  0  0
 18 19  1  0  0  0  0
 18 20  1  0  0  0  0
  1 21  1  0  0  0  0
 18 21  1  0  0  0  0
 21 22  1  0  0  0  0
 21 23  1  0  0  0  0
 13 24  1  0  0  0  0
 24 25  1  0  0  0  0
M  END
> <VConfSearch Rank>
414

> <Conf_Id>
95

> <Delta U+W>
-2.190

> <U+W>
8.723

> <U>
10.905

> <W>
-2.182

> <W(PB)>
-4.296

> <W(SA)>
2.114

> <Valence>
16.377

> <Coulomb>
-8.448

> <VdW>
2.976

> <VdW6>
-12.570

> <VdW12>
15.546

> <Bond>
0.439

> <Angle>
5.049

> <Pdih>
10.889

> <Idih>
0.000

> <Tether>
0.000

$$$$
VeraChem MOL file


 25 25  0  0  0  0  0  0  0  0999 V2000     
   20.2747   20.5491   23.8607 C   0  0  0  0  0  0  0  0  0  0  0  0
   20.2926   21.2952   24.6669 H   0  0  0  0  0  0  0  0  0  0  0  0
   19.6910   21.0387   23.0746 H   0  0  0  0  0  0  0  0  0  0  0  0
   19.5277   19.2997   24.4132 C   0  0  0  0  0  0  0  0  0  0  0  0
   19.7786   19.2127   25.4793 H   0  0  0  0  0  0  0  0  0  0  0  0
   18.4461   19.4886   24.3826 H   0  0  0  0  0  0  0  0  0  0  0  0
   19.8257   17.9216   23.7662 C   0  0  0  0  0  0  0  0  0  0  0  0
   19.3051   17.1568   24.3585 H   0  0  0  0  0  0  0  0  0  0  0  0
   20.8834   17.6776   23.9064 H   0  0  0  0  0  0  0  0  0  0  0  0
   19.4017   17.7193   22.2810 C   0  0  0  0  0  0  0  0  0  0  0  0
   19.9777   16.8858   21.8580 H   0  0  0  0  0  0  0  0  0  0  0  0
   18.3563   17.3842   22.2883 H   0  0  0  0  0  0  0  0  0  0  0  0
   19.4882   18.9332   21.3214 C   0  0  0  0  0  0  0  0  0  0  0  0
   18.8718   19.7377   21.7357 H   0  0  0  0  0  0  0  0  0  0  0  0
   20.9097   19.4790   21.0016 C   0  0  0  0  0  0  0  0  0  0  0  0
   21.3147   18.8962   20.1634 H   0  0  0  0  0  0  0  0  0  0  0  0
   20.8082   20.5050   20.6257 H   0  0  0  0  0  0  0  0  0  0  0  0
   21.9815   19.4575   22.1249 C   0  0  0  0  0  0  0  0  0  0  0  0
   22.9340   19.7770   21.6805 H   0  0  0  0  0  0  0  0  0  0  0  0
   22.1730   18.4216   22.4222 H   0  0  0  0  0  0  0  0  0  0  0  0
   21.7346   20.3552   23.3725 C   0  0  0  0  0  0  0  0  0  0  0  0
   22.1303   21.3538   23.1422 H   0  0  0  0  0  0  0  0  0  0  0  0
   22.3472   19.9830   24.2047 H   0  0  0  0  0  0  0  0  0  0  0  0
   18.8981   18.5422   20.0872 O   0  0  0  0  0  0  0  0  0  0  0  0
   17.9812   18.2613   20.2884 H   0  0  0  0  0  0  0  0  0  0  0  0
  1  2  1  0  0  0  0
  1  3  1  0  0  0  0
  1  4  1  0  0  0  0
  4  5  1  0  0  0  0
  4  6  1  0  0  0  0
  4  7  1  0  0  0  0
  7  8  1  0  0  0  0
  7  9  1  0  0  0  0
  7 10  1  0  0  0  0
 10 11  1  0  0  0  0
 10 12  1  0  0  0  0
 10 13  1  0  0  0  0
 13 14  1  0  0  0  0
 13 15  1  0  0  0  0
 15 16  1  0  0  0  0
 15 17  1  0  0  0  0
 15 18  1  0  0  0  0
 18 19  1  0  0  0  0
 18 20  1  0  0  0  0
  1 21  1  0  0  0  0
 18 21  1  0  0  0  0
 21 22  1  0  0  0  0
 21 23  1  0  0  0  0
 13 24  1  0  0  0  0
 24 25  1  0  0  0  0
M  END
> <VConfSearch Rank>
415

> <Conf_Id>
161

> <Delta U+W>
2.120

> <U+W>
13.033

> <U>
15.076

> <W>
-2.043

> <W(PB)>
-4.186

> <W(SA)>
2.143

> <Valence>
18.884

> <Coulomb>
-8.074

> <VdW>
4.266

> <VdW6>
-13.486

> <VdW12>
17.752

> <Bond>
0.713

> <Angle>
8.955

> <Pdih>
9.215

> <Idih>
0.000

> <Tether>
0.000

$$$$
VeraChem MOL file


 25 25  0  0  0  0  0  0  0  0999 V2000     
   21.9346   19.7627   23.6214 C   0  0  0  0  0  0  0  0  0  0  0  0
   22.8621   19.8105   24.2083 H   0  0  0  0  0  0  0  0  0  0  0  0
   21.5783   20.7997   23.5770 H   0  0  0  0  0  0  0  0  0  0  0  0
   20.9203   18.8883   24.4001 C   0  0  0  0  0  0  0  0  0  0  0  0
   21.0557   17.8254   24.1593 H   0  0  0  0  0  0  0  0  0  0  0  0
   21.1737   18.9792   25.4653 H   0  0  0  0  0  0  0  0  0  0  0  0
   19.4324   19.3127   24.2542 C   0  0  0  0  0  0  0  0  0  0  0  0
   19.3338   20.4060   24.2174 H   0  0  0  0  0  0  0  0  0  0  0  0
   18.9232   19.0065   25.1784 H   0  0  0  0  0  0  0  0  0  0  0  0
   18.6666   18.6505   23.0796 C   0  0  0  0  0  0  0  0  0  0  0  0
   19.0325   17.6280   22.9262 H   0  0  0  0  0  0  0  0  0  0  0  0
   17.6195   18.5327   23.3885 H   0  0  0  0  0  0  0  0  0  0  0  0
   18.6457   19.4379   21.7449 C   0  0  0  0  0  0  0  0  0  0  0  0
   18.0094   20.3234   21.8855 H   0  0  0  0  0  0  0  0  0  0  0  0
   20.0124   19.9292   21.2143 C   0  0  0  0  0  0  0  0  0  0  0  0
   19.8801   20.2575   20.1747 H   0  0  0  0  0  0  0  0  0  0  0  0
   20.2972   20.8392   21.7534 H   0  0  0  0  0  0  0  0  0  0  0  0
   21.1510   18.8755   21.2655 C   0  0  0  0  0  0  0  0  0  0  0  0
   21.5557   18.7432   20.2529 H   0  0  0  0  0  0  0  0  0  0  0  0
   20.7665   17.8884   21.5462 H   0  0  0  0  0  0  0  0  0  0  0  0
   22.3193   19.2558   22.2063 C   0  0  0  0  0  0  0  0  0  0  0  0
   22.9268   20.0306   21.7190 H   0  0  0  0  0  0  0  0  0  0  0  0
   22.9767   18.3817   22.3089 H   0  0  0  0  0  0  0  0  0  0  0  0
   18.0590   18.6056   20.7542 O   0  0  0  0  0  0  0  0  0  0  0  0
   18.7203   17.9099   20.5629 H   0  0  0  0  0  0  0  0  0  0  0  0
  1  2  1  0  0  0  0
  1  3  1  0  0  0  0
  1  4  1  0  0  0  0
  4  5  1  0  0  0  0
  4  6  1  0  0  0  0
  4  7  1  0  0  0  0
  7  8  1  0  0  0  0
  7  9  1  0  0  0  0
  7 10  1  0  0  0  0
 10 11  1  0  0  0  0
 10 12  1  0  0  0  0
 10 13  1  0  0  0  0
 13 14  1  0  0  0  0
 13 15  1  0  0  0  0
 15 16  1  0  0  0  0
 15 17  1  0  0  0  0
 15 18  1  0  0  0  0
 18 19  1  0  0  0  0
 18 20  1  0  0  0  0
  1 21  1  0  0  0  0
 18 21  1  0  0  0  0
 21 22  1  0  0  0  0
 21 23  1  0  0  0  0
 13 24  1  0  0  0  0
 24 25  1  0  0  0  0
M  END
> <VConfSearch Rank>
416

> <Conf_Id>
164

> <Delta U+W>
0.008

> <U+W>
10.922

> <U>
12.433

> <W>
-1.511

> <W(PB)>
-3.669

> <W(SA)>
2.157

> <Valence>
19.007

> <Coulomb>
-9.373

> <VdW>
2.799

> <VdW6>
-12.597

> <VdW12>
15.396

> <Bond>
0.425

> <Angle>
4.784

> <Pdih>
13.799

> <Idih>
0.000

> <Tether>
0.000

$$$$
VeraChem MOL file


 25 25  0  0  0  0  0  0  0  0999 V2000     
   22.0791   18.8156   22.4690 C   0  0  0  0  0  0  0  0  0  0  0  0
   21.7397   18.2443   23.3404 H   0  0  0  0  0  0  0  0  0  0  0  0
   23.1458   18.5700   22.3761 H   0  0  0  0  0  0  0  0  0  0  0  0
   21.9799   20.3362   22.7474 C   0  0  0  0  0  0  0  0  0  0  0  0
   22.6184   20.5541   23.6144 H   0  0  0  0  0  0  0  0  0  0  0  0
   22.4219   20.8885   21.9070 H   0  0  0  0  0  0  0  0  0  0  0  0
   20.5704   20.9106   23.0409 C   0  0  0  0  0  0  0  0  0  0  0  0
   20.0355   21.1146   22.1064 H   0  0  0  0  0  0  0  0  0  0  0  0
   20.7124   21.8997   23.4976 H   0  0  0  0  0  0  0  0  0  0  0  0
   19.6928   20.0576   23.9954 C   0  0  0  0  0  0  0  0  0  0  0  0
   20.3149   19.4287   24.6438 H   0  0  0  0  0  0  0  0  0  0  0  0
   19.1775   20.7520   24.6725 H   0  0  0  0  0  0  0  0  0  0  0  0
   18.5987   19.2134   23.2950 C   0  0  0  0  0  0  0  0  0  0  0  0
   18.0067   19.8831   22.6549 H   0  0  0  0  0  0  0  0  0  0  0  0
   19.0888   18.0261   22.4284 C   0  0  0  0  0  0  0  0  0  0  0  0
   19.6909   17.3305   23.0253 H   0  0  0  0  0  0  0  0  0  0  0  0
   18.1977   17.4572   22.1310 H   0  0  0  0  0  0  0  0  0  0  0  0
   19.8329   18.4304   21.1278 C   0  0  0  0  0  0  0  0  0  0  0  0
   19.5368   19.4374   20.8127 H   0  0  0  0  0  0  0  0  0  0  0  0
   19.4861   17.7757   20.3166 H   0  0  0  0  0  0  0  0  0  0  0  0
   21.3773   18.3095   21.1841 C   0  0  0  0  0  0  0  0  0  0  0  0
   21.8067   18.8196   20.3112 H   0  0  0  0  0  0  0  0  0  0  0  0
   21.6355   17.2484   21.0645 H   0  0  0  0  0  0  0  0  0  0  0  0
   17.7482   18.6875   24.3046 O   0  0  0  0  0  0  0  0  0  0  0  0
   18.3040   18.0982   24.8546 H   0  0  0  0  0  0  0  0  0  0  0  0
  1  2  1  0  0  0  0
  1  3  1  0  0  0  0
  1  4  1  0  0  0  0
  4  5  1  0  0  0  0
  4  6  1  0  0  0  0
  4  7  1  0  0  0  0
  7  8  1  0  0  0  0
  7  9  1  0  0  0  0
  7 10  1  0  0  0  0
 10 11  1  0  0  0  0
 10 12  1  0  0  0  0
 10 13  1  0  0  0  0
 13 14  1  0  0  0  0
 13 15  1  0  0  0  0
 15 16  1  0  0  0  0
 15 17  1  0  0  0  0
 15 18  1  0  0  0  0
 18 19  1  0  0  0  0
 18 20  1  0  0  0  0
  1 21  1  0  0  0  0
 18 21  1  0  0  0  0
 21 22  1  0  0  0  0
 21 23  1  0  0  0  0
 13 24  1  0  0  0  0
 24 25  1  0  0  0  0
M  END
> <VConfSearch Rank>
417

> <Conf_Id>
15

> <Delta U+W>
-1.271

> <U+W>
9.643

> <U>
11.413

> <W>
-1.770

> <W(PB)>
-3.908

> <W(SA)>
2.138

> <Valence>
17.496

> <Coulomb>
-8.736

> <VdW>
2.653

> <VdW6>
-12.485

> <VdW12>
15.138

> <Bond>
0.414

> <Angle>
5.295

> <Pdih>
11.787

> <Idih>
0.000

> <Tether>
0.000

$$$$
VeraChem MOL file


 25 25  0  0  0  0  0  0  0  0999 V2000     
   19.6529   17.5097   23.1624 C   0  0  0  0  0  0  0  0  0  0  0  0
   19.1061   16.6339   23.5378 H   0  0  0  0  0  0  0  0  0  0  0  0
   20.7074   17.2063   23.1723 H   0  0  0  0  0  0  0  0  0  0  0  0
   19.1686   17.7576   21.7096 C   0  0  0  0  0  0  0  0  0  0  0  0
   19.5022   16.9137   21.0904 H   0  0  0  0  0  0  0  0  0  0  0  0
   18.0707   17.7259   21.6907 H   0  0  0  0  0  0  0  0  0  0  0  0
   19.6275   19.0754   21.0401 C   0  0  0  0  0  0  0  0  0  0  0  0
   19.0124   19.9060   21.4055 H   0  0  0  0  0  0  0  0  0  0  0  0
   19.4010   19.0095   19.9672 H   0  0  0  0  0  0  0  0  0  0  0  0
   21.1382   19.3815   21.2126 C   0  0  0  0  0  0  0  0  0  0  0  0
   21.6635   18.5249   21.6491 H   0  0  0  0  0  0  0  0  0  0  0  0
   21.5826   19.5073   20.2166 H   0  0  0  0  0  0  0  0  0  0  0  0
   21.4444   20.6612   22.0243 C   0  0  0  0  0  0  0  0  0  0  0  0
   21.2084   21.5244   21.3855 H   0  0  0  0  0  0  0  0  0  0  0  0
   20.6598   20.8461   23.3490 C   0  0  0  0  0  0  0  0  0  0  0  0
   21.1130   21.6980   23.8736 H   0  0  0  0  0  0  0  0  0  0  0  0
   19.6344   21.1708   23.1354 H   0  0  0  0  0  0  0  0  0  0  0  0
   20.6345   19.6401   24.3257 C   0  0  0  0  0  0  0  0  0  0  0  0
   20.5671   20.0562   25.3403 H   0  0  0  0  0  0  0  0  0  0  0  0
   21.5843   19.0903   24.3021 H   0  0  0  0  0  0  0  0  0  0  0  0
   19.4282   18.6757   24.1567 C   0  0  0  0  0  0  0  0  0  0  0  0
   18.5103   19.2266   23.9115 H   0  0  0  0  0  0  0  0  0  0  0  0
   19.2418   18.2240   25.1407 H   0  0  0  0  0  0  0  0  0  0  0  0
   22.8343   20.6782   22.3179 O   0  0  0  0  0  0  0  0  0  0  0  0
   22.9811   19.9551   22.9604 H   0  0  0  0  0  0  0  0  0  0  0  0
  1  2  1  0  0  0  0
  1  3  1  0  0  0  0
  1  4  1  0  0  0  0
  4  5  1  0  0  0  0
  4  6  1  0  0  0  0
  4  7  1  0  0  0  0
  7  8  1  0  0  0  0
  7  9  1  0  0  0  0
  7 10  1  0  0  0  0
 10 11  1  0  0  0  0
 10 12  1  0  0  0  0
 10 13  1  0  0  0  0
 13 14  1  0  0  0  0
 13 15  1  0  0  0  0
 15 16  1  0  0  0  0
 15 17  1  0  0  0  0
 15 18  1  0  0  0  0
 18 19  1  0  0  0  0
 18 20  1  0  0  0  0
  1 21  1  0  0  0  0
 18 21  1  0  0  0  0
 21 22  1  0  0  0  0
 21 23  1  0  0  0  0
 13 24  1  0  0  0  0
 24 25  1  0  0  0  0
M  END
> <VConfSearch Rank>
418

> <Conf_Id>
115

> <Delta U+W>
0.038

> <U+W>
10.952

> <U>
12.526

> <W>
-1.575

> <W(PB)>
-3.698

> <W(SA)>
2.123

> <Valence>
19.016

> <Coulomb>
-9.226

> <VdW>
2.737

> <VdW6>
-12.612

> <VdW12>
15.349

> <Bond>
0.421

> <Angle>
4.883

> <Pdih>
13.711

> <Idih>
0.000

> <Tether>
0.000

$$$$
VeraChem MOL file


 25 25  0  0  0  0  0  0  0  0999 V2000     
   18.7593   19.8781   23.9703 C   0  0  0  0  0  0  0  0  0  0  0  0
   18.3185   20.0688   24.9584 H   0  0  0  0  0  0  0  0  0  0  0  0
   18.0857   20.3611   23.2496 H   0  0  0  0  0  0  0  0  0  0  0  0
   18.7593   18.3469   23.7536 C   0  0  0  0  0  0  0  0  0  0  0  0
   19.3347   17.8535   24.5486 H   0  0  0  0  0  0  0  0  0  0  0  0
   17.7251   17.9977   23.8781 H   0  0  0  0  0  0  0  0  0  0  0  0
   19.2558   17.8793   22.3659 C   0  0  0  0  0  0  0  0  0  0  0  0
   18.8560   18.5317   21.5782 H   0  0  0  0  0  0  0  0  0  0  0  0
   18.8165   16.8903   22.1759 H   0  0  0  0  0  0  0  0  0  0  0  0
   20.7973   17.7336   22.2546 C   0  0  0  0  0  0  0  0  0  0  0  0
   21.2725   17.7570   23.2433 H   0  0  0  0  0  0  0  0  0  0  0  0
   21.0034   16.7314   21.8551 H   0  0  0  0  0  0  0  0  0  0  0  0
   21.4706   18.7642   21.3206 C   0  0  0  0  0  0  0  0  0  0  0  0
   20.8021   18.9647   20.4712 H   0  0  0  0  0  0  0  0  0  0  0  0
   21.8380   20.1035   21.9971 C   0  0  0  0  0  0  0  0  0  0  0  0
   22.5547   19.9282   22.8102 H   0  0  0  0  0  0  0  0  0  0  0  0
   22.3706   20.7137   21.2559 H   0  0  0  0  0  0  0  0  0  0  0  0
   20.6401   20.9373   22.5136 C   0  0  0  0  0  0  0  0  0  0  0  0
   19.8169   20.9151   21.7871 H   0  0  0  0  0  0  0  0  0  0  0  0
   20.9649   21.9862   22.5529 H   0  0  0  0  0  0  0  0  0  0  0  0
   20.1521   20.5500   23.9341 C   0  0  0  0  0  0  0  0  0  0  0  0
   20.0829   21.4761   24.5212 H   0  0  0  0  0  0  0  0  0  0  0  0
   20.8909   19.9291   24.4581 H   0  0  0  0  0  0  0  0  0  0  0  0
   22.6752   18.1902   20.8274 O   0  0  0  0  0  0  0  0  0  0  0  0
   23.0589   18.8350   20.1971 H   0  0  0  0  0  0  0  0  0  0  0  0
  1  2  1  0  0  0  0
  1  3  1  0  0  0  0
  1  4  1  0  0  0  0
  4  5  1  0  0  0  0
  4  6  1  0  0  0  0
  4  7  1  0  0  0  0
  7  8  1  0  0  0  0
  7  9  1  0  0  0  0
  7 10  1  0  0  0  0
 10 11  1  0  0  0  0
 10 12  1  0  0  0  0
 10 13  1  0  0  0  0
 13 14  1  0  0  0  0
 13 15  1  0  0  0  0
 15 16  1  0  0  0  0
 15 17  1  0  0  0  0
 15 18  1  0  0  0  0
 18 19  1  0  0  0  0
 18 20  1  0  0  0  0
  1 21  1  0  0  0  0
 18 21  1  0  0  0  0
 21 22  1  0  0  0  0
 21 23  1  0  0  0  0
 13 24  1  0  0  0  0
 24 25  1  0  0  0  0
M  END
> <VConfSearch Rank>
419

> <Conf_Id>
30

> <Delta U+W>
0.000

> <U+W>
10.913

> <U>
13.140

> <W>
-2.227

> <W(PB)>
-4.367

> <W(SA)>
2.140

> <Valence>
19.155

> <Coulomb>
-8.157

> <VdW>
2.142

> <VdW6>
-11.576

> <VdW12>
13.718

> <Bond>
0.294

> <Angle>
3.547

> <Pdih>
15.314

> <Idih>
0.000

> <Tether>
0.000

$$$$
VeraChem MOL file


 25 25  0  0  0  0  0  0  0  0999 V2000     
   18.9143   17.9759   23.6761 C   0  0  0  0  0  0  0  0  0  0  0  0
   18.7215   17.7798   24.7398 H   0  0  0  0  0  0  0  0  0  0  0  0
   18.2508   17.2962   23.1242 H   0  0  0  0  0  0  0  0  0  0  0  0
   20.3793   17.5843   23.3623 C   0  0  0  0  0  0  0  0  0  0  0  0
   20.5847   16.6226   23.8519 H   0  0  0  0  0  0  0  0  0  0  0  0
   20.4836   17.3773   22.2910 H   0  0  0  0  0  0  0  0  0  0  0  0
   21.4339   18.6162   23.8367 C   0  0  0  0  0  0  0  0  0  0  0  0
   22.1561   18.1076   24.4898 H   0  0  0  0  0  0  0  0  0  0  0  0
   20.9757   19.3839   24.4709 H   0  0  0  0  0  0  0  0  0  0  0  0
   22.2205   19.2912   22.6847 C   0  0  0  0  0  0  0  0  0  0  0  0
   22.7969   20.1275   23.1020 H   0  0  0  0  0  0  0  0  0  0  0  0
   22.9607   18.5756   22.3037 H   0  0  0  0  0  0  0  0  0  0  0  0
   21.3942   19.8000   21.4771 C   0  0  0  0  0  0  0  0  0  0  0  0
   21.0249   18.9395   20.9035 H   0  0  0  0  0  0  0  0  0  0  0  0
   20.1920   20.7065   21.8382 C   0  0  0  0  0  0  0  0  0  0  0  0
   20.4084   21.2831   22.7467 H   0  0  0  0  0  0  0  0  0  0  0  0
   20.0763   21.4534   21.0415 H   0  0  0  0  0  0  0  0  0  0  0  0
   18.8286   19.9692   21.9612 C   0  0  0  0  0  0  0  0  0  0  0  0
   18.7408   19.1681   21.2149 H   0  0  0  0  0  0  0  0  0  0  0  0
   18.0478   20.6970   21.7004 H   0  0  0  0  0  0  0  0  0  0  0  0
   18.4939   19.4397   23.3777 C   0  0  0  0  0  0  0  0  0  0  0  0
   17.4043   19.4920   23.5084 H   0  0  0  0  0  0  0  0  0  0  0  0
   18.8986   20.1203   24.1375 H   0  0  0  0  0  0  0  0  0  0  0  0
   22.2796   20.5389   20.6438 O   0  0  0  0  0  0  0  0  0  0  0  0
   21.7715   20.7894   19.8440 H   0  0  0  0  0  0  0  0  0  0  0  0
  1  2  1  0  0  0  0
  1  3  1  0  0  0  0
  1  4  1  0  0  0  0
  4  5  1  0  0  0  0
  4  6  1  0  0  0  0
  4  7  1  0  0  0  0
  7  8  1  0  0  0  0
  7  9  1  0  0  0  0
  7 10  1  0  0  0  0
 10 11  1  0  0  0  0
 10 12  1  0  0  0  0
 10 13  1  0  0  0  0
 13 14  1  0  0  0  0
 13 15  1  0  0  0  0
 15 16  1  0  0  0  0
 15 17  1  0  0  0  0
 15 18  1  0  0  0  0
 18 19  1  0  0  0  0
 18 20  1  0  0  0  0
  1 21  1  0  0  0  0
 18 21  1  0  0  0  0
 21 22  1  0  0  0  0
 21 23  1  0  0  0  0
 13 24  1  0  0  0  0
 24 25  1  0  0  0  0
M  END
> <VConfSearch Rank>
420

> <Conf_Id>
162

> <Delta U+W>
0.219

> <U+W>
11.132

> <U>
13.296

> <W>
-2.164

> <W(PB)>
-4.311

> <W(SA)>
2.148

> <Valence>
18.607

> <Coulomb>
-8.339

> <VdW>
3.028

> <VdW6>
-12.271

> <VdW12>
15.299

> <Bond>
0.423

> <Angle>
4.488

> <Pdih>
13.696

> <Idih>
0.000

> <Tether>
0.000

$$$$
VeraChem MOL file


 25 25  0  0  0  0  0  0  0  0999 V2000     
   19.7236   17.5012   21.8868 C   0  0  0  0  0  0  0  0  0  0  0  0
   20.5502   17.5800   21.1693 H   0  0  0  0  0  0  0  0  0  0  0  0
   19.2405   16.5427   21.6528 H   0  0  0  0  0  0  0  0  0  0  0  0
   20.2821   17.4155   23.3292 C   0  0  0  0  0  0  0  0  0  0  0  0
   19.5119   17.6904   24.0624 H   0  0  0  0  0  0  0  0  0  0  0  0
   20.5027   16.3567   23.5228 H   0  0  0  0  0  0  0  0  0  0  0  0
   21.5994   18.2022   23.5768 C   0  0  0  0  0  0  0  0  0  0  0  0
   22.2620   18.1519   22.7024 H   0  0  0  0  0  0  0  0  0  0  0  0
   22.1365   17.6770   24.3785 H   0  0  0  0  0  0  0  0  0  0  0  0
   21.4157   19.6688   24.0462 C   0  0  0  0  0  0  0  0  0  0  0  0
   20.5188   19.7519   24.6722 H   0  0  0  0  0  0  0  0  0  0  0  0
   22.2509   19.9138   24.7153 H   0  0  0  0  0  0  0  0  0  0  0  0
   21.4077   20.7505   22.9366 C   0  0  0  0  0  0  0  0  0  0  0  0
   22.4298   20.8328   22.5395 H   0  0  0  0  0  0  0  0  0  0  0  0
   20.4671   20.4929   21.7354 C   0  0  0  0  0  0  0  0  0  0  0  0
   20.3975   21.4138   21.1421 H   0  0  0  0  0  0  0  0  0  0  0  0
   20.9401   19.7701   21.0620 H   0  0  0  0  0  0  0  0  0  0  0  0
   19.0341   20.0372   22.1182 C   0  0  0  0  0  0  0  0  0  0  0  0
   18.3119   20.7425   21.6856 H   0  0  0  0  0  0  0  0  0  0  0  0
   18.8774   20.1066   23.2011 H   0  0  0  0  0  0  0  0  0  0  0  0
   18.6712   18.6130   21.6328 C   0  0  0  0  0  0  0  0  0  0  0  0
   18.4671   18.6499   20.5540 H   0  0  0  0  0  0  0  0  0  0  0  0
   17.7240   18.3199   22.1059 H   0  0  0  0  0  0  0  0  0  0  0  0
   21.0456   21.9878   23.5385 O   0  0  0  0  0  0  0  0  0  0  0  0
   21.0429   22.6582   22.8246 H   0  0  0  0  0  0  0  0  0  0  0  0
  1  2  1  0  0  0  0
  1  3  1  0  0  0  0
  1  4  1  0  0  0  0
  4  5  1  0  0  0  0
  4  6  1  0  0  0  0
  4  7  1  0  0  0  0
  7  8  1  0  0  0  0
  7  9  1  0  0  0  0
  7 10  1  0  0  0  0
 10 11  1  0  0  0  0
 10 12  1  0  0  0  0
 10 13  1  0  0  0  0
 13 14  1  0  0  0  0
 13 15  1  0  0  0  0
 15 16  1  0  0  0  0
 15 17  1  0  0  0  0
 15 18  1  0  0  0  0
 18 19  1  0  0  0  0
 18 20  1  0  0  0  0
  1 21  1  0  0  0  0
 18 21  1  0  0  0  0
 21 22  1  0  0  0  0
 21 23  1  0  0  0  0
 13 24  1  0  0  0  0
 24 25  1  0  0  0  0
M  END
> <VConfSearch Rank>
421

> <Conf_Id>
155

> <Delta U+W>
0.339

> <U+W>
11.252

> <U>
13.420

> <W>
-2.167

> <W(PB)>
-4.325

> <W(SA)>
2.157

> <Valence>
18.609

> <Coulomb>
-8.052

> <VdW>
2.863

> <VdW6>
-12.524

> <VdW12>
15.387

> <Bond>
0.430

> <Angle>
4.724

> <Pdih>
13.455

> <Idih>
0.000

> <Tether>
0.000

$$$$
VeraChem MOL file


 25 25  0  0  0  0  0  0  0  0999 V2000     
   19.6914   17.3265   22.6183 C   0  0  0  0  0  0  0  0  0  0  0  0
   19.6748   16.8209   23.5933 H   0  0  0  0  0  0  0  0  0  0  0  0
   19.3051   16.5899   21.9006 H   0  0  0  0  0  0  0  0  0  0  0  0
   18.6855   18.5074   22.6378 C   0  0  0  0  0  0  0  0  0  0  0  0
   18.6145   18.9384   21.6341 H   0  0  0  0  0  0  0  0  0  0  0  0
   17.6846   18.0879   22.8085 H   0  0  0  0  0  0  0  0  0  0  0  0
   18.9025   19.6205   23.7041 C   0  0  0  0  0  0  0  0  0  0  0  0
   18.4004   19.2957   24.6255 H   0  0  0  0  0  0  0  0  0  0  0  0
   18.3719   20.5278   23.3847 H   0  0  0  0  0  0  0  0  0  0  0  0
   20.3603   19.9928   24.0888 C   0  0  0  0  0  0  0  0  0  0  0  0
   20.3086   20.6811   24.9425 H   0  0  0  0  0  0  0  0  0  0  0  0
   20.8569   19.1136   24.5085 H   0  0  0  0  0  0  0  0  0  0  0  0
   21.2573   20.6513   22.9998 C   0  0  0  0  0  0  0  0  0  0  0  0
   22.3061   20.4645   23.2718 H   0  0  0  0  0  0  0  0  0  0  0  0
   21.0583   20.1973   21.5319 C   0  0  0  0  0  0  0  0  0  0  0  0
   20.0364   20.4327   21.2206 H   0  0  0  0  0  0  0  0  0  0  0  0
   21.6777   20.8464   20.8990 H   0  0  0  0  0  0  0  0  0  0  0  0
   21.4238   18.7268   21.1681 C   0  0  0  0  0  0  0  0  0  0  0  0
   22.4966   18.7033   20.9326 H   0  0  0  0  0  0  0  0  0  0  0  0
   20.9134   18.4547   20.2344 H   0  0  0  0  0  0  0  0  0  0  0  0
   21.1692   17.6239   22.2289 C   0  0  0  0  0  0  0  0  0  0  0  0
   21.7726   17.8292   23.1187 H   0  0  0  0  0  0  0  0  0  0  0  0
   21.5945   16.6878   21.8419 H   0  0  0  0  0  0  0  0  0  0  0  0
   21.0249   22.0553   23.0339 O   0  0  0  0  0  0  0  0  0  0  0  0
   21.2015   22.3491   23.9513 H   0  0  0  0  0  0  0  0  0  0  0  0
  1  2  1  0  0  0  0
  1  3  1  0  0  0  0
  1  4  1  0  0  0  0
  4  5  1  0  0  0  0
  4  6  1  0  0  0  0
  4  7  1  0  0  0  0
  7  8  1  0  0  0  0
  7  9  1  0  0  0  0
  7 10  1  0  0  0  0
 10 11  1  0  0  0  0
 10 12  1  0  0  0  0
 10 13  1  0  0  0  0
 13 14  1  0  0  0  0
 13 15  1  0  0  0  0
 15 16  1  0  0  0  0
 15 17  1  0  0  0  0
 15 18  1  0  0  0  0
 18 19  1  0  0  0  0
 18 20  1  0  0  0  0
  1 21  1  0  0  0  0
 18 21  1  0  0  0  0
 21 22  1  0  0  0  0
 21 23  1  0  0  0  0
 13 24  1  0  0  0  0
 24 25  1  0  0  0  0
M  END
> <VConfSearch Rank>
422

> <Conf_Id>
146

> <Delta U+W>
2.553

> <U+W>
13.466

> <U>
15.643

> <W>
-2.176

> <W(PB)>
-4.307

> <W(SA)>
2.131

> <Valence>
18.916

> <Coulomb>
-7.506

> <VdW>
4.232

> <VdW6>
-13.632

> <VdW12>
17.864

> <Bond>
0.735

> <Angle>
9.140

> <Pdih>
9.042

> <Idih>
0.000

> <Tether>
0.000

$$$$
VeraChem MOL file


 25 25  0  0  0  0  0  0  0  0999 V2000     
   20.1103   20.0143   24.5781 C   0  0  0  0  0  0  0  0  0  0  0  0
   19.1309   20.1957   25.0411 H   0  0  0  0  0  0  0  0  0  0  0  0
   20.8533   20.3179   25.3282 H   0  0  0  0  0  0  0  0  0  0  0  0
   20.2788   20.9504   23.3551 C   0  0  0  0  0  0  0  0  0  0  0  0
   20.2223   21.9832   23.7252 H   0  0  0  0  0  0  0  0  0  0  0  0
   21.2903   20.8605   22.9429 H   0  0  0  0  0  0  0  0  0  0  0  0
   19.2196   20.8054   22.2338 C   0  0  0  0  0  0  0  0  0  0  0  0
   19.4012   21.6047   21.5022 H   0  0  0  0  0  0  0  0  0  0  0  0
   18.2220   21.0027   22.6488 H   0  0  0  0  0  0  0  0  0  0  0  0
   19.1883   19.4581   21.4662 C   0  0  0  0  0  0  0  0  0  0  0  0
   18.6264   18.7098   22.0340 H   0  0  0  0  0  0  0  0  0  0  0  0
   18.5915   19.6179   20.5580 H   0  0  0  0  0  0  0  0  0  0  0  0
   20.5768   18.8954   21.0670 C   0  0  0  0  0  0  0  0  0  0  0  0
   21.3193   19.7046   21.0788 H   0  0  0  0  0  0  0  0  0  0  0  0
   21.0711   17.7322   21.9639 C   0  0  0  0  0  0  0  0  0  0  0  0
   20.3120   16.9390   21.9765 H   0  0  0  0  0  0  0  0  0  0  0  0
   21.9553   17.2890   21.4874 H   0  0  0  0  0  0  0  0  0  0  0  0
   21.4640   18.0893   23.4233 C   0  0  0  0  0  0  0  0  0  0  0  0
   22.2514   18.8539   23.4390 H   0  0  0  0  0  0  0  0  0  0  0  0
   21.9264   17.1931   23.8590 H   0  0  0  0  0  0  0  0  0  0  0  0
   20.2775   18.4917   24.3369 C   0  0  0  0  0  0  0  0  0  0  0  0
   20.4296   18.0247   25.3197 H   0  0  0  0  0  0  0  0  0  0  0  0
   19.3427   18.0538   23.9692 H   0  0  0  0  0  0  0  0  0  0  0  0
   20.4856   18.3953   19.7377 O   0  0  0  0  0  0  0  0  0  0  0  0
   21.3846   18.0993   19.4840 H   0  0  0  0  0  0  0  0  0  0  0  0
  1  2  1  0  0  0  0
  1  3  1  0  0  0  0
  1  4  1  0  0  0  0
  4  5  1  0  0  0  0
  4  6  1  0  0  0  0
  4  7  1  0  0  0  0
  7  8  1  0  0  0  0
  7  9  1  0  0  0  0
  7 10  1  0  0  0  0
 10 11  1  0  0  0  0
 10 12  1  0  0  0  0
 10 13  1  0  0  0  0
 13 14  1  0  0  0  0
 13 15  1  0  0  0  0
 15 16  1  0  0  0  0
 15 17  1  0  0  0  0
 15 18  1  0  0  0  0
 18 19  1  0  0  0  0
 18 20  1  0  0  0  0
  1 21  1  0  0  0  0
 18 21  1  0  0  0  0
 21 22  1  0  0  0  0
 21 23  1  0  0  0  0
 13 24  1  0  0  0  0
 24 25  1  0  0  0  0
M  END
> <VConfSearch Rank>
423

> <Conf_Id>
62

> <Delta U+W>
-1.779

> <U+W>
9.134

> <U>
11.364

> <W>
-2.230

> <W(PB)>
-4.359

> <W(SA)>
2.129

> <Valence>
16.582

> <Coulomb>
-8.150

> <VdW>
2.933

> <VdW6>
-12.531

> <VdW12>
15.464

> <Bond>
0.439

> <Angle>
5.099

> <Pdih>
11.044

> <Idih>
0.000

> <Tether>
0.000

$$$$
VeraChem MOL file


 25 25  0  0  0  0  0  0  0  0999 V2000     
   18.5082   19.0750   22.5421 C   0  0  0  0  0  0  0  0  0  0  0  0
   18.8116   19.5457   21.6000 H   0  0  0  0  0  0  0  0  0  0  0  0
   17.4129   19.0168   22.4820 H   0  0  0  0  0  0  0  0  0  0  0  0
   18.8550   19.9930   23.7408 C   0  0  0  0  0  0  0  0  0  0  0  0
   18.3139   20.9384   23.5982 H   0  0  0  0  0  0  0  0  0  0  0  0
   18.4493   19.5548   24.6627 H   0  0  0  0  0  0  0  0  0  0  0  0
   20.3514   20.3321   23.9612 C   0  0  0  0  0  0  0  0  0  0  0  0
   20.8502   19.5292   24.5156 H   0  0  0  0  0  0  0  0  0  0  0  0
   20.3909   21.1977   24.6367 H   0  0  0  0  0  0  0  0  0  0  0  0
   21.1480   20.6833   22.6761 C   0  0  0  0  0  0  0  0  0  0  0  0
   20.4806   21.0467   21.8851 H   0  0  0  0  0  0  0  0  0  0  0  0
   21.7977   21.5340   22.9199 H   0  0  0  0  0  0  0  0  0  0  0  0
   22.0563   19.5476   22.1408 C   0  0  0  0  0  0  0  0  0  0  0  0
   22.7023   19.2065   22.9626 H   0  0  0  0  0  0  0  0  0  0  0  0
   21.3357   18.3101   21.5498 C   0  0  0  0  0  0  0  0  0  0  0  0
   20.6759   18.6066   20.7255 H   0  0  0  0  0  0  0  0  0  0  0  0
   22.1081   17.6805   21.0885 H   0  0  0  0  0  0  0  0  0  0  0  0
   20.5810   17.4337   22.5851 C   0  0  0  0  0  0  0  0  0  0  0  0
   21.0065   17.5690   23.5859 H   0  0  0  0  0  0  0  0  0  0  0  0
   20.7726   16.3788   22.3457 H   0  0  0  0  0  0  0  0  0  0  0  0
   19.0428   17.6230   22.6171 C   0  0  0  0  0  0  0  0  0  0  0  0
   18.6420   17.1345   23.5156 H   0  0  0  0  0  0  0  0  0  0  0  0
   18.6192   17.0726   21.7659 H   0  0  0  0  0  0  0  0  0  0  0  0
   22.8742   20.0966   21.1150 O   0  0  0  0  0  0  0  0  0  0  0  0
   23.3760   20.8354   21.5179 H   0  0  0  0  0  0  0  0  0  0  0  0
  1  2  1  0  0  0  0
  1  3  1  0  0  0  0
  1  4  1  0  0  0  0
  4  5  1  0  0  0  0
  4  6  1  0  0  0  0
  4  7  1  0  0  0  0
  7  8  1  0  0  0  0
  7  9  1  0  0  0  0
  7 10  1  0  0  0  0
 10 11  1  0  0  0  0
 10 12  1  0  0  0  0
 10 13  1  0  0  0  0
 13 14  1  0  0  0  0
 13 15  1  0  0  0  0
 15 16  1  0  0  0  0
 15 17  1  0  0  0  0
 15 18  1  0  0  0  0
 18 19  1  0  0  0  0
 18 20  1  0  0  0  0
  1 21  1  0  0  0  0
 18 21  1  0  0  0  0
 21 22  1  0  0  0  0
 21 23  1  0  0  0  0
 13 24  1  0  0  0  0
 24 25  1  0  0  0  0
M  END
> <VConfSearch Rank>
424

> <Conf_Id>
121

> <Delta U+W>
-1.283

> <U+W>
9.630

> <U>
11.876

> <W>
-2.246

> <W(PB)>
-4.376

> <W(SA)>
2.130

> <Valence>
17.153

> <Coulomb>
-7.966

> <VdW>
2.689

> <VdW6>
-12.458

> <VdW12>
15.147

> <Bond>
0.421

> <Angle>
5.258

> <Pdih>
11.475

> <Idih>
0.000

> <Tether>
0.000

$$$$
VeraChem MOL file


 25 25  0  0  0  0  0  0  0  0999 V2000     
   21.1949   20.2560   21.3416 C   0  0  0  0  0  0  0  0  0  0  0  0
   20.8775   21.0034   22.0777 H   0  0  0  0  0  0  0  0  0  0  0  0
   21.7134   20.8352   20.5655 H   0  0  0  0  0  0  0  0  0  0  0  0
   19.9615   19.5959   20.6762 C   0  0  0  0  0  0  0  0  0  0  0  0
   19.3883   20.3928   20.1830 H   0  0  0  0  0  0  0  0  0  0  0  0
   20.2971   18.9293   19.8703 H   0  0  0  0  0  0  0  0  0  0  0  0
   18.9911   18.8180   21.6014 C   0  0  0  0  0  0  0  0  0  0  0  0
   19.3571   17.7996   21.7741 H   0  0  0  0  0  0  0  0  0  0  0  0
   18.0530   18.6821   21.0460 H   0  0  0  0  0  0  0  0  0  0  0  0
   18.6595   19.5130   22.9492 C   0  0  0  0  0  0  0  0  0  0  0  0
   18.8006   20.5985   22.8807 H   0  0  0  0  0  0  0  0  0  0  0  0
   17.5863   19.3731   23.1348 H   0  0  0  0  0  0  0  0  0  0  0  0
   19.4080   18.9446   24.1808 C   0  0  0  0  0  0  0  0  0  0  0  0
   19.2429   17.8579   24.2092 H   0  0  0  0  0  0  0  0  0  0  0  0
   20.9343   19.2057   24.2402 C   0  0  0  0  0  0  0  0  0  0  0  0
   21.1416   20.2823   24.2062 H   0  0  0  0  0  0  0  0  0  0  0  0
   21.2844   18.8748   25.2267 H   0  0  0  0  0  0  0  0  0  0  0  0
   21.7698   18.4424   23.1778 C   0  0  0  0  0  0  0  0  0  0  0  0
   21.2363   17.5468   22.8397 H   0  0  0  0  0  0  0  0  0  0  0  0
   22.6745   18.0550   23.6661 H   0  0  0  0  0  0  0  0  0  0  0  0
   22.2328   19.2901   21.9654 C   0  0  0  0  0  0  0  0  0  0  0  0
   22.6170   18.6178   21.1864 H   0  0  0  0  0  0  0  0  0  0  0  0
   23.0925   19.8940   22.2868 H   0  0  0  0  0  0  0  0  0  0  0  0
   18.8254   19.5254   25.3408 O   0  0  0  0  0  0  0  0  0  0  0  0
   19.2591   19.1087   26.1144 H   0  0  0  0  0  0  0  0  0  0  0  0
  1  2  1  0  0  0  0
  1  3  1  0  0  0  0
  1  4  1  0  0  0  0
  4  5  1  0  0  0  0
  4  6  1  0  0  0  0
  4  7  1  0  0  0  0
  7  8  1  0  0  0  0
  7  9  1  0  0  0  0
  7 10  1  0  0  0  0
 10 11  1  0  0  0  0
 10 12  1  0  0  0  0
 10 13  1  0  0  0  0
 13 14  1  0  0  0  0
 13 15  1  0  0  0  0
 15 16  1  0  0  0  0
 15 17  1  0  0  0  0
 15 18  1  0  0  0  0
 18 19  1  0  0  0  0
 18 20  1  0  0  0  0
  1 21  1  0  0  0  0
 18 21  1  0  0  0  0
 21 22  1  0  0  0  0
 21 23  1  0  0  0  0
 13 24  1  0  0  0  0
 24 25  1  0  0  0  0
M  END
> <VConfSearch Rank>
425

> <Conf_Id>
24

> <Delta U+W>
-1.236

> <U+W>
9.678

> <U>
11.876

> <W>
-2.199

> <W(PB)>
-4.335

> <W(SA)>
2.137

> <Valence>
17.153

> <Coulomb>
-7.966

> <VdW>
2.689

> <VdW6>
-12.458

> <VdW12>
15.147

> <Bond>
0.421

> <Angle>
5.258

> <Pdih>
11.475

> <Idih>
0.000

> <Tether>
0.000

$$$$
VeraChem MOL file


 25 25  0  0  0  0  0  0  0  0999 V2000     
   21.1376   18.0505   24.2442 C   0  0  0  0  0  0  0  0  0  0  0  0
   21.5207   18.5100   25.1656 H   0  0  0  0  0  0  0  0  0  0  0  0
   21.3669   16.9795   24.3289 H   0  0  0  0  0  0  0  0  0  0  0  0
   19.5940   18.2070   24.2098 C   0  0  0  0  0  0  0  0  0  0  0  0
   19.1494   17.4977   23.5002 H   0  0  0  0  0  0  0  0  0  0  0  0
   19.2188   17.8906   25.1927 H   0  0  0  0  0  0  0  0  0  0  0  0
   19.0616   19.6350   23.9343 C   0  0  0  0  0  0  0  0  0  0  0  0
   19.7222   20.3905   24.3807 H   0  0  0  0  0  0  0  0  0  0  0  0
   18.1078   19.7286   24.4716 H   0  0  0  0  0  0  0  0  0  0  0  0
   18.7710   19.9549   22.4406 C   0  0  0  0  0  0  0  0  0  0  0  0
   18.3713   19.0735   21.9231 H   0  0  0  0  0  0  0  0  0  0  0  0
   17.9594   20.6953   22.4311 H   0  0  0  0  0  0  0  0  0  0  0  0
   19.9645   20.5515   21.6552 C   0  0  0  0  0  0  0  0  0  0  0  0
   20.6056   21.0997   22.3582 H   0  0  0  0  0  0  0  0  0  0  0  0
   20.8230   19.5263   20.8719 C   0  0  0  0  0  0  0  0  0  0  0  0
   20.2586   19.1685   20.0008 H   0  0  0  0  0  0  0  0  0  0  0  0
   21.6934   20.0607   20.4689 H   0  0  0  0  0  0  0  0  0  0  0  0
   21.3302   18.2921   21.6593 C   0  0  0  0  0  0  0  0  0  0  0  0
   22.1003   17.7948   21.0540 H   0  0  0  0  0  0  0  0  0  0  0  0
   20.5249   17.5537   21.7482 H   0  0  0  0  0  0  0  0  0  0  0  0
   21.9306   18.6302   23.0473 C   0  0  0  0  0  0  0  0  0  0  0  0
   22.0486   19.7127   23.1736 H   0  0  0  0  0  0  0  0  0  0  0  0
   22.9534   18.2321   23.0939 H   0  0  0  0  0  0  0  0  0  0  0  0
   19.4562   21.4847   20.7104 O   0  0  0  0  0  0  0  0  0  0  0  0
   18.8729   20.9790   20.1079 H   0  0  0  0  0  0  0  0  0  0  0  0
  1  2  1  0  0  0  0
  1  3  1  0  0  0  0
  1  4  1  0  0  0  0
  4  5  1  0  0  0  0
  4  6  1  0  0  0  0
  4  7  1  0  0  0  0
  7  8  1  0  0  0  0
  7  9  1  0  0  0  0
  7 10  1  0  0  0  0
 10 11  1  0  0  0  0
 10 12  1  0  0  0  0
 10 13  1  0  0  0  0
 13 14  1  0  0  0  0
 13 15  1  0  0  0  0
 15 16  1  0  0  0  0
 15 17  1  0  0  0  0
 15 18  1  0  0  0  0
 18 19  1  0  0  0  0
 18 20  1  0  0  0  0
  1 21  1  0  0  0  0
 18 21  1  0  0  0  0
 21 22  1  0  0  0  0
 21 23  1  0  0  0  0
 13 24  1  0  0  0  0
 24 25  1  0  0  0  0
M  END
> <VConfSearch Rank>
426

> <Conf_Id>
167

> <Delta U+W>
0.388

> <U+W>
11.301

> <U>
13.202

> <W>
-1.901

> <W(PB)>
-4.065

> <W(SA)>
2.163

> <Valence>
18.957

> <Coulomb>
-8.753

> <VdW>
2.998

> <VdW6>
-12.294

> <VdW12>
15.292

> <Bond>
0.419

> <Angle>
4.543

> <Pdih>
13.996

> <Idih>
0.000

> <Tether>
0.000

$$$$
VeraChem MOL file


 25 25  0  0  0  0  0  0  0  0999 V2000     
   20.8565   18.2053   20.9546 C   0  0  0  0  0  0  0  0  0  0  0  0
   21.9126   18.0330   20.7066 H   0  0  0  0  0  0  0  0  0  0  0  0
   20.2815   17.7087   20.1611 H   0  0  0  0  0  0  0  0  0  0  0  0
   20.5622   19.7256   20.8693 C   0  0  0  0  0  0  0  0  0  0  0  0
   21.3895   20.3040   21.2956 H   0  0  0  0  0  0  0  0  0  0  0  0
   20.5626   19.9942   19.8040 H   0  0  0  0  0  0  0  0  0  0  0  0
   19.2103   20.1784   21.4795 C   0  0  0  0  0  0  0  0  0  0  0  0
   18.4815   19.3578   21.4767 H   0  0  0  0  0  0  0  0  0  0  0  0
   18.7859   20.9410   20.8122 H   0  0  0  0  0  0  0  0  0  0  0  0
   19.3137   20.8186   22.8907 C   0  0  0  0  0  0  0  0  0  0  0  0
   20.0166   21.6614   22.8586 H   0  0  0  0  0  0  0  0  0  0  0  0
   18.3354   21.2580   23.1264 H   0  0  0  0  0  0  0  0  0  0  0  0
   19.6993   19.8777   24.0593 C   0  0  0  0  0  0  0  0  0  0  0  0
   19.0152   19.0186   24.0694 H   0  0  0  0  0  0  0  0  0  0  0  0
   21.1671   19.3796   24.0131 C   0  0  0  0  0  0  0  0  0  0  0  0
   21.7767   20.0596   23.4096 H   0  0  0  0  0  0  0  0  0  0  0  0
   21.6062   19.4402   25.0178 H   0  0  0  0  0  0  0  0  0  0  0  0
   21.3484   17.9197   23.5226 C   0  0  0  0  0  0  0  0  0  0  0  0
   21.0807   17.2495   24.3509 H   0  0  0  0  0  0  0  0  0  0  0  0
   22.4140   17.7395   23.3264 H   0  0  0  0  0  0  0  0  0  0  0  0
   20.5205   17.4878   22.2861 C   0  0  0  0  0  0  0  0  0  0  0  0
   19.4473   17.5593   22.4968 H   0  0  0  0  0  0  0  0  0  0  0  0
   20.7006   16.4151   22.1324 H   0  0  0  0  0  0  0  0  0  0  0  0
   19.5141   20.6057   25.2675 O   0  0  0  0  0  0  0  0  0  0  0  0
   19.6937   19.9816   26.0016 H   0  0  0  0  0  0  0  0  0  0  0  0
  1  2  1  0  0  0  0
  1  3  1  0  0  0  0
  1  4  1  0  0  0  0
  4  5  1  0  0  0  0
  4  6  1  0  0  0  0
  4  7  1  0  0  0  0
  7  8  1  0  0  0  0
  7  9  1  0  0  0  0
  7 10  1  0  0  0  0
 10 11  1  0  0  0  0
 10 12  1  0  0  0  0
 10 13  1  0  0  0  0
 13 14  1  0  0  0  0
 13 15  1  0  0  0  0
 15 16  1  0  0  0  0
 15 17  1  0  0  0  0
 15 18  1  0  0  0  0
 18 19  1  0  0  0  0
 18 20  1  0  0  0  0
  1 21  1  0  0  0  0
 18 21  1  0  0  0  0
 21 22  1  0  0  0  0
 21 23  1  0  0  0  0
 13 24  1  0  0  0  0
 24 25  1  0  0  0  0
M  END
> <VConfSearch Rank>
427

> <Conf_Id>
60

> <Delta U+W>
-1.838

> <U+W>
9.075

> <U>
11.150

> <W>
-2.074

> <W(PB)>
-4.196

> <W(SA)>
2.121

> <Valence>
16.582

> <Coulomb>
-8.361

> <VdW>
2.928

> <VdW6>
-12.539

> <VdW12>
15.467

> <Bond>
0.441

> <Angle>
5.093

> <Pdih>
11.049

> <Idih>
0.000

> <Tether>
0.000

$$$$
VeraChem MOL file


 25 25  0  0  0  0  0  0  0  0999 V2000     
   18.4826   20.0393   22.2694 C   0  0  0  0  0  0  0  0  0  0  0  0
   18.1667   20.9670   22.7655 H   0  0  0  0  0  0  0  0  0  0  0  0
   17.6369   19.7402   21.6351 H   0  0  0  0  0  0  0  0  0  0  0  0
   18.6757   18.9304   23.3342 C   0  0  0  0  0  0  0  0  0  0  0  0
   17.7060   18.7812   23.8284 H   0  0  0  0  0  0  0  0  0  0  0  0
   18.8883   17.9705   22.8499 H   0  0  0  0  0  0  0  0  0  0  0  0
   19.7164   19.2230   24.4442 C   0  0  0  0  0  0  0  0  0  0  0  0
   19.6556   18.4080   25.1783 H   0  0  0  0  0  0  0  0  0  0  0  0
   19.4236   20.1332   24.9850 H   0  0  0  0  0  0  0  0  0  0  0  0
   21.1965   19.3555   24.0007 C   0  0  0  0  0  0  0  0  0  0  0  0
   21.3846   20.3593   23.6067 H   0  0  0  0  0  0  0  0  0  0  0  0
   21.8123   19.3000   24.9082 H   0  0  0  0  0  0  0  0  0  0  0  0
   21.6744   18.2856   22.9851 C   0  0  0  0  0  0  0  0  0  0  0  0
   21.0000   17.4193   23.0125 H   0  0  0  0  0  0  0  0  0  0  0  0
   21.7798   18.7996   21.5276 C   0  0  0  0  0  0  0  0  0  0  0  0
   22.4276   19.6856   21.5030 H   0  0  0  0  0  0  0  0  0  0  0  0
   22.3042   18.0331   20.9417 H   0  0  0  0  0  0  0  0  0  0  0  0
   20.4460   19.1147   20.7968 C   0  0  0  0  0  0  0  0  0  0  0  0
   19.7969   18.2299   20.7726 H   0  0  0  0  0  0  0  0  0  0  0  0
   20.6963   19.3154   19.7461 H   0  0  0  0  0  0  0  0  0  0  0  0
   19.6831   20.3513   21.3385 C   0  0  0  0  0  0  0  0  0  0  0  0
   19.2876   20.9111   20.4799 H   0  0  0  0  0  0  0  0  0  0  0  0
   20.3759   21.0492   21.8220 H   0  0  0  0  0  0  0  0  0  0  0  0
   22.9714   17.8498   23.3749 O   0  0  0  0  0  0  0  0  0  0  0  0
   22.8802   17.4636   24.2711 H   0  0  0  0  0  0  0  0  0  0  0  0
  1  2  1  0  0  0  0
  1  3  1  0  0  0  0
  1  4  1  0  0  0  0
  4  5  1  0  0  0  0
  4  6  1  0  0  0  0
  4  7  1  0  0  0  0
  7  8  1  0  0  0  0
  7  9  1  0  0  0  0
  7 10  1  0  0  0  0
 10 11  1  0  0  0  0
 10 12  1  0  0  0  0
 10 13  1  0  0  0  0
 13 14  1  0  0  0  0
 13 15  1  0  0  0  0
 15 16  1  0  0  0  0
 15 17  1  0  0  0  0
 15 18  1  0  0  0  0
 18 19  1  0  0  0  0
 18 20  1  0  0  0  0
  1 21  1  0  0  0  0
 18 21  1  0  0  0  0
 21 22  1  0  0  0  0
 21 23  1  0  0  0  0
 13 24  1  0  0  0  0
 24 25  1  0  0  0  0
M  END
> <VConfSearch Rank>
428

> <Conf_Id>
129

> <Delta U+W>
-1.846

> <U+W>
9.067

> <U>
11.150

> <W>
-2.083

> <W(PB)>
-4.217

> <W(SA)>
2.134

> <Valence>
16.583

> <Coulomb>
-8.361

> <VdW>
2.928

> <VdW6>
-12.539

> <VdW12>
15.467

> <Bond>
0.441

> <Angle>
5.093

> <Pdih>
11.049

> <Idih>
0.000

> <Tether>
0.000

$$$$
VeraChem MOL file


 25 25  0  0  0  0  0  0  0  0999 V2000     
   21.3279   19.1645   20.8814 C   0  0  0  0  0  0  0  0  0  0  0  0
   22.3538   18.7732   20.8520 H   0  0  0  0  0  0  0  0  0  0  0  0
   21.0926   19.4563   19.8487 H   0  0  0  0  0  0  0  0  0  0  0  0
   21.2957   20.4511   21.7438 C   0  0  0  0  0  0  0  0  0  0  0  0
   21.9626   21.1809   21.2649 H   0  0  0  0  0  0  0  0  0  0  0  0
   20.3035   20.9147   21.7003 H   0  0  0  0  0  0  0  0  0  0  0  0
   21.7609   20.2994   23.2138 C   0  0  0  0  0  0  0  0  0  0  0  0
   21.7931   21.3048   23.6556 H   0  0  0  0  0  0  0  0  0  0  0  0
   22.7965   19.9334   23.2309 H   0  0  0  0  0  0  0  0  0  0  0  0
   20.8948   19.4032   24.1368 C   0  0  0  0  0  0  0  0  0  0  0  0
   21.1520   18.3494   23.9896 H   0  0  0  0  0  0  0  0  0  0  0  0
   21.1983   19.6208   25.1699 H   0  0  0  0  0  0  0  0  0  0  0  0
   19.3636   19.6069   24.0005 C   0  0  0  0  0  0  0  0  0  0  0  0
   19.1595   20.5839   23.5427 H   0  0  0  0  0  0  0  0  0  0  0  0
   18.6441   18.5015   23.1872 C   0  0  0  0  0  0  0  0  0  0  0  0
   18.8706   17.5202   23.6241 H   0  0  0  0  0  0  0  0  0  0  0  0
   17.5627   18.6429   23.3166 H   0  0  0  0  0  0  0  0  0  0  0  0
   18.9270   18.4575   21.6611 C   0  0  0  0  0  0  0  0  0  0  0  0
   18.6682   19.4141   21.1891 H   0  0  0  0  0  0  0  0  0  0  0  0
   18.2310   17.7266   21.2270 H   0  0  0  0  0  0  0  0  0  0  0  0
   20.3637   18.0169   21.2788 C   0  0  0  0  0  0  0  0  0  0  0  0
   20.2952   17.3403   20.4160 H   0  0  0  0  0  0  0  0  0  0  0  0
   20.8020   17.4018   22.0728 H   0  0  0  0  0  0  0  0  0  0  0  0
   18.7975   19.6072   25.3050 O   0  0  0  0  0  0  0  0  0  0  0  0
   18.9885   18.7271   25.6896 H   0  0  0  0  0  0  0  0  0  0  0  0
  1  2  1  0  0  0  0
  1  3  1  0  0  0  0
  1  4  1  0  0  0  0
  4  5  1  0  0  0  0
  4  6  1  0  0  0  0
  4  7  1  0  0  0  0
  7  8  1  0  0  0  0
  7  9  1  0  0  0  0
  7 10  1  0  0  0  0
 10 11  1  0  0  0  0
 10 12  1  0  0  0  0
 10 13  1  0  0  0  0
 13 14  1  0  0  0  0
 13 15  1  0  0  0  0
 15 16  1  0  0  0  0
 15 17  1  0  0  0  0
 15 18  1  0  0  0  0
 18 19  1  0  0  0  0
 18 20  1  0  0  0  0
  1 21  1  0  0  0  0
 18 21  1  0  0  0  0
 21 22  1  0  0  0  0
 21 23  1  0  0  0  0
 13 24  1  0  0  0  0
 24 25  1  0  0  0  0
M  END
> <VConfSearch Rank>
429

> <Conf_Id>
140

> <Delta U+W>
-1.702

> <U+W>
9.211

> <U>
11.181

> <W>
-1.969

> <W(PB)>
-4.093

> <W(SA)>
2.124

> <Valence>
16.954

> <Coulomb>
-8.661

> <VdW>
2.887

> <VdW6>
-12.561

> <VdW12>
15.448

> <Bond>
0.433

> <Angle>
5.120

> <Pdih>
11.401

> <Idih>
0.000

> <Tether>
0.000

$$$$
VeraChem MOL file


 25 25  0  0  0  0  0  0  0  0999 V2000     
   19.4826   20.9905   22.0696 C   0  0  0  0  0  0  0  0  0  0  0  0
   18.9451   21.0921   21.1170 H   0  0  0  0  0  0  0  0  0  0  0  0
   19.4680   21.9898   22.5258 H   0  0  0  0  0  0  0  0  0  0  0  0
   20.9612   20.6272   21.7760 C   0  0  0  0  0  0  0  0  0  0  0  0
   21.0250   19.8964   20.9619 H   0  0  0  0  0  0  0  0  0  0  0  0
   21.4403   21.5292   21.3711 H   0  0  0  0  0  0  0  0  0  0  0  0
   21.7853   20.1521   23.0005 C   0  0  0  0  0  0  0  0  0  0  0  0
   21.3675   20.5473   23.9355 H   0  0  0  0  0  0  0  0  0  0  0  0
   22.7844   20.6020   22.9207 H   0  0  0  0  0  0  0  0  0  0  0  0
   21.9865   18.6152   23.0930 C   0  0  0  0  0  0  0  0  0  0  0  0
   22.4446   18.2552   22.1626 H   0  0  0  0  0  0  0  0  0  0  0  0
   22.7275   18.4281   23.8818 H   0  0  0  0  0  0  0  0  0  0  0  0
   20.7325   17.7636   23.4140 C   0  0  0  0  0  0  0  0  0  0  0  0
   20.2597   18.1458   24.3285 H   0  0  0  0  0  0  0  0  0  0  0  0
   19.6883   17.7102   22.2689 C   0  0  0  0  0  0  0  0  0  0  0  0
   20.1646   17.9385   21.3100 H   0  0  0  0  0  0  0  0  0  0  0  0
   19.3240   16.6797   22.1589 H   0  0  0  0  0  0  0  0  0  0  0  0
   18.4418   18.6097   22.4747 C   0  0  0  0  0  0  0  0  0  0  0  0
   17.7766   18.1040   23.1880 H   0  0  0  0  0  0  0  0  0  0  0  0
   17.8811   18.6636   21.5317 H   0  0  0  0  0  0  0  0  0  0  0  0
   18.6901   20.0438   23.0055 C   0  0  0  0  0  0  0  0  0  0  0  0
   19.1546   20.0117   23.9977 H   0  0  0  0  0  0  0  0  0  0  0  0
   17.7066   20.5027   23.1761 H   0  0  0  0  0  0  0  0  0  0  0  0
   21.1774   16.4377   23.6717 O   0  0  0  0  0  0  0  0  0  0  0  0
   21.5975   16.1215   22.8456 H   0  0  0  0  0  0  0  0  0  0  0  0
  1  2  1  0  0  0  0
  1  3  1  0  0  0  0
  1  4  1  0  0  0  0
  4  5  1  0  0  0  0
  4  6  1  0  0  0  0
  4  7  1  0  0  0  0
  7  8  1  0  0  0  0
  7  9  1  0  0  0  0
  7 10  1  0  0  0  0
 10 11  1  0  0  0  0
 10 12  1  0  0  0  0
 10 13  1  0  0  0  0
 13 14  1  0  0  0  0
 13 15  1  0  0  0  0
 15 16  1  0  0  0  0
 15 17  1  0  0  0  0
 15 18  1  0  0  0  0
 18 19  1  0  0  0  0
 18 20  1  0  0  0  0
  1 21  1  0  0  0  0
 18 21  1  0  0  0  0
 21 22  1  0  0  0  0
 21 23  1  0  0  0  0
 13 24  1  0  0  0  0
 24 25  1  0  0  0  0
M  END
> <VConfSearch Rank>
430

> <Conf_Id>
68

> <Delta U+W>
-1.765

> <U+W>
9.148

> <U>
11.181

> <W>
-2.032

> <W(PB)>
-4.147

> <W(SA)>
2.114

> <Valence>
16.955

> <Coulomb>
-8.661

> <VdW>
2.887

> <VdW6>
-12.561

> <VdW12>
15.448

> <Bond>
0.433

> <Angle>
5.121

> <Pdih>
11.402

> <Idih>
0.000

> <Tether>
0.000

$$$$
VeraChem MOL file


 25 25  0  0  0  0  0  0  0  0999 V2000     
   19.1340   19.2516   24.1614 C   0  0  0  0  0  0  0  0  0  0  0  0
   18.5826   19.2920   25.1108 H   0  0  0  0  0  0  0  0  0  0  0  0
   18.3907   18.9147   23.4301 H   0  0  0  0  0  0  0  0  0  0  0  0
   20.2684   18.2042   24.3083 C   0  0  0  0  0  0  0  0  0  0  0  0
   21.2132   18.6820   24.5974 H   0  0  0  0  0  0  0  0  0  0  0  0
   20.0080   17.5521   25.1533 H   0  0  0  0  0  0  0  0  0  0  0  0
   20.4707   17.2862   23.0743 C   0  0  0  0  0  0  0  0  0  0  0  0
   19.5235   16.7836   22.8348 H   0  0  0  0  0  0  0  0  0  0  0  0
   21.1637   16.4848   23.3648 H   0  0  0  0  0  0  0  0  0  0  0  0
   21.0341   17.9559   21.7926 C   0  0  0  0  0  0  0  0  0  0  0  0
   21.9958   18.4381   22.0053 H   0  0  0  0  0  0  0  0  0  0  0  0
   21.2674   17.1453   21.0890 H   0  0  0  0  0  0  0  0  0  0  0  0
   20.0590   18.9446   21.1022 C   0  0  0  0  0  0  0  0  0  0  0  0
   19.0376   18.7326   21.4387 H   0  0  0  0  0  0  0  0  0  0  0  0
   20.3733   20.4414   21.3446 C   0  0  0  0  0  0  0  0  0  0  0  0
   21.2186   20.7280   20.7051 H   0  0  0  0  0  0  0  0  0  0  0  0
   19.5184   21.0356   20.9967 H   0  0  0  0  0  0  0  0  0  0  0  0
   20.7253   20.8654   22.7939 C   0  0  0  0  0  0  0  0  0  0  0  0
   20.9908   21.9310   22.7674 H   0  0  0  0  0  0  0  0  0  0  0  0
   21.6387   20.3613   23.1298 H   0  0  0  0  0  0  0  0  0  0  0  0
   19.5997   20.6966   23.8450 C   0  0  0  0  0  0  0  0  0  0  0  0
   18.7286   21.2940   23.5438 H   0  0  0  0  0  0  0  0  0  0  0  0
   19.9567   21.1455   24.7821 H   0  0  0  0  0  0  0  0  0  0  0  0
   20.1050   18.7201   19.6986 O   0  0  0  0  0  0  0  0  0  0  0  0
   21.0269   18.8966   19.4198 H   0  0  0  0  0  0  0  0  0  0  0  0
  1  2  1  0  0  0  0
  1  3  1  0  0  0  0
  1  4  1  0  0  0  0
  4  5  1  0  0  0  0
  4  6  1  0  0  0  0
  4  7  1  0  0  0  0
  7  8  1  0  0  0  0
  7  9  1  0  0  0  0
  7 10  1  0  0  0  0
 10 11  1  0  0  0  0
 10 12  1  0  0  0  0
 10 13  1  0  0  0  0
 13 14  1  0  0  0  0
 13 15  1  0  0  0  0
 15 16  1  0  0  0  0
 15 17  1  0  0  0  0
 15 18  1  0  0  0  0
 18 19  1  0  0  0  0
 18 20  1  0  0  0  0
  1 21  1  0  0  0  0
 18 21  1  0  0  0  0
 21 22  1  0  0  0  0
 21 23  1  0  0  0  0
 13 24  1  0  0  0  0
 24 25  1  0  0  0  0
M  END
> <VConfSearch Rank>
431

> <Conf_Id>
165

> <Delta U+W>
-1.999

> <U+W>
8.915

> <U>
10.935

> <W>
-2.020

> <W(PB)>
-4.135

> <W(SA)>
2.115

> <Valence>
16.757

> <Coulomb>
-8.731

> <VdW>
2.908

> <VdW6>
-12.597

> <VdW12>
15.506

> <Bond>
0.434

> <Angle>
5.069

> <Pdih>
11.254

> <Idih>
0.000

> <Tether>
0.000

$$$$
VeraChem MOL file


 25 25  0  0  0  0  0  0  0  0999 V2000     
   21.0530   19.5746   24.2884 C   0  0  0  0  0  0  0  0  0  0  0  0
   21.5314   19.8875   25.2266 H   0  0  0  0  0  0  0  0  0  0  0  0
   20.4482   18.7050   24.5695 H   0  0  0  0  0  0  0  0  0  0  0  0
   22.1884   19.1629   23.3154 C   0  0  0  0  0  0  0  0  0  0  0  0
   22.9981   19.8986   23.4166 H   0  0  0  0  0  0  0  0  0  0  0  0
   22.6143   18.2068   23.6484 H   0  0  0  0  0  0  0  0  0  0  0  0
   21.8346   19.0704   21.8099 C   0  0  0  0  0  0  0  0  0  0  0  0
   22.7671   18.8664   21.2663 H   0  0  0  0  0  0  0  0  0  0  0  0
   21.5046   20.0463   21.4355 H   0  0  0  0  0  0  0  0  0  0  0  0
   20.8194   17.9670   21.4150 C   0  0  0  0  0  0  0  0  0  0  0  0
   20.7562   17.9557   20.3185 H   0  0  0  0  0  0  0  0  0  0  0  0
   21.2272   16.9900   21.7048 H   0  0  0  0  0  0  0  0  0  0  0  0
   19.3835   18.0924   21.9808 C   0  0  0  0  0  0  0  0  0  0  0  0
   19.3768   17.7635   23.0266 H   0  0  0  0  0  0  0  0  0  0  0  0
   18.7781   19.5174   21.8973 C   0  0  0  0  0  0  0  0  0  0  0  0
   19.2736   20.1069   21.1169 H   0  0  0  0  0  0  0  0  0  0  0  0
   17.7330   19.4317   21.5702 H   0  0  0  0  0  0  0  0  0  0  0  0
   18.7683   20.2938   23.2412 C   0  0  0  0  0  0  0  0  0  0  0  0
   18.2403   19.6996   23.9996 H   0  0  0  0  0  0  0  0  0  0  0  0
   18.1605   21.1979   23.1002 H   0  0  0  0  0  0  0  0  0  0  0  0
   20.1464   20.7347   23.8008 C   0  0  0  0  0  0  0  0  0  0  0  0
   19.9484   21.3843   24.6645 H   0  0  0  0  0  0  0  0  0  0  0  0
   20.6736   21.3722   23.0794 H   0  0  0  0  0  0  0  0  0  0  0  0
   18.5543   17.2050   21.2388 O   0  0  0  0  0  0  0  0  0  0  0  0
   18.9341   16.3079   21.3459 H   0  0  0  0  0  0  0  0  0  0  0  0
  1  2  1  0  0  0  0
  1  3  1  0  0  0  0
  1  4  1  0  0  0  0
  4  5  1  0  0  0  0
  4  6  1  0  0  0  0
  4  7  1  0  0  0  0
  7  8  1  0  0  0  0
  7  9  1  0  0  0  0
  7 10  1  0  0  0  0
 10 11  1  0  0  0  0
 10 12  1  0  0  0  0
 10 13  1  0  0  0  0
 13 14  1  0  0  0  0
 13 15  1  0  0  0  0
 15 16  1  0  0  0  0
 15 17  1  0  0  0  0
 15 18  1  0  0  0  0
 18 19  1  0  0  0  0
 18 20  1  0  0  0  0
  1 21  1  0  0  0  0
 18 21  1  0  0  0  0
 21 22  1  0  0  0  0
 21 23  1  0  0  0  0
 13 24  1  0  0  0  0
 24 25  1  0  0  0  0
M  END
> <VConfSearch Rank>
432

> <Conf_Id>
133

> <Delta U+W>
-2.139

> <U+W>
8.774

> <U>
10.905

> <W>
-2.131

> <W(PB)>
-4.281

> <W(SA)>
2.150

> <Valence>
16.378

> <Coulomb>
-8.448

> <VdW>
2.976

> <VdW6>
-12.570

> <VdW12>
15.545

> <Bond>
0.439

> <Angle>
5.049

> <Pdih>
10.889

> <Idih>
0.000

> <Tether>
0.000

$$$$
VeraChem MOL file


 25 25  0  0  0  0  0  0  0  0999 V2000     
   18.7203   18.3423   22.9882 C   0  0  0  0  0  0  0  0  0  0  0  0
   17.7488   17.8438   23.1092 H   0  0  0  0  0  0  0  0  0  0  0  0
   19.2481   18.1388   23.9267 H   0  0  0  0  0  0  0  0  0  0  0  0
   18.4632   19.8632   22.8259 C   0  0  0  0  0  0  0  0  0  0  0  0
   18.4179   20.1458   21.7663 H   0  0  0  0  0  0  0  0  0  0  0  0
   17.4593   20.0722   23.2203 H   0  0  0  0  0  0  0  0  0  0  0  0
   19.4514   20.7771   23.5973 C   0  0  0  0  0  0  0  0  0  0  0  0
   19.4416   20.5074   24.6623 H   0  0  0  0  0  0  0  0  0  0  0  0
   19.0630   21.8036   23.5501 H   0  0  0  0  0  0  0  0  0  0  0  0
   20.9176   20.8035   23.0889 C   0  0  0  0  0  0  0  0  0  0  0  0
   20.9531   21.1016   22.0344 H   0  0  0  0  0  0  0  0  0  0  0  0
   21.4293   21.6102   23.6310 H   0  0  0  0  0  0  0  0  0  0  0  0
   21.7025   19.4859   23.3169 C   0  0  0  0  0  0  0  0  0  0  0  0
   21.1986   18.9016   24.0958 H   0  0  0  0  0  0  0  0  0  0  0  0
   21.8742   18.6098   22.0517 C   0  0  0  0  0  0  0  0  0  0  0  0
   22.6609   19.0570   21.4290 H   0  0  0  0  0  0  0  0  0  0  0  0
   22.2516   17.6247   22.3550 H   0  0  0  0  0  0  0  0  0  0  0  0
   20.6265   18.4128   21.1525 C   0  0  0  0  0  0  0  0  0  0  0  0
   20.9447   17.8356   20.2737 H   0  0  0  0  0  0  0  0  0  0  0  0
   20.2922   19.3740   20.7454 H   0  0  0  0  0  0  0  0  0  0  0  0
   19.4365   17.6572   21.7952 C   0  0  0  0  0  0  0  0  0  0  0  0
   19.7656   16.6558   22.1042 H   0  0  0  0  0  0  0  0  0  0  0  0
   18.6892   17.4928   21.0068 H   0  0  0  0  0  0  0  0  0  0  0  0
   23.0049   19.8116   23.7894 O   0  0  0  0  0  0  0  0  0  0  0  0
   23.4611   18.9627   23.9672 H   0  0  0  0  0  0  0  0  0  0  0  0
  1  2  1  0  0  0  0
  1  3  1  0  0  0  0
  1  4  1  0  0  0  0
  4  5  1  0  0  0  0
  4  6  1  0  0  0  0
  4  7  1  0  0  0  0
  7  8  1  0  0  0  0
  7  9  1  0  0  0  0
  7 10  1  0  0  0  0
 10 11  1  0  0  0  0
 10 12  1  0  0  0  0
 10 13  1  0  0  0  0
 13 14  1  0  0  0  0
 13 15  1  0  0  0  0
 15 16  1  0  0  0  0
 15 17  1  0  0  0  0
 15 18  1  0  0  0  0
 18 19  1  0  0  0  0
 18 20  1  0  0  0  0
  1 21  1  0  0  0  0
 18 21  1  0  0  0  0
 21 22  1  0  0  0  0
 21 23  1  0  0  0  0
 13 24  1  0  0  0  0
 24 25  1  0  0  0  0
M  END
> <VConfSearch Rank>
433

> <Conf_Id>
95

> <Delta U+W>
-2.190

> <U+W>
8.723

> <U>
10.905

> <W>
-2.182

> <W(PB)>
-4.296

> <W(SA)>
2.114

> <Valence>
16.377

> <Coulomb>
-8.448

> <VdW>
2.976

> <VdW6>
-12.570

> <VdW12>
15.546

> <Bond>
0.439

> <Angle>
5.049

> <Pdih>
10.889

> <Idih>
0.000

> <Tether>
0.000

$$$$
VeraChem MOL file


 25 25  0  0  0  0  0  0  0  0999 V2000     
   22.0770   19.3977   22.9800 C   0  0  0  0  0  0  0  0  0  0  0  0
   23.1629   19.4157   23.1458 H   0  0  0  0  0  0  0  0  0  0  0  0
   21.7250   20.2906   23.5064 H   0  0  0  0  0  0  0  0  0  0  0  0
   21.5350   18.1033   23.6544 C   0  0  0  0  0  0  0  0  0  0  0  0
   22.3020   17.3258   23.5351 H   0  0  0  0  0  0  0  0  0  0  0  0
   21.4561   18.2716   24.7370 H   0  0  0  0  0  0  0  0  0  0  0  0
   20.2026   17.5062   23.1303 C   0  0  0  0  0  0  0  0  0  0  0  0
   20.0467   16.5447   23.6382 H   0  0  0  0  0  0  0  0  0  0  0  0
   20.3217   17.2239   22.0795 H   0  0  0  0  0  0  0  0  0  0  0  0
   18.9087   18.3488   23.3353 C   0  0  0  0  0  0  0  0  0  0  0  0
   18.1457   18.0062   22.6241 H   0  0  0  0  0  0  0  0  0  0  0  0
   18.5186   18.1012   24.3312 H   0  0  0  0  0  0  0  0  0  0  0  0
   19.0182   19.8927   23.2559 C   0  0  0  0  0  0  0  0  0  0  0  0
   19.7489   20.2198   24.0028 H   0  0  0  0  0  0  0  0  0  0  0  0
   19.3805   20.5033   21.8715 C   0  0  0  0  0  0  0  0  0  0  0  0
   18.4493   20.6255   21.3020 H   0  0  0  0  0  0  0  0  0  0  0  0
   19.7632   21.5191   22.0326 H   0  0  0  0  0  0  0  0  0  0  0  0
   20.3697   19.7310   20.9571 C   0  0  0  0  0  0  0  0  0  0  0  0
   20.4132   20.2592   19.9949 H   0  0  0  0  0  0  0  0  0  0  0  0
   19.9379   18.7597   20.6962 H   0  0  0  0  0  0  0  0  0  0  0  0
   21.8351   19.5694   21.4571 C   0  0  0  0  0  0  0  0  0  0  0  0
   22.3898   20.4644   21.1438 H   0  0  0  0  0  0  0  0  0  0  0  0
   22.3031   18.7329   20.9206 H   0  0  0  0  0  0  0  0  0  0  0  0
   17.7563   20.4284   23.6370 O   0  0  0  0  0  0  0  0  0  0  0  0
   17.5658   20.0910   24.5370 H   0  0  0  0  0  0  0  0  0  0  0  0
  1  2  1  0  0  0  0
  1  3  1  0  0  0  0
  1  4  1  0  0  0  0
  4  5  1  0  0  0  0
  4  6  1  0  0  0  0
  4  7  1  0  0  0  0
  7  8  1  0  0  0  0
  7  9  1  0  0  0  0
  7 10  1  0  0  0  0
 10 11  1  0  0  0  0
 10 12  1  0  0  0  0
 10 13  1  0  0  0  0
 13 14  1  0  0  0  0
 13 15  1  0  0  0  0
 15 16  1  0  0  0  0
 15 17  1  0  0  0  0
 15 18  1  0  0  0  0
 18 19  1  0  0  0  0
 18 20  1  0  0  0  0
  1 21  1  0  0  0  0
 18 21  1  0  0  0  0
 21 22  1  0  0  0  0
 21 23  1  0  0  0  0
 13 24  1  0  0  0  0
 24 25  1  0  0  0  0
M  END
> <VConfSearch Rank>
434

> <Conf_Id>
161

> <Delta U+W>
2.120

> <U+W>
13.033

> <U>
15.076

> <W>
-2.043

> <W(PB)>
-4.186

> <W(SA)>
2.143

> <Valence>
18.884

> <Coulomb>
-8.074

> <VdW>
4.266

> <VdW6>
-13.486

> <VdW12>
17.752

> <Bond>
0.713

> <Angle>
8.955

> <Pdih>
9.215

> <Idih>
0.000

> <Tether>
0.000

$$$$
VeraChem MOL file


 25 25  0  0  0  0  0  0  0  0999 V2000     
   20.2405   21.0262   23.3989 C   0  0  0  0  0  0  0  0  0  0  0  0
   20.4610   21.9979   23.8617 H   0  0  0  0  0  0  0  0  0  0  0  0
   19.1449   20.9644   23.3874 H   0  0  0  0  0  0  0  0  0  0  0  0
   20.8228   19.9184   24.3118 C   0  0  0  0  0  0  0  0  0  0  0  0
   21.8766   19.7265   24.0692 H   0  0  0  0  0  0  0  0  0  0  0  0
   20.8290   20.3196   25.3347 H   0  0  0  0  0  0  0  0  0  0  0  0
   20.0055   18.5972   24.3521 C   0  0  0  0  0  0  0  0  0  0  0  0
   18.9262   18.7974   24.3145 H   0  0  0  0  0  0  0  0  0  0  0  0
   20.1824   18.1448   25.3377 H   0  0  0  0  0  0  0  0  0  0  0  0
   20.4067   17.5374   23.2937 C   0  0  0  0  0  0  0  0  0  0  0  0
   21.4864   17.5874   23.1076 H   0  0  0  0  0  0  0  0  0  0  0  0
   20.2415   16.5458   23.7354 H   0  0  0  0  0  0  0  0  0  0  0  0
   19.6130   17.5639   21.9628 C   0  0  0  0  0  0  0  0  0  0  0  0
   18.5910   17.2170   22.1724 H   0  0  0  0  0  0  0  0  0  0  0  0
   19.5010   18.9344   21.2555 C   0  0  0  0  0  0  0  0  0  0  0  0
   19.1253   18.7665   20.2373 H   0  0  0  0  0  0  0  0  0  0  0  0
   18.7157   19.5228   21.7422 H   0  0  0  0  0  0  0  0  0  0  0  0
   20.8261   19.7385   21.1739 C   0  0  0  0  0  0  0  0  0  0  0  0
   21.0405   19.9602   20.1196 H   0  0  0  0  0  0  0  0  0  0  0  0
   21.6771   19.1375   21.5140 H   0  0  0  0  0  0  0  0  0  0  0  0
   20.8006   21.0755   21.9527 C   0  0  0  0  0  0  0  0  0  0  0  0
   20.2097   21.8049   21.3820 H   0  0  0  0  0  0  0  0  0  0  0  0
   21.8229   21.4764   21.9814 H   0  0  0  0  0  0  0  0  0  0  0  0
   20.2308   16.6517   21.0658 O   0  0  0  0  0  0  0  0  0  0  0  0
   21.0758   17.0678   20.8003 H   0  0  0  0  0  0  0  0  0  0  0  0
  1  2  1  0  0  0  0
  1  3  1  0  0  0  0
  1  4  1  0  0  0  0
  4  5  1  0  0  0  0
  4  6  1  0  0  0  0
  4  7  1  0  0  0  0
  7  8  1  0  0  0  0
  7  9  1  0  0  0  0
  7 10  1  0  0  0  0
 10 11  1  0  0  0  0
 10 12  1  0  0  0  0
 10 13  1  0  0  0  0
 13 14  1  0  0  0  0
 13 15  1  0  0  0  0
 15 16  1  0  0  0  0
 15 17  1  0  0  0  0
 15 18  1  0  0  0  0
 18 19  1  0  0  0  0
 18 20  1  0  0  0  0
  1 21  1  0  0  0  0
 18 21  1  0  0  0  0
 21 22  1  0  0  0  0
 21 23  1  0  0  0  0
 13 24  1  0  0  0  0
 24 25  1  0  0  0  0
M  END
> <VConfSearch Rank>
435

> <Conf_Id>
164

> <Delta U+W>
0.008

> <U+W>
10.922

> <U>
12.433

> <W>
-1.511

> <W(PB)>
-3.669

> <W(SA)>
2.157

> <Valence>
19.007

> <Coulomb>
-9.373

> <VdW>
2.799

> <VdW6>
-12.597

> <VdW12>
15.396

> <Bond>
0.425

> <Angle>
4.784

> <Pdih>
13.799

> <Idih>
0.000

> <Tether>
0.000

$$$$
VeraChem MOL file


 25 25  0  0  0  0  0  0  0  0999 V2000     
   21.5880   20.1108   21.7036 C   0  0  0  0  0  0  0  0  0  0  0  0
   20.8997   20.8836   22.0642 H   0  0  0  0  0  0  0  0  0  0  0  0
   22.3537   20.6630   21.1421 H   0  0  0  0  0  0  0  0  0  0  0  0
   20.8702   19.1726   20.7014 C   0  0  0  0  0  0  0  0  0  0  0  0
   20.5232   19.7913   19.8625 H   0  0  0  0  0  0  0  0  0  0  0  0
   21.6004   18.4733   20.2722 H   0  0  0  0  0  0  0  0  0  0  0  0
   19.6553   18.3689   21.2313 C   0  0  0  0  0  0  0  0  0  0  0  0
   19.9891   17.4583   21.7417 H   0  0  0  0  0  0  0  0  0  0  0  0
   19.1006   18.0052   20.3555 H   0  0  0  0  0  0  0  0  0  0  0  0
   18.6732   19.1675   22.1295 C   0  0  0  0  0  0  0  0  0  0  0  0
   18.7322   20.2418   21.9172 H   0  0  0  0  0  0  0  0  0  0  0  0
   17.6551   18.8706   21.8438 H   0  0  0  0  0  0  0  0  0  0  0  0
   18.8133   18.8979   23.6487 C   0  0  0  0  0  0  0  0  0  0  0  0
   18.7535   17.8122   23.8109 H   0  0  0  0  0  0  0  0  0  0  0  0
   20.1055   19.4169   24.3280 C   0  0  0  0  0  0  0  0  0  0  0  0
   20.2116   20.4994   24.1881 H   0  0  0  0  0  0  0  0  0  0  0  0
   19.9781   19.2752   25.4096 H   0  0  0  0  0  0  0  0  0  0  0  0
   21.4039   18.6734   23.9155 C   0  0  0  0  0  0  0  0  0  0  0  0
   21.1716   17.6643   23.5568 H   0  0  0  0  0  0  0  0  0  0  0  0
   22.0082   18.5116   24.8186 H   0  0  0  0  0  0  0  0  0  0  0  0
   22.2991   19.4215   22.8948 C   0  0  0  0  0  0  0  0  0  0  0  0
   23.0590   18.7273   22.5113 H   0  0  0  0  0  0  0  0  0  0  0  0
   22.8538   20.1972   23.4401 H   0  0  0  0  0  0  0  0  0  0  0  0
   17.7087   19.5116   24.2987 O   0  0  0  0  0  0  0  0  0  0  0  0
   17.7917   20.4734   24.1354 H   0  0  0  0  0  0  0  0  0  0  0  0
  1  2  1  0  0  0  0
  1  3  1  0  0  0  0
  1  4  1  0  0  0  0
  4  5  1  0  0  0  0
  4  6  1  0  0  0  0
  4  7  1  0  0  0  0
  7  8  1  0  0  0  0
  7  9  1  0  0  0  0
  7 10  1  0  0  0  0
 10 11  1  0  0  0  0
 10 12  1  0  0  0  0
 10 13  1  0  0  0  0
 13 14  1  0  0  0  0
 13 15  1  0  0  0  0
 15 16  1  0  0  0  0
 15 17  1  0  0  0  0
 15 18  1  0  0  0  0
 18 19  1  0  0  0  0
 18 20  1  0  0  0  0
  1 21  1  0  0  0  0
 18 21  1  0  0  0  0
 21 22  1  0  0  0  0
 21 23  1  0  0  0  0
 13 24  1  0  0  0  0
 24 25  1  0  0  0  0
M  END
> <VConfSearch Rank>
436

> <Conf_Id>
15

> <Delta U+W>
-1.271

> <U+W>
9.643

> <U>
11.413

> <W>
-1.770

> <W(PB)>
-3.908

> <W(SA)>
2.138

> <Valence>
17.496

> <Coulomb>
-8.736

> <VdW>
2.653

> <VdW6>
-12.485

> <VdW12>
15.138

> <Bond>
0.414

> <Angle>
5.295

> <Pdih>
11.787

> <Idih>
0.000

> <Tether>
0.000

$$$$
VeraChem MOL file


 25 25  0  0  0  0  0  0  0  0999 V2000     
   21.8127   19.5971   21.4736 C   0  0  0  0  0  0  0  0  0  0  0  0
   22.5468   19.7133   20.6645 H   0  0  0  0  0  0  0  0  0  0  0  0
   22.4095   19.5952   22.3944 H   0  0  0  0  0  0  0  0  0  0  0  0
   20.8851   20.8397   21.4255 C   0  0  0  0  0  0  0  0  0  0  0  0
   21.4826   21.7217   21.6935 H   0  0  0  0  0  0  0  0  0  0  0  0
   20.5620   21.0020   20.3881 H   0  0  0  0  0  0  0  0  0  0  0  0
   19.6264   20.8016   22.3253 C   0  0  0  0  0  0  0  0  0  0  0  0
   18.8544   20.1851   21.8502 H   0  0  0  0  0  0  0  0  0  0  0  0
   19.1984   21.8129   22.3556 H   0  0  0  0  0  0  0  0  0  0  0  0
   19.8996   20.3324   23.7781 C   0  0  0  0  0  0  0  0  0  0  0  0
   20.9758   20.2572   23.9689 H   0  0  0  0  0  0  0  0  0  0  0  0
   19.5448   21.1105   24.4665 H   0  0  0  0  0  0  0  0  0  0  0  0
   19.1983   19.0107   24.1676 C   0  0  0  0  0  0  0  0  0  0  0  0
   18.1287   19.2285   24.2996 H   0  0  0  0  0  0  0  0  0  0  0  0
   19.3041   17.8443   23.1513 C   0  0  0  0  0  0  0  0  0  0  0  0
   18.9092   16.9486   23.6493 H   0  0  0  0  0  0  0  0  0  0  0  0
   18.6193   18.0147   22.3120 H   0  0  0  0  0  0  0  0  0  0  0  0
   20.7201   17.5077   22.6119 C   0  0  0  0  0  0  0  0  0  0  0  0
   20.7297   16.4297   22.4000 H   0  0  0  0  0  0  0  0  0  0  0  0
   21.4849   17.6564   23.3850 H   0  0  0  0  0  0  0  0  0  0  0  0
   21.1146   18.2266   21.2923 C   0  0  0  0  0  0  0  0  0  0  0  0
   20.2549   18.3129   20.6143 H   0  0  0  0  0  0  0  0  0  0  0  0
   21.8283   17.5713   20.7742 H   0  0  0  0  0  0  0  0  0  0  0  0
   19.7315   18.5752   25.4103 O   0  0  0  0  0  0  0  0  0  0  0  0
   20.6530   18.3034   25.2257 H   0  0  0  0  0  0  0  0  0  0  0  0
  1  2  1  0  0  0  0
  1  3  1  0  0  0  0
  1  4  1  0  0  0  0
  4  5  1  0  0  0  0
  4  6  1  0  0  0  0
  4  7  1  0  0  0  0
  7  8  1  0  0  0  0
  7  9  1  0  0  0  0
  7 10  1  0  0  0  0
 10 11  1  0  0  0  0
 10 12  1  0  0  0  0
 10 13  1  0  0  0  0
 13 14  1  0  0  0  0
 13 15  1  0  0  0  0
 15 16  1  0  0  0  0
 15 17  1  0  0  0  0
 15 18  1  0  0  0  0
 18 19  1  0  0  0  0
 18 20  1  0  0  0  0
  1 21  1  0  0  0  0
 18 21  1  0  0  0  0
 21 22  1  0  0  0  0
 21 23  1  0  0  0  0
 13 24  1  0  0  0  0
 24 25  1  0  0  0  0
M  END
> <VConfSearch Rank>
437

> <Conf_Id>
115

> <Delta U+W>
0.038

> <U+W>
10.952

> <U>
12.526

> <W>
-1.575

> <W(PB)>
-3.698

> <W(SA)>
2.123

> <Valence>
19.016

> <Coulomb>
-9.226

> <VdW>
2.737

> <VdW6>
-12.612

> <VdW12>
15.349

> <Bond>
0.421

> <Angle>
4.883

> <Pdih>
13.711

> <Idih>
0.000

> <Tether>
0.000

$$$$
VeraChem MOL file


 25 25  0  0  0  0  0  0  0  0999 V2000     
   22.0578   18.1439   22.0462 C   0  0  0  0  0  0  0  0  0  0  0  0
   22.7141   17.2629   22.0488 H   0  0  0  0  0  0  0  0  0  0  0  0
   22.3920   18.7571   21.1984 H   0  0  0  0  0  0  0  0  0  0  0  0
   22.2957   18.8994   23.3744 C   0  0  0  0  0  0  0  0  0  0  0  0
   22.0767   18.2420   24.2267 H   0  0  0  0  0  0  0  0  0  0  0  0
   23.3703   19.1186   23.4395 H   0  0  0  0  0  0  0  0  0  0  0  0
   21.5282   20.2340   23.5182 C   0  0  0  0  0  0  0  0  0  0  0  0
   21.5531   20.7920   22.5728 H   0  0  0  0  0  0  0  0  0  0  0  0
   22.0801   20.8546   24.2375 H   0  0  0  0  0  0  0  0  0  0  0  0
   20.0776   20.0827   24.0502 C   0  0  0  0  0  0  0  0  0  0  0  0
   19.9067   19.0804   24.4626 H   0  0  0  0  0  0  0  0  0  0  0  0
   19.9669   20.7708   24.8992 H   0  0  0  0  0  0  0  0  0  0  0  0
   18.9796   20.4231   23.0175 C   0  0  0  0  0  0  0  0  0  0  0  0
   19.3279   21.2554   22.3892 H   0  0  0  0  0  0  0  0  0  0  0  0
   18.5645   19.2464   22.1068 C   0  0  0  0  0  0  0  0  0  0  0  0
   18.1558   18.4284   22.7148 H   0  0  0  0  0  0  0  0  0  0  0  0
   17.7353   19.5926   21.4759 H   0  0  0  0  0  0  0  0  0  0  0  0
   19.6725   18.7100   21.1681 C   0  0  0  0  0  0  0  0  0  0  0  0
   20.2443   19.5423   20.7363 H   0  0  0  0  0  0  0  0  0  0  0  0
   19.1737   18.2274   20.3163 H   0  0  0  0  0  0  0  0  0  0  0  0
   20.6084   17.6556   21.8149 C   0  0  0  0  0  0  0  0  0  0  0  0
   20.6586   16.7975   21.1305 H   0  0  0  0  0  0  0  0  0  0  0  0
   20.1843   17.2589   22.7468 H   0  0  0  0  0  0  0  0  0  0  0  0
   17.8212   20.8423   23.7288 O   0  0  0  0  0  0  0  0  0  0  0  0
   17.1565   21.1045   23.0581 H   0  0  0  0  0  0  0  0  0  0  0  0
  1  2  1  0  0  0  0
  1  3  1  0  0  0  0
  1  4  1  0  0  0  0
  4  5  1  0  0  0  0
  4  6  1  0  0  0  0
  4  7  1  0  0  0  0
  7  8  1  0  0  0  0
  7  9  1  0  0  0  0
  7 10  1  0  0  0  0
 10 11  1  0  0  0  0
 10 12  1  0  0  0  0
 10 13  1  0  0  0  0
 13 14  1  0  0  0  0
 13 15  1  0  0  0  0
 15 16  1  0  0  0  0
 15 17  1  0  0  0  0
 15 18  1  0  0  0  0
 18 19  1  0  0  0  0
 18 20  1  0  0  0  0
  1 21  1  0  0  0  0
 18 21  1  0  0  0  0
 21 22  1  0  0  0  0
 21 23  1  0  0  0  0
 13 24  1  0  0  0  0
 24 25  1  0  0  0  0
M  END
> <VConfSearch Rank>
438

> <Conf_Id>
30

> <Delta U+W>
0.000

> <U+W>
10.913

> <U>
13.140

> <W>
-2.227

> <W(PB)>
-4.367

> <W(SA)>
2.140

> <Valence>
19.155

> <Coulomb>
-8.157

> <VdW>
2.142

> <VdW6>
-11.576

> <VdW12>
13.718

> <Bond>
0.294

> <Angle>
3.547

> <Pdih>
15.314

> <Idih>
0.000

> <Tether>
0.000

$$$$
VeraChem MOL file


 25 25  0  0  0  0  0  0  0  0999 V2000     
   20.5715   18.9993   20.5469 C   0  0  0  0  0  0  0  0  0  0  0  0
   19.9811   19.3062   19.6728 H   0  0  0  0  0  0  0  0  0  0  0  0
   21.4117   18.4153   20.1472 H   0  0  0  0  0  0  0  0  0  0  0  0
   19.7028   18.0624   21.4220 C   0  0  0  0  0  0  0  0  0  0  0  0
   19.1891   17.3566   20.7550 H   0  0  0  0  0  0  0  0  0  0  0  0
   20.3507   17.4339   22.0438 H   0  0  0  0  0  0  0  0  0  0  0  0
   18.6406   18.7923   22.2826 C   0  0  0  0  0  0  0  0  0  0  0  0
   17.6518   18.3723   22.0537 H   0  0  0  0  0  0  0  0  0  0  0  0
   18.5667   19.8497   22.0033 H   0  0  0  0  0  0  0  0  0  0  0  0
   18.8721   18.6704   23.8101 C   0  0  0  0  0  0  0  0  0  0  0  0
   18.1922   19.3655   24.3203 H   0  0  0  0  0  0  0  0  0  0  0  0
   18.5689   17.6644   24.1281 H   0  0  0  0  0  0  0  0  0  0  0  0
   20.3153   18.9094   24.3204 C   0  0  0  0  0  0  0  0  0  0  0  0
   20.9497   18.0652   24.0190 H   0  0  0  0  0  0  0  0  0  0  0  0
   20.9755   20.2228   23.8343 C   0  0  0  0  0  0  0  0  0  0  0  0
   20.2157   21.0020   23.6928 H   0  0  0  0  0  0  0  0  0  0  0  0
   21.6265   20.5948   24.6367 H   0  0  0  0  0  0  0  0  0  0  0  0
   21.8652   20.0793   22.5672 C   0  0  0  0  0  0  0  0  0  0  0  0
   22.4136   19.1276   22.5717 H   0  0  0  0  0  0  0  0  0  0  0  0
   22.6361   20.8598   22.6288 H   0  0  0  0  0  0  0  0  0  0  0  0
   21.1275   20.2821   21.2205 C   0  0  0  0  0  0  0  0  0  0  0  0
   21.8363   20.7331   20.5124 H   0  0  0  0  0  0  0  0  0  0  0  0
   20.3347   21.0319   21.3367 H   0  0  0  0  0  0  0  0  0  0  0  0
   20.2594   18.9340   25.7419 O   0  0  0  0  0  0  0  0  0  0  0  0
   21.1837   19.0049   26.0596 H   0  0  0  0  0  0  0  0  0  0  0  0
  1  2  1  0  0  0  0
  1  3  1  0  0  0  0
  1  4  1  0  0  0  0
  4  5  1  0  0  0  0
  4  6  1  0  0  0  0
  4  7  1  0  0  0  0
  7  8  1  0  0  0  0
  7  9  1  0  0  0  0
  7 10  1  0  0  0  0
 10 11  1  0  0  0  0
 10 12  1  0  0  0  0
 10 13  1  0  0  0  0
 13 14  1  0  0  0  0
 13 15  1  0  0  0  0
 15 16  1  0  0  0  0
 15 17  1  0  0  0  0
 15 18  1  0  0  0  0
 18 19  1  0  0  0  0
 18 20  1  0  0  0  0
  1 21  1  0  0  0  0
 18 21  1  0  0  0  0
 21 22  1  0  0  0  0
 21 23  1  0  0  0  0
 13 24  1  0  0  0  0
 24 25  1  0  0  0  0
M  END
> <VConfSearch Rank>
439

> <Conf_Id>
162

> <Delta U+W>
0.219

> <U+W>
11.132

> <U>
13.296

> <W>
-2.164

> <W(PB)>
-4.311

> <W(SA)>
2.148

> <Valence>
18.607

> <Coulomb>
-8.339

> <VdW>
3.028

> <VdW6>
-12.271

> <VdW12>
15.299

> <Bond>
0.423

> <Angle>
4.488

> <Pdih>
13.696

> <Idih>
0.000

> <Tether>
0.000

$$$$
VeraChem MOL file


 25 25  0  0  0  0  0  0  0  0999 V2000     
   20.1343   18.7355   20.7441 C   0  0  0  0  0  0  0  0  0  0  0  0
   20.3637   19.7798   20.4968 H   0  0  0  0  0  0  0  0  0  0  0  0
   20.0141   18.2379   19.7720 H   0  0  0  0  0  0  0  0  0  0  0  0
   21.3405   18.0864   21.4675 C   0  0  0  0  0  0  0  0  0  0  0  0
   21.0259   17.1954   22.0274 H   0  0  0  0  0  0  0  0  0  0  0  0
   22.0178   17.7145   20.6864 H   0  0  0  0  0  0  0  0  0  0  0  0
   22.1710   19.0479   22.3627 C   0  0  0  0  0  0  0  0  0  0  0  0
   22.2437   20.0466   21.9117 H   0  0  0  0  0  0  0  0  0  0  0  0
   23.1989   18.6600   22.3764 H   0  0  0  0  0  0  0  0  0  0  0  0
   21.7078   19.1420   23.8398 C   0  0  0  0  0  0  0  0  0  0  0  0
   21.3148   18.1730   24.1713 H   0  0  0  0  0  0  0  0  0  0  0  0
   22.5974   19.3132   24.4599 H   0  0  0  0  0  0  0  0  0  0  0  0
   20.7098   20.2786   24.1768 C   0  0  0  0  0  0  0  0  0  0  0  0
   21.2529   21.2327   24.1148 H   0  0  0  0  0  0  0  0  0  0  0  0
   19.4692   20.3953   23.2597 C   0  0  0  0  0  0  0  0  0  0  0  0
   18.7535   21.0849   23.7258 H   0  0  0  0  0  0  0  0  0  0  0  0
   19.7607   20.8935   22.3288 H   0  0  0  0  0  0  0  0  0  0  0  0
   18.7490   19.0526   22.9667 C   0  0  0  0  0  0  0  0  0  0  0  0
   17.7013   19.1369   23.2855 H   0  0  0  0  0  0  0  0  0  0  0  0
   19.1631   18.2441   23.5807 H   0  0  0  0  0  0  0  0  0  0  0  0
   18.7701   18.6340   21.4767 C   0  0  0  0  0  0  0  0  0  0  0  0
   18.0417   19.2467   20.9284 H   0  0  0  0  0  0  0  0  0  0  0  0
   18.4049   17.6004   21.4052 H   0  0  0  0  0  0  0  0  0  0  0  0
   20.2674   20.0858   25.5152 O   0  0  0  0  0  0  0  0  0  0  0  0
   19.6371   20.8094   25.7105 H   0  0  0  0  0  0  0  0  0  0  0  0
  1  2  1  0  0  0  0
  1  3  1  0  0  0  0
  1  4  1  0  0  0  0
  4  5  1  0  0  0  0
  4  6  1  0  0  0  0
  4  7  1  0  0  0  0
  7  8  1  0  0  0  0
  7  9  1  0  0  0  0
  7 10  1  0  0  0  0
 10 11  1  0  0  0  0
 10 12  1  0  0  0  0
 10 13  1  0  0  0  0
 13 14  1  0  0  0  0
 13 15  1  0  0  0  0
 15 16  1  0  0  0  0
 15 17  1  0  0  0  0
 15 18  1  0  0  0  0
 18 19  1  0  0  0  0
 18 20  1  0  0  0  0
  1 21  1  0  0  0  0
 18 21  1  0  0  0  0
 21 22  1  0  0  0  0
 21 23  1  0  0  0  0
 13 24  1  0  0  0  0
 24 25  1  0  0  0  0
M  END
> <VConfSearch Rank>
440

> <Conf_Id>
155

> <Delta U+W>
0.339

> <U+W>
11.252

> <U>
13.420

> <W>
-2.167

> <W(PB)>
-4.325

> <W(SA)>
2.157

> <Valence>
18.609

> <Coulomb>
-8.052

> <VdW>
2.863

> <VdW6>
-12.524

> <VdW12>
15.387

> <Bond>
0.430

> <Angle>
4.724

> <Pdih>
13.455

> <Idih>
0.000

> <Tether>
0.000

$$$$
VeraChem MOL file


 25 25  0  0  0  0  0  0  0  0999 V2000     
   19.8610   20.8715   21.6439 C   0  0  0  0  0  0  0  0  0  0  0  0
   19.9231   20.7615   20.5528 H   0  0  0  0  0  0  0  0  0  0  0  0
   19.5174   21.9008   21.8148 H   0  0  0  0  0  0  0  0  0  0  0  0
   18.7553   19.9305   22.1904 C   0  0  0  0  0  0  0  0  0  0  0  0
   18.6117   20.1233   23.2582 H   0  0  0  0  0  0  0  0  0  0  0  0
   17.8022   20.2433   21.7426 H   0  0  0  0  0  0  0  0  0  0  0  0
   18.9089   18.4054   21.9190 C   0  0  0  0  0  0  0  0  0  0  0  0
   18.4697   18.2008   20.9332 H   0  0  0  0  0  0  0  0  0  0  0  0
   18.2891   17.8518   22.6374 H   0  0  0  0  0  0  0  0  0  0  0  0
   20.3402   17.8027   21.9121 C   0  0  0  0  0  0  0  0  0  0  0  0
   20.2569   16.7637   21.5673 H   0  0  0  0  0  0  0  0  0  0  0  0
   20.9272   18.2799   21.1224 H   0  0  0  0  0  0  0  0  0  0  0  0
   21.1371   17.7981   23.2497 C   0  0  0  0  0  0  0  0  0  0  0  0
   22.2070   17.7469   23.0020 H   0  0  0  0  0  0  0  0  0  0  0  0
   20.9289   18.9913   24.2159 C   0  0  0  0  0  0  0  0  0  0  0  0
   19.8800   19.0219   24.5249 H   0  0  0  0  0  0  0  0  0  0  0  0
   21.4659   18.7607   25.1454 H   0  0  0  0  0  0  0  0  0  0  0  0
   21.4110   20.3983   23.7508 C   0  0  0  0  0  0  0  0  0  0  0  0
   22.4729   20.4868   24.0180 H   0  0  0  0  0  0  0  0  0  0  0  0
   20.8950   21.1646   24.3446 H   0  0  0  0  0  0  0  0  0  0  0  0
   21.2922   20.7536   22.2453 C   0  0  0  0  0  0  0  0  0  0  0  0
   21.9052   20.0618   21.6592 H   0  0  0  0  0  0  0  0  0  0  0  0
   21.7856   21.7234   22.0942 H   0  0  0  0  0  0  0  0  0  0  0  0
   20.7819   16.6197   23.9648 O   0  0  0  0  0  0  0  0  0  0  0  0
   20.9631   15.8626   23.3705 H   0  0  0  0  0  0  0  0  0  0  0  0
  1  2  1  0  0  0  0
  1  3  1  0  0  0  0
  1  4  1  0  0  0  0
  4  5  1  0  0  0  0
  4  6  1  0  0  0  0
  4  7  1  0  0  0  0
  7  8  1  0  0  0  0
  7  9  1  0  0  0  0
  7 10  1  0  0  0  0
 10 11  1  0  0  0  0
 10 12  1  0  0  0  0
 10 13  1  0  0  0  0
 13 14  1  0  0  0  0
 13 15  1  0  0  0  0
 15 16  1  0  0  0  0
 15 17  1  0  0  0  0
 15 18  1  0  0  0  0
 18 19  1  0  0  0  0
 18 20  1  0  0  0  0
  1 21  1  0  0  0  0
 18 21  1  0  0  0  0
 21 22  1  0  0  0  0
 21 23  1  0  0  0  0
 13 24  1  0  0  0  0
 24 25  1  0  0  0  0
M  END
> <VConfSearch Rank>
441

> <Conf_Id>
146

> <Delta U+W>
2.553

> <U+W>
13.466

> <U>
15.643

> <W>
-2.176

> <W(PB)>
-4.307

> <W(SA)>
2.131

> <Valence>
18.916

> <Coulomb>
-7.506

> <VdW>
4.232

> <VdW6>
-13.632

> <VdW12>
17.864

> <Bond>
0.735

> <Angle>
9.140

> <Pdih>
9.042

> <Idih>
0.000

> <Tether>
0.000

$$$$
VeraChem MOL file


 25 25  0  0  0  0  0  0  0  0999 V2000     
   18.4109   18.9982   21.8893 C   0  0  0  0  0  0  0  0  0  0  0  0
   18.2038   18.3593   21.0202 H   0  0  0  0  0  0  0  0  0  0  0  0
   17.4391   19.4129   22.1903 H   0  0  0  0  0  0  0  0  0  0  0  0
   19.3041   20.1854   21.4500 C   0  0  0  0  0  0  0  0  0  0  0  0
   18.7452   20.7503   20.6915 H   0  0  0  0  0  0  0  0  0  0  0  0
   19.4347   20.8911   22.2783 H   0  0  0  0  0  0  0  0  0  0  0  0
   20.6747   19.8151   20.8297 C   0  0  0  0  0  0  0  0  0  0  0  0
   21.1343   20.7439   20.4650 H   0  0  0  0  0  0  0  0  0  0  0  0
   20.5141   19.1927   19.9391 H   0  0  0  0  0  0  0  0  0  0  0  0
   21.6993   19.1115   21.7576 C   0  0  0  0  0  0  0  0  0  0  0  0
   21.4853   18.0397   21.8169 H   0  0  0  0  0  0  0  0  0  0  0  0
   22.6771   19.1688   21.2605 H   0  0  0  0  0  0  0  0  0  0  0  0
   21.8192   19.7130   23.1816 C   0  0  0  0  0  0  0  0  0  0  0  0
   21.4276   20.7391   23.1822 H   0  0  0  0  0  0  0  0  0  0  0  0
   21.1010   18.8891   24.2803 C   0  0  0  0  0  0  0  0  0  0  0  0
   21.4708   17.8555   24.2553 H   0  0  0  0  0  0  0  0  0  0  0  0
   21.4044   19.2891   25.2566 H   0  0  0  0  0  0  0  0  0  0  0  0
   19.5484   18.8793   24.2481 C   0  0  0  0  0  0  0  0  0  0  0  0
   19.1508   19.9004   24.3116 H   0  0  0  0  0  0  0  0  0  0  0  0
   19.2120   18.3832   25.1688 H   0  0  0  0  0  0  0  0  0  0  0  0
   18.9269   18.1120   23.0525 C   0  0  0  0  0  0  0  0  0  0  0  0
   18.0680   17.5371   23.4250 H   0  0  0  0  0  0  0  0  0  0  0  0
   19.6224   17.3517   22.6797 H   0  0  0  0  0  0  0  0  0  0  0  0
   23.1993   19.7638   23.5252 O   0  0  0  0  0  0  0  0  0  0  0  0
   23.2575   20.1998   24.4008 H   0  0  0  0  0  0  0  0  0  0  0  0
  1  2  1  0  0  0  0
  1  3  1  0  0  0  0
  1  4  1  0  0  0  0
  4  5  1  0  0  0  0
  4  6  1  0  0  0  0
  4  7  1  0  0  0  0
  7  8  1  0  0  0  0
  7  9  1  0  0  0  0
  7 10  1  0  0  0  0
 10 11  1  0  0  0  0
 10 12  1  0  0  0  0
 10 13  1  0  0  0  0
 13 14  1  0  0  0  0
 13 15  1  0  0  0  0
 15 16  1  0  0  0  0
 15 17  1  0  0  0  0
 15 18  1  0  0  0  0
 18 19  1  0  0  0  0
 18 20  1  0  0  0  0
  1 21  1  0  0  0  0
 18 21  1  0  0  0  0
 21 22  1  0  0  0  0
 21 23  1  0  0  0  0
 13 24  1  0  0  0  0
 24 25  1  0  0  0  0
M  END
> <VConfSearch Rank>
442

> <Conf_Id>
62

> <Delta U+W>
-1.779

> <U+W>
9.134

> <U>
11.364

> <W>
-2.230

> <W(PB)>
-4.359

> <W(SA)>
2.129

> <Valence>
16.582

> <Coulomb>
-8.150

> <VdW>
2.933

> <VdW6>
-12.531

> <VdW12>
15.464

> <Bond>
0.439

> <Angle>
5.099

> <Pdih>
11.044

> <Idih>
0.000

> <Tether>
0.000

$$$$
VeraChem MOL file


 25 25  0  0  0  0  0  0  0  0999 V2000     
   20.7447   20.2293   21.1604 C   0  0  0  0  0  0  0  0  0  0  0  0
   21.3023   19.3000   20.9972 H   0  0  0  0  0  0  0  0  0  0  0  0
   20.9780   20.8492   20.2841 H   0  0  0  0  0  0  0  0  0  0  0  0
   21.2864   20.9725   22.4070 C   0  0  0  0  0  0  0  0  0  0  0  0
   22.3464   21.1942   22.2229 H   0  0  0  0  0  0  0  0  0  0  0  0
   20.7893   21.9483   22.4921 H   0  0  0  0  0  0  0  0  0  0  0  0
   21.1857   20.2364   23.7675 C   0  0  0  0  0  0  0  0  0  0  0  0
   20.1887   20.3676   24.2031 H   0  0  0  0  0  0  0  0  0  0  0  0
   21.8600   20.7521   24.4650 H   0  0  0  0  0  0  0  0  0  0  0  0
   21.5744   18.7339   23.7389 C   0  0  0  0  0  0  0  0  0  0  0  0
   22.2452   18.5158   22.8988 H   0  0  0  0  0  0  0  0  0  0  0  0
   22.1671   18.5352   24.6414 H   0  0  0  0  0  0  0  0  0  0  0  0
   20.3773   17.7500   23.7472 C   0  0  0  0  0  0  0  0  0  0  0  0
   19.7269   18.0057   24.5961 H   0  0  0  0  0  0  0  0  0  0  0  0
   19.5058   17.7148   22.4669 C   0  0  0  0  0  0  0  0  0  0  0  0
   20.1180   17.4654   21.5918 H   0  0  0  0  0  0  0  0  0  0  0  0
   18.8072   16.8750   22.5787 H   0  0  0  0  0  0  0  0  0  0  0  0
   18.6593   18.9911   22.2140 C   0  0  0  0  0  0  0  0  0  0  0  0
   18.4797   19.5255   23.1537 H   0  0  0  0  0  0  0  0  0  0  0  0
   17.6602   18.6792   21.8803 H   0  0  0  0  0  0  0  0  0  0  0  0
   19.2202   19.9554   21.1377 C   0  0  0  0  0  0  0  0  0  0  0  0
   18.6790   20.9094   21.1968 H   0  0  0  0  0  0  0  0  0  0  0  0
   18.9763   19.5363   20.1519 H   0  0  0  0  0  0  0  0  0  0  0  0
   20.8959   16.4411   23.9476 O   0  0  0  0  0  0  0  0  0  0  0  0
   21.3882   16.4582   24.7947 H   0  0  0  0  0  0  0  0  0  0  0  0
  1  2  1  0  0  0  0
  1  3  1  0  0  0  0
  1  4  1  0  0  0  0
  4  5  1  0  0  0  0
  4  6  1  0  0  0  0
  4  7  1  0  0  0  0
  7  8  1  0  0  0  0
  7  9  1  0  0  0  0
  7 10  1  0  0  0  0
 10 11  1  0  0  0  0
 10 12  1  0  0  0  0
 10 13  1  0  0  0  0
 13 14  1  0  0  0  0
 13 15  1  0  0  0  0
 15 16  1  0  0  0  0
 15 17  1  0  0  0  0
 15 18  1  0  0  0  0
 18 19  1  0  0  0  0
 18 20  1  0  0  0  0
  1 21  1  0  0  0  0
 18 21  1  0  0  0  0
 21 22  1  0  0  0  0
 21 23  1  0  0  0  0
 13 24  1  0  0  0  0
 24 25  1  0  0  0  0
M  END
> <VConfSearch Rank>
443

> <Conf_Id>
121

> <Delta U+W>
-1.283

> <U+W>
9.630

> <U>
11.876

> <W>
-2.246

> <W(PB)>
-4.376

> <W(SA)>
2.130

> <Valence>
17.153

> <Coulomb>
-7.966

> <VdW>
2.689

> <VdW6>
-12.458

> <VdW12>
15.147

> <Bond>
0.421

> <Angle>
5.258

> <Pdih>
11.475

> <Idih>
0.000

> <Tether>
0.000

$$$$
VeraChem MOL file


 25 25  0  0  0  0  0  0  0  0999 V2000     
   21.9313   19.6499   21.7691 C   0  0  0  0  0  0  0  0  0  0  0  0
   21.2502   19.3137   20.9791 H   0  0  0  0  0  0  0  0  0  0  0  0
   22.8626   19.9004   21.2432 H   0  0  0  0  0  0  0  0  0  0  0  0
   22.2498   18.4849   22.7392 C   0  0  0  0  0  0  0  0  0  0  0  0
   22.7196   17.6856   22.1499 H   0  0  0  0  0  0  0  0  0  0  0  0
   23.0128   18.8103   23.4593 H   0  0  0  0  0  0  0  0  0  0  0  0
   21.0589   17.8646   23.5138 C   0  0  0  0  0  0  0  0  0  0  0  0
   20.8313   18.4559   24.4079 H   0  0  0  0  0  0  0  0  0  0  0  0
   21.3966   16.8949   23.9045 H   0  0  0  0  0  0  0  0  0  0  0  0
   19.7738   17.6281   22.6759 C   0  0  0  0  0  0  0  0  0  0  0  0
   20.0087   17.5294   21.6092 H   0  0  0  0  0  0  0  0  0  0  0  0
   19.3641   16.6533   22.9722 H   0  0  0  0  0  0  0  0  0  0  0  0
   18.6506   18.6733   22.8903 C   0  0  0  0  0  0  0  0  0  0  0  0
   18.4498   18.7424   23.9692 H   0  0  0  0  0  0  0  0  0  0  0  0
   18.9270   20.1011   22.3553 C   0  0  0  0  0  0  0  0  0  0  0  0
   19.1402   20.0738   21.2796 H   0  0  0  0  0  0  0  0  0  0  0  0
   17.9943   20.6723   22.4508 H   0  0  0  0  0  0  0  0  0  0  0  0
   20.0251   20.8853   23.1224 C   0  0  0  0  0  0  0  0  0  0  0  0
   20.1328   20.4985   24.1421 H   0  0  0  0  0  0  0  0  0  0  0  0
   19.6784   21.9192   23.2563 H   0  0  0  0  0  0  0  0  0  0  0  0
   21.4042   20.9540   22.4180 C   0  0  0  0  0  0  0  0  0  0  0  0
   22.1499   21.3319   23.1305 H   0  0  0  0  0  0  0  0  0  0  0  0
   21.3393   21.7125   21.6260 H   0  0  0  0  0  0  0  0  0  0  0  0
   17.4838   18.1868   22.2390 O   0  0  0  0  0  0  0  0  0  0  0  0
   16.7634   18.8205   22.4381 H   0  0  0  0  0  0  0  0  0  0  0  0
  1  2  1  0  0  0  0
  1  3  1  0  0  0  0
  1  4  1  0  0  0  0
  4  5  1  0  0  0  0
  4  6  1  0  0  0  0
  4  7  1  0  0  0  0
  7  8  1  0  0  0  0
  7  9  1  0  0  0  0
  7 10  1  0  0  0  0
 10 11  1  0  0  0  0
 10 12  1  0  0  0  0
 10 13  1  0  0  0  0
 13 14  1  0  0  0  0
 13 15  1  0  0  0  0
 15 16  1  0  0  0  0
 15 17  1  0  0  0  0
 15 18  1  0  0  0  0
 18 19  1  0  0  0  0
 18 20  1  0  0  0  0
  1 21  1  0  0  0  0
 18 21  1  0  0  0  0
 21 22  1  0  0  0  0
 21 23  1  0  0  0  0
 13 24  1  0  0  0  0
 24 25  1  0  0  0  0
M  END
> <VConfSearch Rank>
444

> <Conf_Id>
24

> <Delta U+W>
-1.236

> <U+W>
9.678

> <U>
11.876

> <W>
-2.199

> <W(PB)>
-4.335

> <W(SA)>
2.137

> <Valence>
17.153

> <Coulomb>
-7.966

> <VdW>
2.689

> <VdW6>
-12.458

> <VdW12>
15.147

> <Bond>
0.421

> <Angle>
5.258

> <Pdih>
11.475

> <Idih>
0.000

> <Tether>
0.000

$$$$
VeraChem MOL file


 25 25  0  0  0  0  0  0  0  0999 V2000     
   19.4356   21.0798   22.0544 C   0  0  0  0  0  0  0  0  0  0  0  0
   18.4027   21.1965   21.6989 H   0  0  0  0  0  0  0  0  0  0  0  0
   19.8949   22.0736   21.9640 H   0  0  0  0  0  0  0  0  0  0  0  0
   19.4087   20.7015   23.5592 C   0  0  0  0  0  0  0  0  0  0  0  0
   20.3840   20.8943   24.0237 H   0  0  0  0  0  0  0  0  0  0  0  0
   18.7211   21.4021   24.0526 H   0  0  0  0  0  0  0  0  0  0  0  0
   18.9402   19.2628   23.8901 C   0  0  0  0  0  0  0  0  0  0  0  0
   18.1666   18.9323   23.1838 H   0  0  0  0  0  0  0  0  0  0  0  0
   18.4415   19.3070   24.8681 H   0  0  0  0  0  0  0  0  0  0  0  0
   20.0774   18.2092   24.0111 C   0  0  0  0  0  0  0  0  0  0  0  0
   20.9719   18.6510   24.4684 H   0  0  0  0  0  0  0  0  0  0  0  0
   19.7266   17.4503   24.7238 H   0  0  0  0  0  0  0  0  0  0  0  0
   20.4423   17.4860   22.6917 C   0  0  0  0  0  0  0  0  0  0  0  0
   19.5506   17.4570   22.0517 H   0  0  0  0  0  0  0  0  0  0  0  0
   21.6214   18.1053   21.8991 C   0  0  0  0  0  0  0  0  0  0  0  0
   22.5624   17.8994   22.4259 H   0  0  0  0  0  0  0  0  0  0  0  0
   21.6909   17.5764   20.9394 H   0  0  0  0  0  0  0  0  0  0  0  0
   21.5500   19.6265   21.6136 C   0  0  0  0  0  0  0  0  0  0  0  0
   22.3121   19.8677   20.8601 H   0  0  0  0  0  0  0  0  0  0  0  0
   21.8536   20.1849   22.5067 H   0  0  0  0  0  0  0  0  0  0  0  0
   20.1708   20.1092   21.0979 C   0  0  0  0  0  0  0  0  0  0  0  0
   19.5183   19.2606   20.8615 H   0  0  0  0  0  0  0  0  0  0  0  0
   20.3154   20.6241   20.1383 H   0  0  0  0  0  0  0  0  0  0  0  0
   20.8006   16.1453   23.0010 O   0  0  0  0  0  0  0  0  0  0  0  0
   21.5833   16.1959   23.5874 H   0  0  0  0  0  0  0  0  0  0  0  0
  1  2  1  0  0  0  0
  1  3  1  0  0  0  0
  1  4  1  0  0  0  0
  4  5  1  0  0  0  0
  4  6  1  0  0  0  0
  4  7  1  0  0  0  0
  7  8  1  0  0  0  0
  7  9  1  0  0  0  0
  7 10  1  0  0  0  0
 10 11  1  0  0  0  0
 10 12  1  0  0  0  0
 10 13  1  0  0  0  0
 13 14  1  0  0  0  0
 13 15  1  0  0  0  0
 15 16  1  0  0  0  0
 15 17  1  0  0  0  0
 15 18  1  0  0  0  0
 18 19  1  0  0  0  0
 18 20  1  0  0  0  0
  1 21  1  0  0  0  0
 18 21  1  0  0  0  0
 21 22  1  0  0  0  0
 21 23  1  0  0  0  0
 13 24  1  0  0  0  0
 24 25  1  0  0  0  0
M  END
> <VConfSearch Rank>
445

> <Conf_Id>
167

> <Delta U+W>
0.388

> <U+W>
11.301

> <U>
13.202

> <W>
-1.901

> <W(PB)>
-4.065

> <W(SA)>
2.163

> <Valence>
18.957

> <Coulomb>
-8.753

> <VdW>
2.998

> <VdW6>
-12.294

> <VdW12>
15.292

> <Bond>
0.419

> <Angle>
4.543

> <Pdih>
13.996

> <Idih>
0.000

> <Tether>
0.000

$$$$
VeraChem MOL file


 25 25  0  0  0  0  0  0  0  0999 V2000     
   20.0184   18.0414   20.9985 C   0  0  0  0  0  0  0  0  0  0  0  0
   20.4679   17.0415   20.9297 H   0  0  0  0  0  0  0  0  0  0  0  0
   19.4365   18.1683   20.0753 H   0  0  0  0  0  0  0  0  0  0  0  0
   21.1500   19.1020   20.9922 C   0  0  0  0  0  0  0  0  0  0  0  0
   21.9939   18.7706   21.6076 H   0  0  0  0  0  0  0  0  0  0  0  0
   21.5541   19.1355   19.9711 H   0  0  0  0  0  0  0  0  0  0  0  0
   20.7197   20.5386   21.3869 C   0  0  0  0  0  0  0  0  0  0  0  0
   19.6534   20.7011   21.1835 H   0  0  0  0  0  0  0  0  0  0  0  0
   21.2478   21.2358   20.7221 H   0  0  0  0  0  0  0  0  0  0  0  0
   21.0712   20.9477   22.8434 C   0  0  0  0  0  0  0  0  0  0  0  0
   22.1483   20.8152   23.0098 H   0  0  0  0  0  0  0  0  0  0  0  0
   20.8878   22.0263   22.9368 H   0  0  0  0  0  0  0  0  0  0  0  0
   20.2893   20.2389   23.9772 C   0  0  0  0  0  0  0  0  0  0  0  0
   19.2121   20.3446   23.7912 H   0  0  0  0  0  0  0  0  0  0  0  0
   20.6474   18.7403   24.1522 C   0  0  0  0  0  0  0  0  0  0  0  0
   21.6359   18.5373   23.7280 H   0  0  0  0  0  0  0  0  0  0  0  0
   20.7583   18.5125   25.2208 H   0  0  0  0  0  0  0  0  0  0  0  0
   19.6043   17.7461   23.5791 C   0  0  0  0  0  0  0  0  0  0  0  0
   18.7647   17.6930   24.2857 H   0  0  0  0  0  0  0  0  0  0  0  0
   20.0433   16.7394   23.5621 H   0  0  0  0  0  0  0  0  0  0  0  0
   19.0190   18.0725   22.1820 C   0  0  0  0  0  0  0  0  0  0  0  0
   18.4827   19.0280   22.2024 H   0  0  0  0  0  0  0  0  0  0  0  0
   18.2422   17.3246   21.9718 H   0  0  0  0  0  0  0  0  0  0  0  0
   20.5977   20.9148   25.1906 O   0  0  0  0  0  0  0  0  0  0  0  0
   20.0462   20.5038   25.8888 H   0  0  0  0  0  0  0  0  0  0  0  0
  1  2  1  0  0  0  0
  1  3  1  0  0  0  0
  1  4  1  0  0  0  0
  4  5  1  0  0  0  0
  4  6  1  0  0  0  0
  4  7  1  0  0  0  0
  7  8  1  0  0  0  0
  7  9  1  0  0  0  0
  7 10  1  0  0  0  0
 10 11  1  0  0  0  0
 10 12  1  0  0  0  0
 10 13  1  0  0  0  0
 13 14  1  0  0  0  0
 13 15  1  0  0  0  0
 15 16  1  0  0  0  0
 15 17  1  0  0  0  0
 15 18  1  0  0  0  0
 18 19  1  0  0  0  0
 18 20  1  0  0  0  0
  1 21  1  0  0  0  0
 18 21  1  0  0  0  0
 21 22  1  0  0  0  0
 21 23  1  0  0  0  0
 13 24  1  0  0  0  0
 24 25  1  0  0  0  0
M  END
> <VConfSearch Rank>
446

> <Conf_Id>
60

> <Delta U+W>
-1.838

> <U+W>
9.075

> <U>
11.150

> <W>
-2.074

> <W(PB)>
-4.196

> <W(SA)>
2.121

> <Valence>
16.582

> <Coulomb>
-8.361

> <VdW>
2.928

> <VdW6>
-12.539

> <VdW12>
15.467

> <Bond>
0.441

> <Angle>
5.093

> <Pdih>
11.049

> <Idih>
0.000

> <Tether>
0.000

$$$$
VeraChem MOL file


 25 25  0  0  0  0  0  0  0  0999 V2000     
   22.2823   19.3818   22.0375 C   0  0  0  0  0  0  0  0  0  0  0  0
   22.7100   18.7148   21.2768 H   0  0  0  0  0  0  0  0  0  0  0  0
   23.1005   20.0501   22.3387 H   0  0  0  0  0  0  0  0  0  0  0  0
   21.8844   18.5492   23.2821 C   0  0  0  0  0  0  0  0  0  0  0  0
   22.8003   18.0795   23.6659 H   0  0  0  0  0  0  0  0  0  0  0  0
   21.5535   19.2094   24.0919 H   0  0  0  0  0  0  0  0  0  0  0  0
   20.8526   17.4176   23.0456 C   0  0  0  0  0  0  0  0  0  0  0  0
   20.7626   16.8506   23.9822 H   0  0  0  0  0  0  0  0  0  0  0  0
   21.2531   16.7103   22.3068 H   0  0  0  0  0  0  0  0  0  0  0  0
   19.4278   17.8474   22.6098 C   0  0  0  0  0  0  0  0  0  0  0  0
   19.4056   18.0465   21.5336 H   0  0  0  0  0  0  0  0  0  0  0  0
   18.7732   16.9750   22.7383 H   0  0  0  0  0  0  0  0  0  0  0  0
   18.8406   19.0537   23.3875 C   0  0  0  0  0  0  0  0  0  0  0  0
   19.3789   19.1820   24.3362 H   0  0  0  0  0  0  0  0  0  0  0  0
   18.8726   20.3885   22.6023 C   0  0  0  0  0  0  0  0  0  0  0  0
   18.3634   20.2532   21.6391 H   0  0  0  0  0  0  0  0  0  0  0  0
   18.2661   21.1159   23.1580 H   0  0  0  0  0  0  0  0  0  0  0  0
   20.2673   21.0287   22.3636 C   0  0  0  0  0  0  0  0  0  0  0  0
   20.7800   21.2116   23.3167 H   0  0  0  0  0  0  0  0  0  0  0  0
   20.0932   22.0255   21.9359 H   0  0  0  0  0  0  0  0  0  0  0  0
   21.1803   20.2524   21.3794 C   0  0  0  0  0  0  0  0  0  0  0  0
   21.6891   20.9841   20.7369 H   0  0  0  0  0  0  0  0  0  0  0  0
   20.5780   19.6546   20.6862 H   0  0  0  0  0  0  0  0  0  0  0  0
   17.4786   18.7706   23.6858 O   0  0  0  0  0  0  0  0  0  0  0  0
   17.4748   17.9628   24.2407 H   0  0  0  0  0  0  0  0  0  0  0  0
  1  2  1  0  0  0  0
  1  3  1  0  0  0  0
  1  4  1  0  0  0  0
  4  5  1  0  0  0  0
  4  6  1  0  0  0  0
  4  7  1  0  0  0  0
  7  8  1  0  0  0  0
  7  9  1  0  0  0  0
  7 10  1  0  0  0  0
 10 11  1  0  0  0  0
 10 12  1  0  0  0  0
 10 13  1  0  0  0  0
 13 14  1  0  0  0  0
 13 15  1  0  0  0  0
 15 16  1  0  0  0  0
 15 17  1  0  0  0  0
 15 18  1  0  0  0  0
 18 19  1  0  0  0  0
 18 20  1  0  0  0  0
  1 21  1  0  0  0  0
 18 21  1  0  0  0  0
 21 22  1  0  0  0  0
 21 23  1  0  0  0  0
 13 24  1  0  0  0  0
 24 25  1  0  0  0  0
M  END
> <VConfSearch Rank>
447

> <Conf_Id>
129

> <Delta U+W>
-1.846

> <U+W>
9.067

> <U>
11.150

> <W>
-2.083

> <W(PB)>
-4.217

> <W(SA)>
2.134

> <Valence>
16.583

> <Coulomb>
-8.361

> <VdW>
2.928

> <VdW6>
-12.539

> <VdW12>
15.467

> <Bond>
0.441

> <Angle>
5.093

> <Pdih>
11.049

> <Idih>
0.000

> <Tether>
0.000

$$$$
VeraChem MOL file


 25 25  0  0  0  0  0  0  0  0999 V2000     
   18.2532   18.9911   22.2477 C   0  0  0  0  0  0  0  0  0  0  0  0
   17.7822   17.9990   22.2649 H   0  0  0  0  0  0  0  0  0  0  0  0
   17.4479   19.6970   22.0027 H   0  0  0  0  0  0  0  0  0  0  0  0
   19.2844   19.0477   21.0928 C   0  0  0  0  0  0  0  0  0  0  0  0
   18.7350   18.8763   20.1570 H   0  0  0  0  0  0  0  0  0  0  0  0
   19.6895   20.0612   20.9925 H   0  0  0  0  0  0  0  0  0  0  0  0
   20.4308   18.0071   21.1495 C   0  0  0  0  0  0  0  0  0  0  0  0
   21.0035   18.0953   20.2161 H   0  0  0  0  0  0  0  0  0  0  0  0
   20.0033   16.9953   21.1420 H   0  0  0  0  0  0  0  0  0  0  0  0
   21.4286   18.1236   22.3310 C   0  0  0  0  0  0  0  0  0  0  0  0
   21.0109   17.6515   23.2261 H   0  0  0  0  0  0  0  0  0  0  0  0
   22.3011   17.5074   22.0744 H   0  0  0  0  0  0  0  0  0  0  0  0
   21.8985   19.5657   22.6535 C   0  0  0  0  0  0  0  0  0  0  0  0
   21.7302   20.2132   21.7828 H   0  0  0  0  0  0  0  0  0  0  0  0
   21.2188   20.1940   23.8962 C   0  0  0  0  0  0  0  0  0  0  0  0
   21.3591   19.5342   24.7623 H   0  0  0  0  0  0  0  0  0  0  0  0
   21.7564   21.1208   24.1374 H   0  0  0  0  0  0  0  0  0  0  0  0
   19.7133   20.5514   23.7662 C   0  0  0  0  0  0  0  0  0  0  0  0
   19.5484   21.2460   22.9325 H   0  0  0  0  0  0  0  0  0  0  0  0
   19.4388   21.1159   24.6678 H   0  0  0  0  0  0  0  0  0  0  0  0
   18.7614   19.3309   23.6727 C   0  0  0  0  0  0  0  0  0  0  0  0
   17.8762   19.5403   24.2890 H   0  0  0  0  0  0  0  0  0  0  0  0
   19.2166   18.4507   24.1406 H   0  0  0  0  0  0  0  0  0  0  0  0
   23.2968   19.5305   22.9100 O   0  0  0  0  0  0  0  0  0  0  0  0
   23.4204   18.9522   23.6906 H   0  0  0  0  0  0  0  0  0  0  0  0
  1  2  1  0  0  0  0
  1  3  1  0  0  0  0
  1  4  1  0  0  0  0
  4  5  1  0  0  0  0
  4  6  1  0  0  0  0
  4  7  1  0  0  0  0
  7  8  1  0  0  0  0
  7  9  1  0  0  0  0
  7 10  1  0  0  0  0
 10 11  1  0  0  0  0
 10 12  1  0  0  0  0
 10 13  1  0  0  0  0
 13 14  1  0  0  0  0
 13 15  1  0  0  0  0
 15 16  1  0  0  0  0
 15 17  1  0  0  0  0
 15 18  1  0  0  0  0
 18 19  1  0  0  0  0
 18 20  1  0  0  0  0
  1 21  1  0  0  0  0
 18 21  1  0  0  0  0
 21 22  1  0  0  0  0
 21 23  1  0  0  0  0
 13 24  1  0  0  0  0
 24 25  1  0  0  0  0
M  END
> <VConfSearch Rank>
448

> <Conf_Id>
140

> <Delta U+W>
-1.702

> <U+W>
9.211

> <U>
11.181

> <W>
-1.969

> <W(PB)>
-4.093

> <W(SA)>
2.124

> <Valence>
16.954

> <Coulomb>
-8.661

> <VdW>
2.887

> <VdW6>
-12.561

> <VdW12>
15.448

> <Bond>
0.433

> <Angle>
5.120

> <Pdih>
11.401

> <Idih>
0.000

> <Tether>
0.000

$$$$
VeraChem MOL file


 25 25  0  0  0  0  0  0  0  0999 V2000     
   19.9903   20.3536   20.9774 C   0  0  0  0  0  0  0  0  0  0  0  0
   20.8333   20.8671   20.4956 H   0  0  0  0  0  0  0  0  0  0  0  0
   19.1023   20.6289   20.3920 H   0  0  0  0  0  0  0  0  0  0  0  0
   19.8071   20.9221   22.4083 C   0  0  0  0  0  0  0  0  0  0  0  0
   20.7792   21.0766   22.8899 H   0  0  0  0  0  0  0  0  0  0  0  0
   19.3912   21.9334   22.3024 H   0  0  0  0  0  0  0  0  0  0  0  0
   18.8646   20.1078   23.3321 C   0  0  0  0  0  0  0  0  0  0  0  0
   18.1399   19.5286   22.7455 H   0  0  0  0  0  0  0  0  0  0  0  0
   18.2613   20.8261   23.9040 H   0  0  0  0  0  0  0  0  0  0  0  0
   19.5886   19.2012   24.3641 C   0  0  0  0  0  0  0  0  0  0  0  0
   20.2739   19.8142   24.9640 H   0  0  0  0  0  0  0  0  0  0  0  0
   18.8289   18.8306   25.0653 H   0  0  0  0  0  0  0  0  0  0  0  0
   20.3504   17.9737   23.8039 C   0  0  0  0  0  0  0  0  0  0  0  0
   19.6699   17.3794   23.1798 H   0  0  0  0  0  0  0  0  0  0  0  0
   21.6250   18.3292   22.9954 C   0  0  0  0  0  0  0  0  0  0  0  0
   21.9894   19.3219   23.2787 H   0  0  0  0  0  0  0  0  0  0  0  0
   22.4361   17.6450   23.2790 H   0  0  0  0  0  0  0  0  0  0  0  0
   21.4728   18.2346   21.4549 C   0  0  0  0  0  0  0  0  0  0  0  0
   21.5183   17.1726   21.1774 H   0  0  0  0  0  0  0  0  0  0  0  0
   22.3454   18.7038   20.9808 H   0  0  0  0  0  0  0  0  0  0  0  0
   20.1780   18.8219   20.8393 C   0  0  0  0  0  0  0  0  0  0  0  0
   19.2967   18.2937   21.2210 H   0  0  0  0  0  0  0  0  0  0  0  0
   20.1944   18.5913   19.7654 H   0  0  0  0  0  0  0  0  0  0  0  0
   20.7374   17.1743   24.9145 O   0  0  0  0  0  0  0  0  0  0  0  0
   21.3384   17.7259   25.4563 H   0  0  0  0  0  0  0  0  0  0  0  0
  1  2  1  0  0  0  0
  1  3  1  0  0  0  0
  1  4  1  0  0  0  0
  4  5  1  0  0  0  0
  4  6  1  0  0  0  0
  4  7  1  0  0  0  0
  7  8  1  0  0  0  0
  7  9  1  0  0  0  0
  7 10  1  0  0  0  0
 10 11  1  0  0  0  0
 10 12  1  0  0  0  0
 10 13  1  0  0  0  0
 13 14  1  0  0  0  0
 13 15  1  0  0  0  0
 15 16  1  0  0  0  0
 15 17  1  0  0  0  0
 15 18  1  0  0  0  0
 18 19  1  0  0  0  0
 18 20  1  0  0  0  0
  1 21  1  0  0  0  0
 18 21  1  0  0  0  0
 21 22  1  0  0  0  0
 21 23  1  0  0  0  0
 13 24  1  0  0  0  0
 24 25  1  0  0  0  0
M  END
> <VConfSearch Rank>
449

> <Conf_Id>
68

> <Delta U+W>
-1.765

> <U+W>
9.148

> <U>
11.181

> <W>
-2.032

> <W(PB)>
-4.147

> <W(SA)>
2.114

> <Valence>
16.955

> <Coulomb>
-8.661

> <VdW>
2.887

> <VdW6>
-12.561

> <VdW12>
15.448

> <Bond>
0.433

> <Angle>
5.121

> <Pdih>
11.402

> <Idih>
0.000

> <Tether>
0.000

$$$$
VeraChem MOL file


 25 25  0  0  0  0  0  0  0  0999 V2000     
   19.7603   20.4445   21.3623 C   0  0  0  0  0  0  0  0  0  0  0  0
   19.5664   21.1378   20.5323 H   0  0  0  0  0  0  0  0  0  0  0  0
   19.2166   20.8772   22.2097 H   0  0  0  0  0  0  0  0  0  0  0  0
   21.2864   20.4397   21.6385 C   0  0  0  0  0  0  0  0  0  0  0  0
   21.7818   19.6160   21.1087 H   0  0  0  0  0  0  0  0  0  0  0  0
   21.7044   21.3551   21.1977 H   0  0  0  0  0  0  0  0  0  0  0  0
   21.6763   20.4420   23.1400 C   0  0  0  0  0  0  0  0  0  0  0  0
   21.2069   21.3020   23.6371 H   0  0  0  0  0  0  0  0  0  0  0  0
   22.7584   20.6202   23.2034 H   0  0  0  0  0  0  0  0  0  0  0  0
   21.3625   19.1516   23.9432 C   0  0  0  0  0  0  0  0  0  0  0  0
   21.8482   18.2853   23.4784 H   0  0  0  0  0  0  0  0  0  0  0  0
   21.8477   19.2631   24.9224 H   0  0  0  0  0  0  0  0  0  0  0  0
   19.8513   18.8855   24.1676 C   0  0  0  0  0  0  0  0  0  0  0  0
   19.2987   19.8214   24.0250 H   0  0  0  0  0  0  0  0  0  0  0  0
   19.2426   17.7923   23.2552 C   0  0  0  0  0  0  0  0  0  0  0  0
   19.5392   16.8092   23.6440 H   0  0  0  0  0  0  0  0  0  0  0  0
   18.1495   17.8342   23.3464 H   0  0  0  0  0  0  0  0  0  0  0  0
   19.6248   17.8301   21.7530 C   0  0  0  0  0  0  0  0  0  0  0  0
   19.1714   16.9494   21.2781 H   0  0  0  0  0  0  0  0  0  0  0  0
   20.7042   17.6864   21.6282 H   0  0  0  0  0  0  0  0  0  0  0  0
   19.1524   19.0753   20.9615 C   0  0  0  0  0  0  0  0  0  0  0  0
   18.0572   19.1433   21.0107 H   0  0  0  0  0  0  0  0  0  0  0  0
   19.3909   18.9005   19.9033 H   0  0  0  0  0  0  0  0  0  0  0  0
   19.6592   18.4733   25.5151 O   0  0  0  0  0  0  0  0  0  0  0  0
   20.1734   17.6477   25.6282 H   0  0  0  0  0  0  0  0  0  0  0  0
  1  2  1  0  0  0  0
  1  3  1  0  0  0  0
  1  4  1  0  0  0  0
  4  5  1  0  0  0  0
  4  6  1  0  0  0  0
  4  7  1  0  0  0  0
  7  8  1  0  0  0  0
  7  9  1  0  0  0  0
  7 10  1  0  0  0  0
 10 11  1  0  0  0  0
 10 12  1  0  0  0  0
 10 13  1  0  0  0  0
 13 14  1  0  0  0  0
 13 15  1  0  0  0  0
 15 16  1  0  0  0  0
 15 17  1  0  0  0  0
 15 18  1  0  0  0  0
 18 19  1  0  0  0  0
 18 20  1  0  0  0  0
  1 21  1  0  0  0  0
 18 21  1  0  0  0  0
 21 22  1  0  0  0  0
 21 23  1  0  0  0  0
 13 24  1  0  0  0  0
 24 25  1  0  0  0  0
M  END
> <VConfSearch Rank>
450

> <Conf_Id>
165

> <Delta U+W>
-1.999

> <U+W>
8.915

> <U>
10.935

> <W>
-2.020

> <W(PB)>
-4.135

> <W(SA)>
2.115

> <Valence>
16.757

> <Coulomb>
-8.731

> <VdW>
2.908

> <VdW6>
-12.597

> <VdW12>
15.506

> <Bond>
0.434

> <Angle>
5.069

> <Pdih>
11.254

> <Idih>
0.000

> <Tether>
0.000

$$$$
VeraChem MOL file


 25 25  0  0  0  0  0  0  0  0999 V2000     
   21.9447   18.4084   22.9722 C   0  0  0  0  0  0  0  0  0  0  0  0
   22.9224   17.9179   23.0747 H   0  0  0  0  0  0  0  0  0  0  0  0
   21.8326   18.9852   23.8971 H   0  0  0  0  0  0  0  0  0  0  0  0
   20.8792   17.2842   22.8929 C   0  0  0  0  0  0  0  0  0  0  0  0
   21.2779   16.4911   22.2457 H   0  0  0  0  0  0  0  0  0  0  0  0
   20.7679   16.8277   23.8858 H   0  0  0  0  0  0  0  0  0  0  0  0
   19.4816   17.6679   22.3452 C   0  0  0  0  0  0  0  0  0  0  0  0
   18.8949   16.7424   22.2681 H   0  0  0  0  0  0  0  0  0  0  0  0
   19.5630   18.0299   21.3139 H   0  0  0  0  0  0  0  0  0  0  0  0
   18.6621   18.6635   23.2060 C   0  0  0  0  0  0  0  0  0  0  0  0
   17.6664   18.7500   22.7501 H   0  0  0  0  0  0  0  0  0  0  0  0
   18.5031   18.2255   24.1997 H   0  0  0  0  0  0  0  0  0  0  0  0
   19.2398   20.0897   23.3796 C   0  0  0  0  0  0  0  0  0  0  0  0
   20.0448   20.0658   24.1234 H   0  0  0  0  0  0  0  0  0  0  0  0
   19.7785   20.7319   22.0752 C   0  0  0  0  0  0  0  0  0  0  0  0
   19.3205   20.2681   21.1936 H   0  0  0  0  0  0  0  0  0  0  0  0
   19.4553   21.7813   22.0461 H   0  0  0  0  0  0  0  0  0  0  0  0
   21.3253   20.7322   21.9474 C   0  0  0  0  0  0  0  0  0  0  0  0
   21.7617   21.2289   22.8249 H   0  0  0  0  0  0  0  0  0  0  0  0
   21.5895   21.3652   21.0894 H   0  0  0  0  0  0  0  0  0  0  0  0
   22.0075   19.3538   21.7442 C   0  0  0  0  0  0  0  0  0  0  0  0
   23.0676   19.5493   21.5321 H   0  0  0  0  0  0  0  0  0  0  0  0
   21.6231   18.8582   20.8435 H   0  0  0  0  0  0  0  0  0  0  0  0
   18.1971   20.9123   23.8911 O   0  0  0  0  0  0  0  0  0  0  0  0
   17.9072   20.5081   24.7355 H   0  0  0  0  0  0  0  0  0  0  0  0
  1  2  1  0  0  0  0
  1  3  1  0  0  0  0
  1  4  1  0  0  0  0
  4  5  1  0  0  0  0
  4  6  1  0  0  0  0
  4  7  1  0  0  0  0
  7  8  1  0  0  0  0
  7  9  1  0  0  0  0
  7 10  1  0  0  0  0
 10 11  1  0  0  0  0
 10 12  1  0  0  0  0
 10 13  1  0  0  0  0
 13 14  1  0  0  0  0
 13 15  1  0  0  0  0
 15 16  1  0  0  0  0
 15 17  1  0  0  0  0
 15 18  1  0  0  0  0
 18 19  1  0  0  0  0
 18 20  1  0  0  0  0
  1 21  1  0  0  0  0
 18 21  1  0  0  0  0
 21 22  1  0  0  0  0
 21 23  1  0  0  0  0
 13 24  1  0  0  0  0
 24 25  1  0  0  0  0
M  END
> <VConfSearch Rank>
451

> <Conf_Id>
133

> <Delta U+W>
-2.139

> <U+W>
8.774

> <U>
10.905

> <W>
-2.131

> <W(PB)>
-4.281

> <W(SA)>
2.150

> <Valence>
16.378

> <Coulomb>
-8.448

> <VdW>
2.976

> <VdW6>
-12.570

> <VdW12>
15.545

> <Bond>
0.439

> <Angle>
5.049

> <Pdih>
10.889

> <Idih>
0.000

> <Tether>
0.000

$$$$
VeraChem MOL file


 25 25  0  0  0  0  0  0  0  0999 V2000     
   18.6727   20.0138   23.0451 C   0  0  0  0  0  0  0  0  0  0  0  0
   17.7021   20.4285   23.3502 H   0  0  0  0  0  0  0  0  0  0  0  0
   18.8371   20.4197   22.0406 H   0  0  0  0  0  0  0  0  0  0  0  0
   18.5410   18.4693   22.9944 C   0  0  0  0  0  0  0  0  0  0  0  0
   18.8737   18.0128   23.9355 H   0  0  0  0  0  0  0  0  0  0  0  0
   17.4707   18.2314   22.9244 H   0  0  0  0  0  0  0  0  0  0  0  0
   19.2342   17.7957   21.7809 C   0  0  0  0  0  0  0  0  0  0  0  0
   18.8484   18.2350   20.8508 H   0  0  0  0  0  0  0  0  0  0  0  0
   18.9223   16.7426   21.7605 H   0  0  0  0  0  0  0  0  0  0  0  0
   20.7858   17.8288   21.7582 C   0  0  0  0  0  0  0  0  0  0  0  0
   21.1931   17.3659   22.6648 H   0  0  0  0  0  0  0  0  0  0  0  0
   21.1073   17.1762   20.9352 H   0  0  0  0  0  0  0  0  0  0  0  0
   21.3971   19.2361   21.5345 C   0  0  0  0  0  0  0  0  0  0  0  0
   20.6353   19.8888   21.0923 H   0  0  0  0  0  0  0  0  0  0  0  0
   21.9634   19.9042   22.8115 C   0  0  0  0  0  0  0  0  0  0  0  0
   22.9317   19.4392   23.0412 H   0  0  0  0  0  0  0  0  0  0  0  0
   22.1782   20.9578   22.5911 H   0  0  0  0  0  0  0  0  0  0  0  0
   21.0961   19.8277   24.0944 C   0  0  0  0  0  0  0  0  0  0  0  0
   21.6771   20.2804   24.9094 H   0  0  0  0  0  0  0  0  0  0  0  0
   20.9567   18.7847   24.4009 H   0  0  0  0  0  0  0  0  0  0  0  0
   19.7316   20.5594   24.0384 C   0  0  0  0  0  0  0  0  0  0  0  0
   19.8986   21.6252   23.8319 H   0  0  0  0  0  0  0  0  0  0  0  0
   19.2966   20.5180   25.0464 H   0  0  0  0  0  0  0  0  0  0  0  0
   22.4673   19.1212   20.6035 O   0  0  0  0  0  0  0  0  0  0  0  0
   22.8042   20.0281   20.4472 H   0  0  0  0  0  0  0  0  0  0  0  0
  1  2  1  0  0  0  0
  1  3  1  0  0  0  0
  1  4  1  0  0  0  0
  4  5  1  0  0  0  0
  4  6  1  0  0  0  0
  4  7  1  0  0  0  0
  7  8  1  0  0  0  0
  7  9  1  0  0  0  0
  7 10  1  0  0  0  0
 10 11  1  0  0  0  0
 10 12  1  0  0  0  0
 10 13  1  0  0  0  0
 13 14  1  0  0  0  0
 13 15  1  0  0  0  0
 15 16  1  0  0  0  0
 15 17  1  0  0  0  0
 15 18  1  0  0  0  0
 18 19  1  0  0  0  0
 18 20  1  0  0  0  0
  1 21  1  0  0  0  0
 18 21  1  0  0  0  0
 21 22  1  0  0  0  0
 21 23  1  0  0  0  0
 13 24  1  0  0  0  0
 24 25  1  0  0  0  0
M  END
> <VConfSearch Rank>
452

> <Conf_Id>
95

> <Delta U+W>
-2.190

> <U+W>
8.723

> <U>
10.905

> <W>
-2.182

> <W(PB)>
-4.296

> <W(SA)>
2.114

> <Valence>
16.377

> <Coulomb>
-8.448

> <VdW>
2.976

> <VdW6>
-12.570

> <VdW12>
15.546

> <Bond>
0.439

> <Angle>
5.049

> <Pdih>
10.889

> <Idih>
0.000

> <Tether>
0.000

$$$$
VeraChem MOL file


 25 25  0  0  0  0  0  0  0  0999 V2000     
   21.6788   19.9593   23.5530 C   0  0  0  0  0  0  0  0  0  0  0  0
   22.4404   20.5281   24.1037 H   0  0  0  0  0  0  0  0  0  0  0  0
   22.2603   19.1860   23.0410 H   0  0  0  0  0  0  0  0  0  0  0  0
   21.0307   20.9381   22.5302 C   0  0  0  0  0  0  0  0  0  0  0  0
   20.9984   21.9301   23.0012 H   0  0  0  0  0  0  0  0  0  0  0  0
   21.7010   21.0467   21.6669 H   0  0  0  0  0  0  0  0  0  0  0  0
   19.5953   20.6302   22.0289 C   0  0  0  0  0  0  0  0  0  0  0  0
   19.2670   21.4817   21.4174 H   0  0  0  0  0  0  0  0  0  0  0  0
   18.9050   20.6441   22.8783 H   0  0  0  0  0  0  0  0  0  0  0  0
   19.3946   19.3451   21.1718 C   0  0  0  0  0  0  0  0  0  0  0  0
   18.3347   19.0604   21.2020 H   0  0  0  0  0  0  0  0  0  0  0  0
   19.5986   19.6198   20.1286 H   0  0  0  0  0  0  0  0  0  0  0  0
   20.2621   18.1029   21.4977 C   0  0  0  0  0  0  0  0  0  0  0  0
   21.3146   18.3938   21.4179 H   0  0  0  0  0  0  0  0  0  0  0  0
   20.0160   17.4116   22.8696 C   0  0  0  0  0  0  0  0  0  0  0  0
   19.1915   16.6968   22.7447 H   0  0  0  0  0  0  0  0  0  0  0  0
   20.8977   16.8052   23.1128 H   0  0  0  0  0  0  0  0  0  0  0  0
   19.6613   18.2991   24.0934 C   0  0  0  0  0  0  0  0  0  0  0  0
   19.4214   17.6293   24.9303 H   0  0  0  0  0  0  0  0  0  0  0  0
   18.7167   18.8178   23.9022 H   0  0  0  0  0  0  0  0  0  0  0  0
   20.7467   19.2936   24.5997 C   0  0  0  0  0  0  0  0  0  0  0  0
   21.3919   18.7468   25.3009 H   0  0  0  0  0  0  0  0  0  0  0  0
   20.2604   20.0751   25.1990 H   0  0  0  0  0  0  0  0  0  0  0  0
   20.0141   17.1340   20.4856 O   0  0  0  0  0  0  0  0  0  0  0  0
   20.2339   17.5566   19.6294 H   0  0  0  0  0  0  0  0  0  0  0  0
  1  2  1  0  0  0  0
  1  3  1  0  0  0  0
  1  4  1  0  0  0  0
  4  5  1  0  0  0  0
  4  6  1  0  0  0  0
  4  7  1  0  0  0  0
  7  8  1  0  0  0  0
  7  9  1  0  0  0  0
  7 10  1  0  0  0  0
 10 11  1  0  0  0  0
 10 12  1  0  0  0  0
 10 13  1  0  0  0  0
 13 14  1  0  0  0  0
 13 15  1  0  0  0  0
 15 16  1  0  0  0  0
 15 17  1  0  0  0  0
 15 18  1  0  0  0  0
 18 19  1  0  0  0  0
 18 20  1  0  0  0  0
  1 21  1  0  0  0  0
 18 21  1  0  0  0  0
 21 22  1  0  0  0  0
 21 23  1  0  0  0  0
 13 24  1  0  0  0  0
 24 25  1  0  0  0  0
M  END
> <VConfSearch Rank>
453

> <Conf_Id>
161

> <Delta U+W>
2.120

> <U+W>
13.033

> <U>
15.076

> <W>
-2.043

> <W(PB)>
-4.186

> <W(SA)>
2.143

> <Valence>
18.884

> <Coulomb>
-8.074

> <VdW>
4.266

> <VdW6>
-13.486

> <VdW12>
17.752

> <Bond>
0.713

> <Angle>
8.955

> <Pdih>
9.215

> <Idih>
0.000

> <Tether>
0.000

$$$$
VeraChem MOL file


 25 25  0  0  0  0  0  0  0  0999 V2000     
   20.5980   17.2458   22.6009 C   0  0  0  0  0  0  0  0  0  0  0  0
   20.8581   16.2023   22.8251 H   0  0  0  0  0  0  0  0  0  0  0  0
   20.3635   17.2512   21.5289 H   0  0  0  0  0  0  0  0  0  0  0  0
   21.8479   18.1196   22.8729 C   0  0  0  0  0  0  0  0  0  0  0  0
   21.8915   18.4208   23.9281 H   0  0  0  0  0  0  0  0  0  0  0  0
   22.7253   17.4766   22.7182 H   0  0  0  0  0  0  0  0  0  0  0  0
   22.0164   19.3443   21.9311 C   0  0  0  0  0  0  0  0  0  0  0  0
   21.6996   19.1037   20.9073 H   0  0  0  0  0  0  0  0  0  0  0  0
   23.0944   19.5449   21.8616 H   0  0  0  0  0  0  0  0  0  0  0  0
   21.3471   20.6542   22.4215 C   0  0  0  0  0  0  0  0  0  0  0  0
   21.3935   20.7088   23.5159 H   0  0  0  0  0  0  0  0  0  0  0  0
   21.9609   21.4941   22.0701 H   0  0  0  0  0  0  0  0  0  0  0  0
   19.9069   20.9193   21.9139 C   0  0  0  0  0  0  0  0  0  0  0  0
   19.9645   21.1489   20.8403 H   0  0  0  0  0  0  0  0  0  0  0  0
   18.8929   19.7648   22.0869 C   0  0  0  0  0  0  0  0  0  0  0  0
   17.8852   20.1617   21.9047 H   0  0  0  0  0  0  0  0  0  0  0  0
   19.0466   19.0333   21.2863 H   0  0  0  0  0  0  0  0  0  0  0  0
   18.9160   19.0770   23.4781 C   0  0  0  0  0  0  0  0  0  0  0  0
   17.9115   19.1371   23.9187 H   0  0  0  0  0  0  0  0  0  0  0  0
   19.5632   19.6177   24.1780 H   0  0  0  0  0  0  0  0  0  0  0  0
   19.3372   17.5885   23.4380 C   0  0  0  0  0  0  0  0  0  0  0  0
   18.4980   16.9947   23.0507 H   0  0  0  0  0  0  0  0  0  0  0  0
   19.4931   17.2472   24.4705 H   0  0  0  0  0  0  0  0  0  0  0  0
   19.4034   22.0576   22.5988 O   0  0  0  0  0  0  0  0  0  0  0  0
   19.2382   21.7657   23.5182 H   0  0  0  0  0  0  0  0  0  0  0  0
  1  2  1  0  0  0  0
  1  3  1  0  0  0  0
  1  4  1  0  0  0  0
  4  5  1  0  0  0  0
  4  6  1  0  0  0  0
  4  7  1  0  0  0  0
  7  8  1  0  0  0  0
  7  9  1  0  0  0  0
  7 10  1  0  0  0  0
 10 11  1  0  0  0  0
 10 12  1  0  0  0  0
 10 13  1  0  0  0  0
 13 14  1  0  0  0  0
 13 15  1  0  0  0  0
 15 16  1  0  0  0  0
 15 17  1  0  0  0  0
 15 18  1  0  0  0  0
 18 19  1  0  0  0  0
 18 20  1  0  0  0  0
  1 21  1  0  0  0  0
 18 21  1  0  0  0  0
 21 22  1  0  0  0  0
 21 23  1  0  0  0  0
 13 24  1  0  0  0  0
 24 25  1  0  0  0  0
M  END
> <VConfSearch Rank>
454

> <Conf_Id>
164

> <Delta U+W>
0.008

> <U+W>
10.922

> <U>
12.433

> <W>
-1.511

> <W(PB)>
-3.669

> <W(SA)>
2.157

> <Valence>
19.007

> <Coulomb>
-9.373

> <VdW>
2.799

> <VdW6>
-12.597

> <VdW12>
15.396

> <Bond>
0.425

> <Angle>
4.784

> <Pdih>
13.799

> <Idih>
0.000

> <Tether>
0.000

$$$$
VeraChem MOL file


 25 25  0  0  0  0  0  0  0  0999 V2000     
   18.5249   19.0601   22.9389 C   0  0  0  0  0  0  0  0  0  0  0  0
   18.8857   19.7584   23.7026 H   0  0  0  0  0  0  0  0  0  0  0  0
   17.4464   18.9754   23.1295 H   0  0  0  0  0  0  0  0  0  0  0  0
   19.1417   17.6558   23.1558 C   0  0  0  0  0  0  0  0  0  0  0  0
   18.8379   17.3138   24.1547 H   0  0  0  0  0  0  0  0  0  0  0  0
   18.6887   16.9474   22.4491 H   0  0  0  0  0  0  0  0  0  0  0  0
   20.6848   17.5398   23.0646 C   0  0  0  0  0  0  0  0  0  0  0  0
   21.0027   17.4446   22.0201 H   0  0  0  0  0  0  0  0  0  0  0  0
   20.9654   16.5827   23.5253 H   0  0  0  0  0  0  0  0  0  0  0  0
   21.4774   18.6700   23.7741 C   0  0  0  0  0  0  0  0  0  0  0  0
   20.8799   19.1272   24.5721 H   0  0  0  0  0  0  0  0  0  0  0  0
   22.3302   18.2006   24.2826 H   0  0  0  0  0  0  0  0  0  0  0  0
   22.0549   19.7534   22.8290 C   0  0  0  0  0  0  0  0  0  0  0  0
   22.6389   19.2489   22.0461 H   0  0  0  0  0  0  0  0  0  0  0  0
   21.0300   20.6887   22.1395 C   0  0  0  0  0  0  0  0  0  0  0  0
   20.4179   21.2122   22.8838 H   0  0  0  0  0  0  0  0  0  0  0  0
   21.6046   21.4747   21.6314 H   0  0  0  0  0  0  0  0  0  0  0  0
   20.1386   20.0044   21.0690 C   0  0  0  0  0  0  0  0  0  0  0  0
   20.6333   19.1113   20.6706 H   0  0  0  0  0  0  0  0  0  0  0  0
   20.0572   20.6808   20.2071 H   0  0  0  0  0  0  0  0  0  0  0  0
   18.6954   19.6697   21.5251 C   0  0  0  0  0  0  0  0  0  0  0  0
   18.2331   19.0033   20.7844 H   0  0  0  0  0  0  0  0  0  0  0  0
   18.1098   20.5988   21.4948 H   0  0  0  0  0  0  0  0  0  0  0  0
   22.9344   20.5670   23.5930 O   0  0  0  0  0  0  0  0  0  0  0  0
   22.3850   20.9999   24.2782 H   0  0  0  0  0  0  0  0  0  0  0  0
  1  2  1  0  0  0  0
  1  3  1  0  0  0  0
  1  4  1  0  0  0  0
  4  5  1  0  0  0  0
  4  6  1  0  0  0  0
  4  7  1  0  0  0  0
  7  8  1  0  0  0  0
  7  9  1  0  0  0  0
  7 10  1  0  0  0  0
 10 11  1  0  0  0  0
 10 12  1  0  0  0  0
 10 13  1  0  0  0  0
 13 14  1  0  0  0  0
 13 15  1  0  0  0  0
 15 16  1  0  0  0  0
 15 17  1  0  0  0  0
 15 18  1  0  0  0  0
 18 19  1  0  0  0  0
 18 20  1  0  0  0  0
  1 21  1  0  0  0  0
 18 21  1  0  0  0  0
 21 22  1  0  0  0  0
 21 23  1  0  0  0  0
 13 24  1  0  0  0  0
 24 25  1  0  0  0  0
M  END
> <VConfSearch Rank>
455

> <Conf_Id>
15

> <Delta U+W>
-1.271

> <U+W>
9.643

> <U>
11.413

> <W>
-1.770

> <W(PB)>
-3.908

> <W(SA)>
2.138

> <Valence>
17.496

> <Coulomb>
-8.736

> <VdW>
2.653

> <VdW6>
-12.485

> <VdW12>
15.138

> <Bond>
0.414

> <Angle>
5.295

> <Pdih>
11.787

> <Idih>
0.000

> <Tether>
0.000

$$$$
VeraChem MOL file


 25 25  0  0  0  0  0  0  0  0999 V2000     
   18.4424   19.4994   22.7217 C   0  0  0  0  0  0  0  0  0  0  0  0
   17.3874   19.6863   22.9646 H   0  0  0  0  0  0  0  0  0  0  0  0
   18.4150   18.8410   21.8443 H   0  0  0  0  0  0  0  0  0  0  0  0
   19.0731   20.8694   22.3580 C   0  0  0  0  0  0  0  0  0  0  0  0
   18.6126   21.2193   21.4240 H   0  0  0  0  0  0  0  0  0  0  0  0
   18.7910   21.6049   23.1236 H   0  0  0  0  0  0  0  0  0  0  0  0
   20.6118   20.9041   22.1954 C   0  0  0  0  0  0  0  0  0  0  0  0
   21.0846   20.9292   23.1841 H   0  0  0  0  0  0  0  0  0  0  0  0
   20.8838   21.8613   21.7301 H   0  0  0  0  0  0  0  0  0  0  0  0
   21.1843   19.7498   21.3321 C   0  0  0  0  0  0  0  0  0  0  0  0
   20.3788   19.1880   20.8464 H   0  0  0  0  0  0  0  0  0  0  0  0
   21.7607   20.1871   20.5064 H   0  0  0  0  0  0  0  0  0  0  0  0
   22.1206   18.7834   22.0934 C   0  0  0  0  0  0  0  0  0  0  0  0
   23.0732   19.3063   22.2604 H   0  0  0  0  0  0  0  0  0  0  0  0
   21.6259   18.2841   23.4756 C   0  0  0  0  0  0  0  0  0  0  0  0
   22.3140   17.4896   23.7944 H   0  0  0  0  0  0  0  0  0  0  0  0
   21.7527   19.0729   24.2267 H   0  0  0  0  0  0  0  0  0  0  0  0
   20.1806   17.7226   23.5446 C   0  0  0  0  0  0  0  0  0  0  0  0
   20.1759   16.9571   24.3327 H   0  0  0  0  0  0  0  0  0  0  0  0
   19.9179   17.1885   22.6223 H   0  0  0  0  0  0  0  0  0  0  0  0
   19.0848   18.7579   23.9201 C   0  0  0  0  0  0  0  0  0  0  0  0
   19.4525   19.4718   24.6693 H   0  0  0  0  0  0  0  0  0  0  0  0
   18.2795   18.2018   24.4195 H   0  0  0  0  0  0  0  0  0  0  0  0
   22.3600   17.6538   21.2657 O   0  0  0  0  0  0  0  0  0  0  0  0
   21.5114   17.1689   21.2225 H   0  0  0  0  0  0  0  0  0  0  0  0
  1  2  1  0  0  0  0
  1  3  1  0  0  0  0
  1  4  1  0  0  0  0
  4  5  1  0  0  0  0
  4  6  1  0  0  0  0
  4  7  1  0  0  0  0
  7  8  1  0  0  0  0
  7  9  1  0  0  0  0
  7 10  1  0  0  0  0
 10 11  1  0  0  0  0
 10 12  1  0  0  0  0
 10 13  1  0  0  0  0
 13 14  1  0  0  0  0
 13 15  1  0  0  0  0
 15 16  1  0  0  0  0
 15 17  1  0  0  0  0
 15 18  1  0  0  0  0
 18 19  1  0  0  0  0
 18 20  1  0  0  0  0
  1 21  1  0  0  0  0
 18 21  1  0  0  0  0
 21 22  1  0  0  0  0
 21 23  1  0  0  0  0
 13 24  1  0  0  0  0
 24 25  1  0  0  0  0
M  END
> <VConfSearch Rank>
456

> <Conf_Id>
115

> <Delta U+W>
0.038

> <U+W>
10.952

> <U>
12.526

> <W>
-1.575

> <W(PB)>
-3.698

> <W(SA)>
2.123

> <Valence>
19.016

> <Coulomb>
-9.226

> <VdW>
2.737

> <VdW6>
-12.612

> <VdW12>
15.349

> <Bond>
0.421

> <Angle>
4.883

> <Pdih>
13.711

> <Idih>
0.000

> <Tether>
0.000

$$$$
VeraChem MOL file


 25 25  0  0  0  0  0  0  0  0999 V2000     
   19.2500   19.1093   20.8174 C   0  0  0  0  0  0  0  0  0  0  0  0
   19.1426   18.8449   19.7564 H   0  0  0  0  0  0  0  0  0  0  0  0
   18.2317   19.3157   21.1735 H   0  0  0  0  0  0  0  0  0  0  0  0
   20.1076   20.3943   20.8873 C   0  0  0  0  0  0  0  0  0  0  0  0
   21.0860   20.2207   20.4190 H   0  0  0  0  0  0  0  0  0  0  0  0
   19.6134   21.1532   20.2653 H   0  0  0  0  0  0  0  0  0  0  0  0
   20.2911   20.9860   22.3040 C   0  0  0  0  0  0  0  0  0  0  0  0
   19.3456   20.9422   22.8609 H   0  0  0  0  0  0  0  0  0  0  0  0
   20.5111   22.0561   22.1872 H   0  0  0  0  0  0  0  0  0  0  0  0
   21.4566   20.3563   23.1134 C   0  0  0  0  0  0  0  0  0  0  0  0
   22.1128   19.7587   22.4684 H   0  0  0  0  0  0  0  0  0  0  0  0
   22.0816   21.1807   23.4826 H   0  0  0  0  0  0  0  0  0  0  0  0
   21.0085   19.5184   24.3321 C   0  0  0  0  0  0  0  0  0  0  0  0
   20.1227   19.9896   24.7816 H   0  0  0  0  0  0  0  0  0  0  0  0
   20.6849   18.0416   24.0147 C   0  0  0  0  0  0  0  0  0  0  0  0
   21.5782   17.5385   23.6218 H   0  0  0  0  0  0  0  0  0  0  0  0
   20.4542   17.5418   24.9647 H   0  0  0  0  0  0  0  0  0  0  0  0
   19.4842   17.8141   23.0643 C   0  0  0  0  0  0  0  0  0  0  0  0
   18.6624   18.4979   23.3156 H   0  0  0  0  0  0  0  0  0  0  0  0
   19.0951   16.8063   23.2648 H   0  0  0  0  0  0  0  0  0  0  0  0
   19.8366   17.8830   21.5553 C   0  0  0  0  0  0  0  0  0  0  0  0
   19.4187   16.9852   21.0794 H   0  0  0  0  0  0  0  0  0  0  0  0
   20.9206   17.8199   21.3920 H   0  0  0  0  0  0  0  0  0  0  0  0
   22.0641   19.5290   25.2856 O   0  0  0  0  0  0  0  0  0  0  0  0
   21.7415   19.0395   26.0709 H   0  0  0  0  0  0  0  0  0  0  0  0
  1  2  1  0  0  0  0
  1  3  1  0  0  0  0
  1  4  1  0  0  0  0
  4  5  1  0  0  0  0
  4  6  1  0  0  0  0
  4  7  1  0  0  0  0
  7  8  1  0  0  0  0
  7  9  1  0  0  0  0
  7 10  1  0  0  0  0
 10 11  1  0  0  0  0
 10 12  1  0  0  0  0
 10 13  1  0  0  0  0
 13 14  1  0  0  0  0
 13 15  1  0  0  0  0
 15 16  1  0  0  0  0
 15 17  1  0  0  0  0
 15 18  1  0  0  0  0
 18 19  1  0  0  0  0
 18 20  1  0  0  0  0
  1 21  1  0  0  0  0
 18 21  1  0  0  0  0
 21 22  1  0  0  0  0
 21 23  1  0  0  0  0
 13 24  1  0  0  0  0
 24 25  1  0  0  0  0
M  END
> <VConfSearch Rank>
457

> <Conf_Id>
30

> <Delta U+W>
0.000

> <U+W>
10.913

> <U>
13.140

> <W>
-2.227

> <W(PB)>
-4.367

> <W(SA)>
2.140

> <Valence>
19.155

> <Coulomb>
-8.157

> <VdW>
2.142

> <VdW6>
-11.576

> <VdW12>
13.718

> <Bond>
0.294

> <Angle>
3.547

> <Pdih>
15.314

> <Idih>
0.000

> <Tether>
0.000

$$$$
VeraChem MOL file


 25 25  0  0  0  0  0  0  0  0999 V2000     
   20.2789   21.2185   21.8296 C   0  0  0  0  0  0  0  0  0  0  0  0
   19.5496   22.0394   21.8655 H   0  0  0  0  0  0  0  0  0  0  0  0
   21.0881   21.5690   21.1745 H   0  0  0  0  0  0  0  0  0  0  0  0
   19.6080   19.9945   21.1591 C   0  0  0  0  0  0  0  0  0  0  0  0
   19.0494   20.3524   20.2834 H   0  0  0  0  0  0  0  0  0  0  0  0
   20.3781   19.3335   20.7448 H   0  0  0  0  0  0  0  0  0  0  0  0
   18.6369   19.2121   22.0793 C   0  0  0  0  0  0  0  0  0  0  0  0
   17.6544   19.1586   21.5911 H   0  0  0  0  0  0  0  0  0  0  0  0
   18.4557   19.7563   23.0134 H   0  0  0  0  0  0  0  0  0  0  0  0
   19.0945   17.7661   22.3974 C   0  0  0  0  0  0  0  0  0  0  0  0
   18.4525   17.3665   23.1936 H   0  0  0  0  0  0  0  0  0  0  0  0
   18.9057   17.1402   21.5155 H   0  0  0  0  0  0  0  0  0  0  0  0
   20.5780   17.5743   22.8007 C   0  0  0  0  0  0  0  0  0  0  0  0
   21.2150   17.7276   21.9193 H   0  0  0  0  0  0  0  0  0  0  0  0
   21.0753   18.5002   23.9376 C   0  0  0  0  0  0  0  0  0  0  0  0
   20.2546   18.7295   24.6293 H   0  0  0  0  0  0  0  0  0  0  0  0
   21.8104   17.9437   24.5342 H   0  0  0  0  0  0  0  0  0  0  0  0
   21.7795   19.8024   23.4618 C   0  0  0  0  0  0  0  0  0  0  0  0
   22.3826   19.6224   22.5617 H   0  0  0  0  0  0  0  0  0  0  0  0
   22.4995   20.0796   24.2441 H   0  0  0  0  0  0  0  0  0  0  0  0
   20.8431   21.0197   23.2616 C   0  0  0  0  0  0  0  0  0  0  0  0
   21.4115   21.9266   23.5097 H   0  0  0  0  0  0  0  0  0  0  0  0
   20.0290   20.9912   23.9969 H   0  0  0  0  0  0  0  0  0  0  0  0
   20.7271   16.2240   23.2234 O   0  0  0  0  0  0  0  0  0  0  0  0
   21.6812   16.0872   23.4004 H   0  0  0  0  0  0  0  0  0  0  0  0
  1  2  1  0  0  0  0
  1  3  1  0  0  0  0
  1  4  1  0  0  0  0
  4  5  1  0  0  0  0
  4  6  1  0  0  0  0
  4  7  1  0  0  0  0
  7  8  1  0  0  0  0
  7  9  1  0  0  0  0
  7 10  1  0  0  0  0
 10 11  1  0  0  0  0
 10 12  1  0  0  0  0
 10 13  1  0  0  0  0
 13 14  1  0  0  0  0
 13 15  1  0  0  0  0
 15 16  1  0  0  0  0
 15 17  1  0  0  0  0
 15 18  1  0  0  0  0
 18 19  1  0  0  0  0
 18 20  1  0  0  0  0
  1 21  1  0  0  0  0
 18 21  1  0  0  0  0
 21 22  1  0  0  0  0
 21 23  1  0  0  0  0
 13 24  1  0  0  0  0
 24 25  1  0  0  0  0
M  END
> <VConfSearch Rank>
458

> <Conf_Id>
162

> <Delta U+W>
0.219

> <U+W>
11.132

> <U>
13.296

> <W>
-2.164

> <W(PB)>
-4.311

> <W(SA)>
2.148

> <Valence>
18.607

> <Coulomb>
-8.339

> <VdW>
3.028

> <VdW6>
-12.271

> <VdW12>
15.299

> <Bond>
0.423

> <Angle>
4.488

> <Pdih>
13.696

> <Idih>
0.000

> <Tether>
0.000

$$$$
VeraChem MOL file


 25 25  0  0  0  0  0  0  0  0999 V2000     
   20.9930   18.7707   24.5119 C   0  0  0  0  0  0  0  0  0  0  0  0
   20.5533   17.7761   24.3645 H   0  0  0  0  0  0  0  0  0  0  0  0
   21.4665   18.7231   25.5021 H   0  0  0  0  0  0  0  0  0  0  0  0
   22.1047   19.0180   23.4618 C   0  0  0  0  0  0  0  0  0  0  0  0
   22.3064   20.0921   23.3532 H   0  0  0  0  0  0  0  0  0  0  0  0
   23.0298   18.5885   23.8703 H   0  0  0  0  0  0  0  0  0  0  0  0
   21.8699   18.3482   22.0791 C   0  0  0  0  0  0  0  0  0  0  0  0
   21.3963   17.3636   22.1904 H   0  0  0  0  0  0  0  0  0  0  0  0
   22.8619   18.1464   21.6519 H   0  0  0  0  0  0  0  0  0  0  0  0
   21.1045   19.2149   21.0456 C   0  0  0  0  0  0  0  0  0  0  0  0
   21.3562   20.2734   21.1853 H   0  0  0  0  0  0  0  0  0  0  0  0
   21.4870   18.9629   20.0479 H   0  0  0  0  0  0  0  0  0  0  0  0
   19.5678   19.0231   20.9903 C   0  0  0  0  0  0  0  0  0  0  0  0
   19.3676   18.0338   20.5541 H   0  0  0  0  0  0  0  0  0  0  0  0
   18.8201   19.0889   22.3433 C   0  0  0  0  0  0  0  0  0  0  0  0
   17.7424   19.1517   22.1444 H   0  0  0  0  0  0  0  0  0  0  0  0
   18.9454   18.1343   22.8656 H   0  0  0  0  0  0  0  0  0  0  0  0
   19.2288   20.2762   23.2547 C   0  0  0  0  0  0  0  0  0  0  0  0
   18.3338   20.8705   23.4831 H   0  0  0  0  0  0  0  0  0  0  0  0
   19.8939   20.9669   22.7231 H   0  0  0  0  0  0  0  0  0  0  0  0
   19.8836   19.8528   24.5917 C   0  0  0  0  0  0  0  0  0  0  0  0
   19.0988   19.4879   25.2682 H   0  0  0  0  0  0  0  0  0  0  0  0
   20.2973   20.7505   25.0710 H   0  0  0  0  0  0  0  0  0  0  0  0
   19.0358   20.0232   20.1295 O   0  0  0  0  0  0  0  0  0  0  0  0
   18.0659   19.8894   20.1080 H   0  0  0  0  0  0  0  0  0  0  0  0
  1  2  1  0  0  0  0
  1  3  1  0  0  0  0
  1  4  1  0  0  0  0
  4  5  1  0  0  0  0
  4  6  1  0  0  0  0
  4  7  1  0  0  0  0
  7  8  1  0  0  0  0
  7  9  1  0  0  0  0
  7 10  1  0  0  0  0
 10 11  1  0  0  0  0
 10 12  1  0  0  0  0
 10 13  1  0  0  0  0
 13 14  1  0  0  0  0
 13 15  1  0  0  0  0
 15 16  1  0  0  0  0
 15 17  1  0  0  0  0
 15 18  1  0  0  0  0
 18 19  1  0  0  0  0
 18 20  1  0  0  0  0
  1 21  1  0  0  0  0
 18 21  1  0  0  0  0
 21 22  1  0  0  0  0
 21 23  1  0  0  0  0
 13 24  1  0  0  0  0
 24 25  1  0  0  0  0
M  END
> <VConfSearch Rank>
459

> <Conf_Id>
155

> <Delta U+W>
0.339

> <U+W>
11.252

> <U>
13.420

> <W>
-2.167

> <W(PB)>
-4.325

> <W(SA)>
2.157

> <Valence>
18.609

> <Coulomb>
-8.052

> <VdW>
2.863

> <VdW6>
-12.524

> <VdW12>
15.387

> <Bond>
0.430

> <Angle>
4.724

> <Pdih>
13.455

> <Idih>
0.000

> <Tether>
0.000

$$$$
VeraChem MOL file


 25 25  0  0  0  0  0  0  0  0999 V2000     
   20.2159   19.2018   20.6728 C   0  0  0  0  0  0  0  0  0  0  0  0
   20.5220   20.1381   20.1870 H   0  0  0  0  0  0  0  0  0  0  0  0
   19.9369   18.5252   19.8536 H   0  0  0  0  0  0  0  0  0  0  0  0
   21.4422   18.5694   21.3820 C   0  0  0  0  0  0  0  0  0  0  0  0
   21.1681   17.5816   21.7659 H   0  0  0  0  0  0  0  0  0  0  0  0
   22.1925   18.3462   20.6113 H   0  0  0  0  0  0  0  0  0  0  0  0
   22.1525   19.4128   22.4808 C   0  0  0  0  0  0  0  0  0  0  0  0
   22.8882   20.0552   21.9781 H   0  0  0  0  0  0  0  0  0  0  0  0
   22.7390   18.7407   23.1219 H   0  0  0  0  0  0  0  0  0  0  0  0
   21.2802   20.3355   23.3749 C   0  0  0  0  0  0  0  0  0  0  0  0
   21.9627   20.9453   23.9812 H   0  0  0  0  0  0  0  0  0  0  0  0
   20.7787   21.0759   22.7455 H   0  0  0  0  0  0  0  0  0  0  0  0
   20.2578   19.6643   24.3385 C   0  0  0  0  0  0  0  0  0  0  0  0
   19.4735   20.4018   24.5612 H   0  0  0  0  0  0  0  0  0  0  0  0
   19.5656   18.3630   23.8609 C   0  0  0  0  0  0  0  0  0  0  0  0
   20.3260   17.5945   23.6937 H   0  0  0  0  0  0  0  0  0  0  0  0
   18.9825   17.9708   24.7046 H   0  0  0  0  0  0  0  0  0  0  0  0
   18.5962   18.4575   22.6445 C   0  0  0  0  0  0  0  0  0  0  0  0
   17.6061   18.7315   23.0338 H   0  0  0  0  0  0  0  0  0  0  0  0
   18.4728   17.4562   22.2103 H   0  0  0  0  0  0  0  0  0  0  0  0
   18.9331   19.4657   21.5147 C   0  0  0  0  0  0  0  0  0  0  0  0
   18.9375   20.4812   21.9232 H   0  0  0  0  0  0  0  0  0  0  0  0
   18.0857   19.4749   20.8157 H   0  0  0  0  0  0  0  0  0  0  0  0
   20.9397   19.3505   25.5479 O   0  0  0  0  0  0  0  0  0  0  0  0
   21.3334   20.1853   25.8756 H   0  0  0  0  0  0  0  0  0  0  0  0
  1  2  1  0  0  0  0
  1  3  1  0  0  0  0
  1  4  1  0  0  0  0
  4  5  1  0  0  0  0
  4  6  1  0  0  0  0
  4  7  1  0  0  0  0
  7  8  1  0  0  0  0
  7  9  1  0  0  0  0
  7 10  1  0  0  0  0
 10 11  1  0  0  0  0
 10 12  1  0  0  0  0
 10 13  1  0  0  0  0
 13 14  1  0  0  0  0
 13 15  1  0  0  0  0
 15 16  1  0  0  0  0
 15 17  1  0  0  0  0
 15 18  1  0  0  0  0
 18 19  1  0  0  0  0
 18 20  1  0  0  0  0
  1 21  1  0  0  0  0
 18 21  1  0  0  0  0
 21 22  1  0  0  0  0
 21 23  1  0  0  0  0
 13 24  1  0  0  0  0
 24 25  1  0  0  0  0
M  END
> <VConfSearch Rank>
460

> <Conf_Id>
146

> <Delta U+W>
2.553

> <U+W>
13.466

> <U>
15.643

> <W>
-2.176

> <W(PB)>
-4.307

> <W(SA)>
2.131

> <Valence>
18.916

> <Coulomb>
-7.506

> <VdW>
4.232

> <VdW6>
-13.632

> <VdW12>
17.864

> <Bond>
0.735

> <Angle>
9.140

> <Pdih>
9.042

> <Idih>
0.000

> <Tether>
0.000

$$$$
VeraChem MOL file


 25 25  0  0  0  0  0  0  0  0999 V2000     
   21.6152   19.5878   24.2426 C   0  0  0  0  0  0  0  0  0  0  0  0
   21.7757   18.8542   25.0442 H   0  0  0  0  0  0  0  0  0  0  0  0
   22.2583   20.4432   24.4909 H   0  0  0  0  0  0  0  0  0  0  0  0
   20.1481   20.0834   24.2894 C   0  0  0  0  0  0  0  0  0  0  0  0
   19.9950   20.5560   25.2692 H   0  0  0  0  0  0  0  0  0  0  0  0
   19.9959   20.8928   23.5663 H   0  0  0  0  0  0  0  0  0  0  0  0
   19.0554   18.9970   24.1275 C   0  0  0  0  0  0  0  0  0  0  0  0
   18.0828   19.4782   24.2990 H   0  0  0  0  0  0  0  0  0  0  0  0
   19.1637   18.2511   24.9265 H   0  0  0  0  0  0  0  0  0  0  0  0
   18.9882   18.2655   22.7614 C   0  0  0  0  0  0  0  0  0  0  0  0
   19.7311   17.4625   22.7230 H   0  0  0  0  0  0  0  0  0  0  0  0
   18.0211   17.7463   22.7207 H   0  0  0  0  0  0  0  0  0  0  0  0
   19.1244   19.1807   21.5173 C   0  0  0  0  0  0  0  0  0  0  0  0
   18.8917   20.2174   21.7954 H   0  0  0  0  0  0  0  0  0  0  0  0
   20.5191   19.1309   20.8434 C   0  0  0  0  0  0  0  0  0  0  0  0
   20.7631   18.0892   20.5964 H   0  0  0  0  0  0  0  0  0  0  0  0
   20.4496   19.6552   19.8813 H   0  0  0  0  0  0  0  0  0  0  0  0
   21.7009   19.7623   21.6284 C   0  0  0  0  0  0  0  0  0  0  0  0
   21.4993   20.8173   21.8544 H   0  0  0  0  0  0  0  0  0  0  0  0
   22.5654   19.7748   20.9506 H   0  0  0  0  0  0  0  0  0  0  0  0
   22.1215   18.9890   22.9049 C   0  0  0  0  0  0  0  0  0  0  0  0
   23.2191   18.9783   22.9516 H   0  0  0  0  0  0  0  0  0  0  0  0
   21.8423   17.9324   22.8244 H   0  0  0  0  0  0  0  0  0  0  0  0
   18.1715   18.7555   20.5495 O   0  0  0  0  0  0  0  0  0  0  0  0
   18.2329   19.3810   19.7977 H   0  0  0  0  0  0  0  0  0  0  0  0
  1  2  1  0  0  0  0
  1  3  1  0  0  0  0
  1  4  1  0  0  0  0
  4  5  1  0  0  0  0
  4  6  1  0  0  0  0
  4  7  1  0  0  0  0
  7  8  1  0  0  0  0
  7  9  1  0  0  0  0
  7 10  1  0  0  0  0
 10 11  1  0  0  0  0
 10 12  1  0  0  0  0
 10 13  1  0  0  0  0
 13 14  1  0  0  0  0
 13 15  1  0  0  0  0
 15 16  1  0  0  0  0
 15 17  1  0  0  0  0
 15 18  1  0  0  0  0
 18 19  1  0  0  0  0
 18 20  1  0  0  0  0
  1 21  1  0  0  0  0
 18 21  1  0  0  0  0
 21 22  1  0  0  0  0
 21 23  1  0  0  0  0
 13 24  1  0  0  0  0
 24 25  1  0  0  0  0
M  END
> <VConfSearch Rank>
461

> <Conf_Id>
62

> <Delta U+W>
-1.779

> <U+W>
9.134

> <U>
11.364

> <W>
-2.230

> <W(PB)>
-4.359

> <W(SA)>
2.129

> <Valence>
16.582

> <Coulomb>
-8.150

> <VdW>
2.933

> <VdW6>
-12.531

> <VdW12>
15.464

> <Bond>
0.439

> <Angle>
5.099

> <Pdih>
11.044

> <Idih>
0.000

> <Tether>
0.000

$$$$
VeraChem MOL file


 25 25  0  0  0  0  0  0  0  0999 V2000     
   19.6310   19.9507   24.2110 C   0  0  0  0  0  0  0  0  0  0  0  0
   19.4588   18.8748   24.3291 H   0  0  0  0  0  0  0  0  0  0  0  0
   19.1836   20.4022   25.1069 H   0  0  0  0  0  0  0  0  0  0  0  0
   18.8526   20.4911   22.9856 C   0  0  0  0  0  0  0  0  0  0  0  0
   17.7859   20.2953   23.1612 H   0  0  0  0  0  0  0  0  0  0  0  0
   18.9512   21.5844   22.9465 H   0  0  0  0  0  0  0  0  0  0  0  0
   19.2203   19.9029   21.5995 C   0  0  0  0  0  0  0  0  0  0  0  0
   20.0973   20.4132   21.1854 H   0  0  0  0  0  0  0  0  0  0  0  0
   18.4031   20.1601   20.9117 H   0  0  0  0  0  0  0  0  0  0  0  0
   19.4181   18.3638   21.5635 C   0  0  0  0  0  0  0  0  0  0  0  0
   18.8761   17.8771   22.3836 H   0  0  0  0  0  0  0  0  0  0  0  0
   18.9422   17.9972   20.6445 H   0  0  0  0  0  0  0  0  0  0  0  0
   20.8953   17.8962   21.5362 C   0  0  0  0  0  0  0  0  0  0  0  0
   21.4044   18.4106   20.7085 H   0  0  0  0  0  0  0  0  0  0  0  0
   21.7167   18.1335   22.8281 C   0  0  0  0  0  0  0  0  0  0  0  0
   21.2407   17.6380   23.6829 H   0  0  0  0  0  0  0  0  0  0  0  0
   22.6775   17.6188   22.6951 H   0  0  0  0  0  0  0  0  0  0  0  0
   22.0279   19.6211   23.1439 C   0  0  0  0  0  0  0  0  0  0  0  0
   21.9964   20.2229   22.2286 H   0  0  0  0  0  0  0  0  0  0  0  0
   23.0712   19.6889   23.4813 H   0  0  0  0  0  0  0  0  0  0  0  0
   21.1481   20.2619   24.2477 C   0  0  0  0  0  0  0  0  0  0  0  0
   21.2958   21.3503   24.2343 H   0  0  0  0  0  0  0  0  0  0  0  0
   21.5298   19.9224   25.2202 H   0  0  0  0  0  0  0  0  0  0  0  0
   20.9005   16.4979   21.2770 O   0  0  0  0  0  0  0  0  0  0  0  0
   20.4376   16.3665   20.4234 H   0  0  0  0  0  0  0  0  0  0  0  0
  1  2  1  0  0  0  0
  1  3  1  0  0  0  0
  1  4  1  0  0  0  0
  4  5  1  0  0  0  0
  4  6  1  0  0  0  0
  4  7  1  0  0  0  0
  7  8  1  0  0  0  0
  7  9  1  0  0  0  0
  7 10  1  0  0  0  0
 10 11  1  0  0  0  0
 10 12  1  0  0  0  0
 10 13  1  0  0  0  0
 13 14  1  0  0  0  0
 13 15  1  0  0  0  0
 15 16  1  0  0  0  0
 15 17  1  0  0  0  0
 15 18  1  0  0  0  0
 18 19  1  0  0  0  0
 18 20  1  0  0  0  0
  1 21  1  0  0  0  0
 18 21  1  0  0  0  0
 21 22  1  0  0  0  0
 21 23  1  0  0  0  0
 13 24  1  0  0  0  0
 24 25  1  0  0  0  0
M  END
> <VConfSearch Rank>
462

> <Conf_Id>
121

> <Delta U+W>
-1.283

> <U+W>
9.630

> <U>
11.876

> <W>
-2.246

> <W(PB)>
-4.376

> <W(SA)>
2.130

> <Valence>
17.153

> <Coulomb>
-7.966

> <VdW>
2.689

> <VdW6>
-12.458

> <VdW12>
15.147

> <Bond>
0.421

> <Angle>
5.258

> <Pdih>
11.475

> <Idih>
0.000

> <Tether>
0.000

$$$$
VeraChem MOL file


 25 25  0  0  0  0  0  0  0  0999 V2000     
   20.8658   18.1449   21.2647 C   0  0  0  0  0  0  0  0  0  0  0  0
   19.7981   18.3177   21.0882 H   0  0  0  0  0  0  0  0  0  0  0  0
   21.1841   17.5053   20.4303 H   0  0  0  0  0  0  0  0  0  0  0  0
   21.0735   17.3362   22.5696 C   0  0  0  0  0  0  0  0  0  0  0  0
   20.5502   16.3778   22.4489 H   0  0  0  0  0  0  0  0  0  0  0  0
   22.1371   17.0826   22.6742 H   0  0  0  0  0  0  0  0  0  0  0  0
   20.5783   17.9831   23.8883 C   0  0  0  0  0  0  0  0  0  0  0  0
   21.3284   18.6787   24.2813 H   0  0  0  0  0  0  0  0  0  0  0  0
   20.5239   17.1843   24.6405 H   0  0  0  0  0  0  0  0  0  0  0  0
   19.1882   18.6694   23.8094 C   0  0  0  0  0  0  0  0  0  0  0  0
   18.5839   18.2483   22.9969 H   0  0  0  0  0  0  0  0  0  0  0  0
   18.6464   18.4192   24.7311 H   0  0  0  0  0  0  0  0  0  0  0  0
   19.2255   20.2152   23.7136 C   0  0  0  0  0  0  0  0  0  0  0  0
   19.8418   20.5939   24.5416 H   0  0  0  0  0  0  0  0  0  0  0  0
   19.7704   20.8105   22.3907 C   0  0  0  0  0  0  0  0  0  0  0  0
   19.1846   20.4490   21.5366 H   0  0  0  0  0  0  0  0  0  0  0  0
   19.5958   21.8939   22.4234 H   0  0  0  0  0  0  0  0  0  0  0  0
   21.2899   20.5981   22.1555 C   0  0  0  0  0  0  0  0  0  0  0  0
   21.8091   20.4463   23.1085 H   0  0  0  0  0  0  0  0  0  0  0  0
   21.7100   21.5330   21.7600 H   0  0  0  0  0  0  0  0  0  0  0  0
   21.6539   19.4738   21.1524 C   0  0  0  0  0  0  0  0  0  0  0  0
   22.7298   19.2650   21.2261 H   0  0  0  0  0  0  0  0  0  0  0  0
   21.4962   19.8649   20.1380 H   0  0  0  0  0  0  0  0  0  0  0  0
   17.8943   20.6863   23.8826 O   0  0  0  0  0  0  0  0  0  0  0  0
   17.9390   21.6651   23.8886 H   0  0  0  0  0  0  0  0  0  0  0  0
  1  2  1  0  0  0  0
  1  3  1  0  0  0  0
  1  4  1  0  0  0  0
  4  5  1  0  0  0  0
  4  6  1  0  0  0  0
  4  7  1  0  0  0  0
  7  8  1  0  0  0  0
  7  9  1  0  0  0  0
  7 10  1  0  0  0  0
 10 11  1  0  0  0  0
 10 12  1  0  0  0  0
 10 13  1  0  0  0  0
 13 14  1  0  0  0  0
 13 15  1  0  0  0  0
 15 16  1  0  0  0  0
 15 17  1  0  0  0  0
 15 18  1  0  0  0  0
 18 19  1  0  0  0  0
 18 20  1  0  0  0  0
  1 21  1  0  0  0  0
 18 21  1  0  0  0  0
 21 22  1  0  0  0  0
 21 23  1  0  0  0  0
 13 24  1  0  0  0  0
 24 25  1  0  0  0  0
M  END
> <VConfSearch Rank>
463

> <Conf_Id>
24

> <Delta U+W>
-1.236

> <U+W>
9.678

> <U>
11.876

> <W>
-2.199

> <W(PB)>
-4.335

> <W(SA)>
2.137

> <Valence>
17.153

> <Coulomb>
-7.966

> <VdW>
2.689

> <VdW6>
-12.458

> <VdW12>
15.147

> <Bond>
0.421

> <Angle>
5.258

> <Pdih>
11.475

> <Idih>
0.000

> <Tether>
0.000

$$$$
VeraChem MOL file


 25 25  0  0  0  0  0  0  0  0999 V2000     
   21.2667   17.3384   23.0732 C   0  0  0  0  0  0  0  0  0  0  0  0
   22.1953   17.2831   23.6576 H   0  0  0  0  0  0  0  0  0  0  0  0
   21.0602   16.3104   22.7458 H   0  0  0  0  0  0  0  0  0  0  0  0
   20.1109   17.7829   24.0084 C   0  0  0  0  0  0  0  0  0  0  0  0
   19.1380   17.5388   23.5633 H   0  0  0  0  0  0  0  0  0  0  0  0
   20.1703   17.1572   24.9095 H   0  0  0  0  0  0  0  0  0  0  0  0
   20.1308   19.2653   24.4565 C   0  0  0  0  0  0  0  0  0  0  0  0
   21.1624   19.6210   24.5820 H   0  0  0  0  0  0  0  0  0  0  0  0
   19.6867   19.3007   25.4608 H   0  0  0  0  0  0  0  0  0  0  0  0
   19.3065   20.2361   23.5644 C   0  0  0  0  0  0  0  0  0  0  0  0
   18.3933   19.7497   23.1983 H   0  0  0  0  0  0  0  0  0  0  0  0
   18.9647   21.0493   24.2193 H   0  0  0  0  0  0  0  0  0  0  0  0
   20.0912   20.8722   22.3910 C   0  0  0  0  0  0  0  0  0  0  0  0
   21.1497   20.9392   22.6751 H   0  0  0  0  0  0  0  0  0  0  0  0
   19.9710   20.1335   21.0339 C   0  0  0  0  0  0  0  0  0  0  0  0
   18.9663   20.2919   20.6207 H   0  0  0  0  0  0  0  0  0  0  0  0
   20.6654   20.6134   20.3317 H   0  0  0  0  0  0  0  0  0  0  0  0
   20.2572   18.6107   21.0386 C   0  0  0  0  0  0  0  0  0  0  0  0
   20.3647   18.2812   19.9962 H   0  0  0  0  0  0  0  0  0  0  0  0
   19.3798   18.0708   21.4132 H   0  0  0  0  0  0  0  0  0  0  0  0
   21.5332   18.2094   21.8210 C   0  0  0  0  0  0  0  0  0  0  0  0
   22.1171   19.0928   22.1045 H   0  0  0  0  0  0  0  0  0  0  0  0
   22.1935   17.6439   21.1494 H   0  0  0  0  0  0  0  0  0  0  0  0
   19.6080   22.1949   22.1949 O   0  0  0  0  0  0  0  0  0  0  0  0
   18.6601   22.1121   21.9633 H   0  0  0  0  0  0  0  0  0  0  0  0
  1  2  1  0  0  0  0
  1  3  1  0  0  0  0
  1  4  1  0  0  0  0
  4  5  1  0  0  0  0
  4  6  1  0  0  0  0
  4  7  1  0  0  0  0
  7  8  1  0  0  0  0
  7  9  1  0  0  0  0
  7 10  1  0  0  0  0
 10 11  1  0  0  0  0
 10 12  1  0  0  0  0
 10 13  1  0  0  0  0
 13 14  1  0  0  0  0
 13 15  1  0  0  0  0
 15 16  1  0  0  0  0
 15 17  1  0  0  0  0
 15 18  1  0  0  0  0
 18 19  1  0  0  0  0
 18 20  1  0  0  0  0
  1 21  1  0  0  0  0
 18 21  1  0  0  0  0
 21 22  1  0  0  0  0
 21 23  1  0  0  0  0
 13 24  1  0  0  0  0
 24 25  1  0  0  0  0
M  END
> <VConfSearch Rank>
464

> <Conf_Id>
167

> <Delta U+W>
0.388

> <U+W>
11.301

> <U>
13.202

> <W>
-1.901

> <W(PB)>
-4.065

> <W(SA)>
2.163

> <Valence>
18.957

> <Coulomb>
-8.753

> <VdW>
2.998

> <VdW6>
-12.294

> <VdW12>
15.292

> <Bond>
0.419

> <Angle>
4.543

> <Pdih>
13.996

> <Idih>
0.000

> <Tether>
0.000

$$$$
VeraChem MOL file


 25 25  0  0  0  0  0  0  0  0999 V2000     
   19.0152   20.5051   23.6452 C   0  0  0  0  0  0  0  0  0  0  0  0
   17.9310   20.3289   23.6465 H   0  0  0  0  0  0  0  0  0  0  0  0
   19.1701   21.4008   24.2622 H   0  0  0  0  0  0  0  0  0  0  0  0
   19.4672   20.8434   22.2008 C   0  0  0  0  0  0  0  0  0  0  0  0
   18.9540   20.2025   21.4750 H   0  0  0  0  0  0  0  0  0  0  0  0
   19.1012   21.8550   21.9776 H   0  0  0  0  0  0  0  0  0  0  0  0
   20.9988   20.8214   21.9588 C   0  0  0  0  0  0  0  0  0  0  0  0
   21.5482   21.0104   22.8901 H   0  0  0  0  0  0  0  0  0  0  0  0
   21.2420   21.6703   21.3053 H   0  0  0  0  0  0  0  0  0  0  0  0
   21.5297   19.5422   21.2559 C   0  0  0  0  0  0  0  0  0  0  0  0
   20.9940   19.3973   20.3087 H   0  0  0  0  0  0  0  0  0  0  0  0
   22.5759   19.7277   20.9789 H   0  0  0  0  0  0  0  0  0  0  0  0
   21.4867   18.2264   22.0722 C   0  0  0  0  0  0  0  0  0  0  0  0
   21.9946   18.3832   23.0332 H   0  0  0  0  0  0  0  0  0  0  0  0
   20.0564   17.6798   22.3172 C   0  0  0  0  0  0  0  0  0  0  0  0
   19.3664   18.0813   21.5682 H   0  0  0  0  0  0  0  0  0  0  0  0
   20.0441   16.5954   22.1444 H   0  0  0  0  0  0  0  0  0  0  0  0
   19.4981   17.9214   23.7436 C   0  0  0  0  0  0  0  0  0  0  0  0
   19.9619   17.1873   24.4166 H   0  0  0  0  0  0  0  0  0  0  0  0
   18.4237   17.6930   23.7492 H   0  0  0  0  0  0  0  0  0  0  0  0
   19.7256   19.3261   24.3567 C   0  0  0  0  0  0  0  0  0  0  0  0
   20.7969   19.5331   24.4590 H   0  0  0  0  0  0  0  0  0  0  0  0
   19.3508   19.2954   25.3889 H   0  0  0  0  0  0  0  0  0  0  0  0
   22.2170   17.2497   21.3394 O   0  0  0  0  0  0  0  0  0  0  0  0
   22.2426   16.4429   21.8952 H   0  0  0  0  0  0  0  0  0  0  0  0
  1  2  1  0  0  0  0
  1  3  1  0  0  0  0
  1  4  1  0  0  0  0
  4  5  1  0  0  0  0
  4  6  1  0  0  0  0
  4  7  1  0  0  0  0
  7  8  1  0  0  0  0
  7  9  1  0  0  0  0
  7 10  1  0  0  0  0
 10 11  1  0  0  0  0
 10 12  1  0  0  0  0
 10 13  1  0  0  0  0
 13 14  1  0  0  0  0
 13 15  1  0  0  0  0
 15 16  1  0  0  0  0
 15 17  1  0  0  0  0
 15 18  1  0  0  0  0
 18 19  1  0  0  0  0
 18 20  1  0  0  0  0
  1 21  1  0  0  0  0
 18 21  1  0  0  0  0
 21 22  1  0  0  0  0
 21 23  1  0  0  0  0
 13 24  1  0  0  0  0
 24 25  1  0  0  0  0
M  END
> <VConfSearch Rank>
465

> <Conf_Id>
60

> <Delta U+W>
-1.838

> <U+W>
9.075

> <U>
11.150

> <W>
-2.074

> <W(PB)>
-4.196

> <W(SA)>
2.121

> <Valence>
16.582

> <Coulomb>
-8.361

> <VdW>
2.928

> <VdW6>
-12.539

> <VdW12>
15.467

> <Bond>
0.441

> <Angle>
5.093

> <Pdih>
11.049

> <Idih>
0.000

> <Tether>
0.000

$$$$
VeraChem MOL file


 25 25  0  0  0  0  0  0  0  0999 V2000     
   21.4008   20.5429   23.7787 C   0  0  0  0  0  0  0  0  0  0  0  0
   22.3648   20.9364   23.4289 H   0  0  0  0  0  0  0  0  0  0  0  0
   21.2365   20.9967   24.7655 H   0  0  0  0  0  0  0  0  0  0  0  0
   21.5193   19.0123   23.9885 C   0  0  0  0  0  0  0  0  0  0  0  0
   22.2921   18.8472   24.7516 H   0  0  0  0  0  0  0  0  0  0  0  0
   20.6007   18.6174   24.4372 H   0  0  0  0  0  0  0  0  0  0  0  0
   21.9185   18.1810   22.7434 C   0  0  0  0  0  0  0  0  0  0  0  0
   22.0746   17.1448   23.0732 H   0  0  0  0  0  0  0  0  0  0  0  0
   22.8940   18.5261   22.3746 H   0  0  0  0  0  0  0  0  0  0  0  0
   20.9134   18.1591   21.5627 C   0  0  0  0  0  0  0  0  0  0  0  0
   21.0255   19.0620   20.9541 H   0  0  0  0  0  0  0  0  0  0  0  0
   21.2164   17.3418   20.8949 H   0  0  0  0  0  0  0  0  0  0  0  0
   19.4288   17.9711   21.9696 C   0  0  0  0  0  0  0  0  0  0  0  0
   19.3713   17.5435   22.9795 H   0  0  0  0  0  0  0  0  0  0  0  0
   18.5904   19.2727   21.9221 C   0  0  0  0  0  0  0  0  0  0  0  0
   18.6731   19.7194   20.9226 H   0  0  0  0  0  0  0  0  0  0  0  0
   17.5346   18.9926   22.0346 H   0  0  0  0  0  0  0  0  0  0  0  0
   18.9049   20.3494   22.9964 C   0  0  0  0  0  0  0  0  0  0  0  0
   18.7889   19.9366   24.0069 H   0  0  0  0  0  0  0  0  0  0  0  0
   18.1290   21.1225   22.9118 H   0  0  0  0  0  0  0  0  0  0  0  0
   20.2794   21.0489   22.8343 C   0  0  0  0  0  0  0  0  0  0  0  0
   20.1437   22.1194   23.0405 H   0  0  0  0  0  0  0  0  0  0  0  0
   20.6084   21.0130   21.7897 H   0  0  0  0  0  0  0  0  0  0  0  0
   18.8323   17.0502   21.0639 O   0  0  0  0  0  0  0  0  0  0  0  0
   19.3272   16.2089   21.1525 H   0  0  0  0  0  0  0  0  0  0  0  0
  1  2  1  0  0  0  0
  1  3  1  0  0  0  0
  1  4  1  0  0  0  0
  4  5  1  0  0  0  0
  4  6  1  0  0  0  0
  4  7  1  0  0  0  0
  7  8  1  0  0  0  0
  7  9  1  0  0  0  0
  7 10  1  0  0  0  0
 10 11  1  0  0  0  0
 10 12  1  0  0  0  0
 10 13  1  0  0  0  0
 13 14  1  0  0  0  0
 13 15  1  0  0  0  0
 15 16  1  0  0  0  0
 15 17  1  0  0  0  0
 15 18  1  0  0  0  0
 18 19  1  0  0  0  0
 18 20  1  0  0  0  0
  1 21  1  0  0  0  0
 18 21  1  0  0  0  0
 21 22  1  0  0  0  0
 21 23  1  0  0  0  0
 13 24  1  0  0  0  0
 24 25  1  0  0  0  0
M  END
> <VConfSearch Rank>
466

> <Conf_Id>
129

> <Delta U+W>
-1.846

> <U+W>
9.067

> <U>
11.150

> <W>
-2.083

> <W(PB)>
-4.217

> <W(SA)>
2.134

> <Valence>
16.583

> <Coulomb>
-8.361

> <VdW>
2.928

> <VdW6>
-12.539

> <VdW12>
15.467

> <Bond>
0.441

> <Angle>
5.093

> <Pdih>
11.049

> <Idih>
0.000

> <Tether>
0.000

$$$$
VeraChem MOL file


 25 25  0  0  0  0  0  0  0  0999 V2000     
   21.0412   20.4465   24.1097 C   0  0  0  0  0  0  0  0  0  0  0  0
   20.3930   20.8869   24.8794 H   0  0  0  0  0  0  0  0  0  0  0  0
   22.0553   20.8022   24.3377 H   0  0  0  0  0  0  0  0  0  0  0  0
   20.6515   21.0190   22.7239 C   0  0  0  0  0  0  0  0  0  0  0  0
   20.8037   22.1062   22.7661 H   0  0  0  0  0  0  0  0  0  0  0  0
   21.3534   20.6724   21.9569 H   0  0  0  0  0  0  0  0  0  0  0  0
   19.1894   20.7772   22.2720 C   0  0  0  0  0  0  0  0  0  0  0  0
   19.0357   21.3352   21.3381 H   0  0  0  0  0  0  0  0  0  0  0  0
   18.5043   21.2267   23.0035 H   0  0  0  0  0  0  0  0  0  0  0  0
   18.7647   19.3069   22.0214 C   0  0  0  0  0  0  0  0  0  0  0  0
   18.5091   18.8209   22.9685 H   0  0  0  0  0  0  0  0  0  0  0  0
   17.8197   19.3381   21.4622 H   0  0  0  0  0  0  0  0  0  0  0  0
   19.7936   18.4508   21.2385 C   0  0  0  0  0  0  0  0  0  0  0  0
   20.4811   19.1083   20.6899 H   0  0  0  0  0  0  0  0  0  0  0  0
   20.6140   17.4764   22.1209 C   0  0  0  0  0  0  0  0  0  0  0  0
   19.9293   16.8376   22.6939 H   0  0  0  0  0  0  0  0  0  0  0  0
   21.1617   16.8003   21.4507 H   0  0  0  0  0  0  0  0  0  0  0  0
   21.6499   18.1100   23.0886 C   0  0  0  0  0  0  0  0  0  0  0  0
   22.3755   18.7214   22.5367 H   0  0  0  0  0  0  0  0  0  0  0  0
   22.2365   17.2849   23.5153 H   0  0  0  0  0  0  0  0  0  0  0  0
   21.0349   18.9042   24.2699 C   0  0  0  0  0  0  0  0  0  0  0  0
   21.6127   18.6719   25.1751 H   0  0  0  0  0  0  0  0  0  0  0  0
   20.0244   18.5431   24.4920 H   0  0  0  0  0  0  0  0  0  0  0  0
   19.0860   17.6651   20.2876 O   0  0  0  0  0  0  0  0  0  0  0  0
   18.4848   17.0862   20.7997 H   0  0  0  0  0  0  0  0  0  0  0  0
  1  2  1  0  0  0  0
  1  3  1  0  0  0  0
  1  4  1  0  0  0  0
  4  5  1  0  0  0  0
  4  6  1  0  0  0  0
  4  7  1  0  0  0  0
  7  8  1  0  0  0  0
  7  9  1  0  0  0  0
  7 10  1  0  0  0  0
 10 11  1  0  0  0  0
 10 12  1  0  0  0  0
 10 13  1  0  0  0  0
 13 14  1  0  0  0  0
 13 15  1  0  0  0  0
 15 16  1  0  0  0  0
 15 17  1  0  0  0  0
 15 18  1  0  0  0  0
 18 19  1  0  0  0  0
 18 20  1  0  0  0  0
  1 21  1  0  0  0  0
 18 21  1  0  0  0  0
 21 22  1  0  0  0  0
 21 23  1  0  0  0  0
 13 24  1  0  0  0  0
 24 25  1  0  0  0  0
M  END
> <VConfSearch Rank>
467

> <Conf_Id>
140

> <Delta U+W>
-1.702

> <U+W>
9.211

> <U>
11.181

> <W>
-1.969

> <W(PB)>
-4.093

> <W(SA)>
2.124

> <Valence>
16.954

> <Coulomb>
-8.661

> <VdW>
2.887

> <VdW6>
-12.561

> <VdW12>
15.448

> <Bond>
0.433

> <Angle>
5.120

> <Pdih>
11.401

> <Idih>
0.000

> <Tether>
0.000

$$$$
VeraChem MOL file


 25 25  0  0  0  0  0  0  0  0999 V2000     
   21.4447   20.7707   23.2507 C   0  0  0  0  0  0  0  0  0  0  0  0
   21.7327   21.5591   22.5422 H   0  0  0  0  0  0  0  0  0  0  0  0
   21.9043   21.0509   24.2083 H   0  0  0  0  0  0  0  0  0  0  0  0
   22.0794   19.4308   22.7966 C   0  0  0  0  0  0  0  0  0  0  0  0
   22.0149   19.3221   21.7081 H   0  0  0  0  0  0  0  0  0  0  0  0
   23.1568   19.4992   23.0006 H   0  0  0  0  0  0  0  0  0  0  0  0
   21.5346   18.1630   23.5041 C   0  0  0  0  0  0  0  0  0  0  0  0
   21.1256   18.4073   24.4930 H   0  0  0  0  0  0  0  0  0  0  0  0
   22.3898   17.5028   23.7032 H   0  0  0  0  0  0  0  0  0  0  0  0
   20.5123   17.3421   22.6723 C   0  0  0  0  0  0  0  0  0  0  0  0
   20.9637   17.0758   21.7077 H   0  0  0  0  0  0  0  0  0  0  0  0
   20.3496   16.3915   23.1978 H   0  0  0  0  0  0  0  0  0  0  0  0
   19.1254   17.9898   22.4316 C   0  0  0  0  0  0  0  0  0  0  0  0
   18.6903   18.2825   23.3964 H   0  0  0  0  0  0  0  0  0  0  0  0
   19.1497   19.2117   21.4771 C   0  0  0  0  0  0  0  0  0  0  0  0
   20.0367   19.1751   20.8364 H   0  0  0  0  0  0  0  0  0  0  0  0
   18.3024   19.1444   20.7813 H   0  0  0  0  0  0  0  0  0  0  0  0
   19.0511   20.5927   22.1759 C   0  0  0  0  0  0  0  0  0  0  0  0
   18.0008   20.7537   22.4551 H   0  0  0  0  0  0  0  0  0  0  0  0
   19.2894   21.3791   21.4471 H   0  0  0  0  0  0  0  0  0  0  0  0
   19.9085   20.7984   23.4498 C   0  0  0  0  0  0  0  0  0  0  0  0
   19.6124   20.0894   24.2314 H   0  0  0  0  0  0  0  0  0  0  0  0
   19.6510   21.7845   23.8599 H   0  0  0  0  0  0  0  0  0  0  0  0
   18.2884   16.9940   21.8573 O   0  0  0  0  0  0  0  0  0  0  0  0
   18.6983   16.7473   21.0028 H   0  0  0  0  0  0  0  0  0  0  0  0
  1  2  1  0  0  0  0
  1  3  1  0  0  0  0
  1  4  1  0  0  0  0
  4  5  1  0  0  0  0
  4  6  1  0  0  0  0
  4  7  1  0  0  0  0
  7  8  1  0  0  0  0
  7  9  1  0  0  0  0
  7 10  1  0  0  0  0
 10 11  1  0  0  0  0
 10 12  1  0  0  0  0
 10 13  1  0  0  0  0
 13 14  1  0  0  0  0
 13 15  1  0  0  0  0
 15 16  1  0  0  0  0
 15 17  1  0  0  0  0
 15 18  1  0  0  0  0
 18 19  1  0  0  0  0
 18 20  1  0  0  0  0
  1 21  1  0  0  0  0
 18 21  1  0  0  0  0
 21 22  1  0  0  0  0
 21 23  1  0  0  0  0
 13 24  1  0  0  0  0
 24 25  1  0  0  0  0
M  END
> <VConfSearch Rank>
468

> <Conf_Id>
68

> <Delta U+W>
-1.765

> <U+W>
9.148

> <U>
11.181

> <W>
-2.032

> <W(PB)>
-4.147

> <W(SA)>
2.114

> <Valence>
16.955

> <Coulomb>
-8.661

> <VdW>
2.887

> <VdW6>
-12.561

> <VdW12>
15.448

> <Bond>
0.433

> <Angle>
5.121

> <Pdih>
11.402

> <Idih>
0.000

> <Tether>
0.000

$$$$
VeraChem MOL file


 25 25  0  0  0  0  0  0  0  0999 V2000     
   19.8983   18.8035   24.4532 C   0  0  0  0  0  0  0  0  0  0  0  0
   19.7408   18.6837   25.5339 H   0  0  0  0  0  0  0  0  0  0  0  0
   19.8132   17.7872   24.0523 H   0  0  0  0  0  0  0  0  0  0  0  0
   21.3301   19.3579   24.2344 C   0  0  0  0  0  0  0  0  0  0  0  0
   21.3214   20.4517   24.1441 H   0  0  0  0  0  0  0  0  0  0  0  0
   21.9069   19.1514   25.1463 H   0  0  0  0  0  0  0  0  0  0  0  0
   22.1043   18.7143   23.0542 C   0  0  0  0  0  0  0  0  0  0  0  0
   22.1400   17.6250   23.1927 H   0  0  0  0  0  0  0  0  0  0  0  0
   23.1476   19.0529   23.1153 H   0  0  0  0  0  0  0  0  0  0  0  0
   21.5876   19.0327   21.6258 C   0  0  0  0  0  0  0  0  0  0  0  0
   21.5733   20.1163   21.4580 H   0  0  0  0  0  0  0  0  0  0  0  0
   22.3372   18.6423   20.9243 H   0  0  0  0  0  0  0  0  0  0  0  0
   20.2135   18.4007   21.2835 C   0  0  0  0  0  0  0  0  0  0  0  0
   20.0207   17.5700   21.9722 H   0  0  0  0  0  0  0  0  0  0  0  0
   19.0181   19.3842   21.3269 C   0  0  0  0  0  0  0  0  0  0  0  0
   19.0365   19.9954   20.4149 H   0  0  0  0  0  0  0  0  0  0  0  0
   18.0887   18.8021   21.2797 H   0  0  0  0  0  0  0  0  0  0  0  0
   18.9437   20.3555   22.5332 C   0  0  0  0  0  0  0  0  0  0  0  0
   18.0876   21.0226   22.3635 H   0  0  0  0  0  0  0  0  0  0  0  0
   19.8146   21.0209   22.5440 H   0  0  0  0  0  0  0  0  0  0  0  0
   18.7495   19.7006   23.9237 C   0  0  0  0  0  0  0  0  0  0  0  0
   17.8157   19.1221   23.9257 H   0  0  0  0  0  0  0  0  0  0  0  0
   18.5969   20.5114   24.6492 H   0  0  0  0  0  0  0  0  0  0  0  0
   20.2772   17.8633   19.9683 O   0  0  0  0  0  0  0  0  0  0  0  0
   20.4673   18.6153   19.3706 H   0  0  0  0  0  0  0  0  0  0  0  0
  1  2  1  0  0  0  0
  1  3  1  0  0  0  0
  1  4  1  0  0  0  0
  4  5  1  0  0  0  0
  4  6  1  0  0  0  0
  4  7  1  0  0  0  0
  7  8  1  0  0  0  0
  7  9  1  0  0  0  0
  7 10  1  0  0  0  0
 10 11  1  0  0  0  0
 10 12  1  0  0  0  0
 10 13  1  0  0  0  0
 13 14  1  0  0  0  0
 13 15  1  0  0  0  0
 15 16  1  0  0  0  0
 15 17  1  0  0  0  0
 15 18  1  0  0  0  0
 18 19  1  0  0  0  0
 18 20  1  0  0  0  0
  1 21  1  0  0  0  0
 18 21  1  0  0  0  0
 21 22  1  0  0  0  0
 21 23  1  0  0  0  0
 13 24  1  0  0  0  0
 24 25  1  0  0  0  0
M  END
> <VConfSearch Rank>
469

> <Conf_Id>
165

> <Delta U+W>
-1.999

> <U+W>
8.915

> <U>
10.935

> <W>
-2.020

> <W(PB)>
-4.135

> <W(SA)>
2.115

> <Valence>
16.757

> <Coulomb>
-8.731

> <VdW>
2.908

> <VdW6>
-12.597

> <VdW12>
15.506

> <Bond>
0.434

> <Angle>
5.069

> <Pdih>
11.254

> <Idih>
0.000

> <Tether>
0.000

$$$$
VeraChem MOL file


 25 25  0  0  0  0  0  0  0  0999 V2000     
   18.5513   19.6394   22.4036 C   0  0  0  0  0  0  0  0  0  0  0  0
   17.5076   19.8870   22.1658 H   0  0  0  0  0  0  0  0  0  0  0  0
   18.6253   19.7892   23.4866 H   0  0  0  0  0  0  0  0  0  0  0  0
   19.4431   20.6572   21.6458 C   0  0  0  0  0  0  0  0  0  0  0  0
   19.0205   20.7876   20.6401 H   0  0  0  0  0  0  0  0  0  0  0  0
   19.3571   21.6382   22.1323 H   0  0  0  0  0  0  0  0  0  0  0  0
   20.9407   20.2991   21.4742 C   0  0  0  0  0  0  0  0  0  0  0  0
   21.3915   21.0732   20.8383 H   0  0  0  0  0  0  0  0  0  0  0  0
   21.0472   19.3724   20.8987 H   0  0  0  0  0  0  0  0  0  0  0  0
   21.7778   20.2271   22.7773 C   0  0  0  0  0  0  0  0  0  0  0  0
   22.8260   20.0745   22.4866 H   0  0  0  0  0  0  0  0  0  0  0  0
   21.7412   21.2038   23.2766 H   0  0  0  0  0  0  0  0  0  0  0  0
   21.3961   19.1315   23.8029 C   0  0  0  0  0  0  0  0  0  0  0  0
   20.5067   19.4505   24.3587 H   0  0  0  0  0  0  0  0  0  0  0  0
   21.1302   17.7338   23.1867 C   0  0  0  0  0  0  0  0  0  0  0  0
   21.6263   17.6352   22.2139 H   0  0  0  0  0  0  0  0  0  0  0  0
   21.6037   16.9769   23.8266 H   0  0  0  0  0  0  0  0  0  0  0  0
   19.6297   17.3540   23.0727 C   0  0  0  0  0  0  0  0  0  0  0  0
   19.1602   17.4291   24.0631 H   0  0  0  0  0  0  0  0  0  0  0  0
   19.5739   16.2912   22.8004 H   0  0  0  0  0  0  0  0  0  0  0  0
   18.7863   18.1496   22.0419 C   0  0  0  0  0  0  0  0  0  0  0  0
   17.8025   17.6635   21.9896 H   0  0  0  0  0  0  0  0  0  0  0  0
   19.2081   18.0492   21.0336 H   0  0  0  0  0  0  0  0  0  0  0  0
   22.4722   19.0204   24.7277 O   0  0  0  0  0  0  0  0  0  0  0  0
   22.5883   19.9050   25.1333 H   0  0  0  0  0  0  0  0  0  0  0  0
  1  2  1  0  0  0  0
  1  3  1  0  0  0  0
  1  4  1  0  0  0  0
  4  5  1  0  0  0  0
  4  6  1  0  0  0  0
  4  7  1  0  0  0  0
  7  8  1  0  0  0  0
  7  9  1  0  0  0  0
  7 10  1  0  0  0  0
 10 11  1  0  0  0  0
 10 12  1  0  0  0  0
 10 13  1  0  0  0  0
 13 14  1  0  0  0  0
 13 15  1  0  0  0  0
 15 16  1  0  0  0  0
 15 17  1  0  0  0  0
 15 18  1  0  0  0  0
 18 19  1  0  0  0  0
 18 20  1  0  0  0  0
  1 21  1  0  0  0  0
 18 21  1  0  0  0  0
 21 22  1  0  0  0  0
 21 23  1  0  0  0  0
 13 24  1  0  0  0  0
 24 25  1  0  0  0  0
M  END
> <VConfSearch Rank>
470

> <Conf_Id>
133

> <Delta U+W>
-2.139

> <U+W>
8.774

> <U>
10.905

> <W>
-2.131

> <W(PB)>
-4.281

> <W(SA)>
2.150

> <Valence>
16.378

> <Coulomb>
-8.448

> <VdW>
2.976

> <VdW6>
-12.570

> <VdW12>
15.545

> <Bond>
0.439

> <Angle>
5.049

> <Pdih>
10.889

> <Idih>
0.000

> <Tether>
0.000

$$$$
VeraChem MOL file


 25 25  0  0  0  0  0  0  0  0999 V2000     
   20.5015   19.4487   24.4693 C   0  0  0  0  0  0  0  0  0  0  0  0
   20.5572   19.6312   25.5513 H   0  0  0  0  0  0  0  0  0  0  0  0
   21.4143   18.8868   24.2418 H   0  0  0  0  0  0  0  0  0  0  0  0
   20.5127   20.8222   23.7490 C   0  0  0  0  0  0  0  0  0  0  0  0
   19.4922   21.1654   23.5356 H   0  0  0  0  0  0  0  0  0  0  0  0
   20.9210   21.5606   24.4526 H   0  0  0  0  0  0  0  0  0  0  0  0
   21.3912   20.8809   22.4716 C   0  0  0  0  0  0  0  0  0  0  0  0
   22.4181   20.5809   22.7215 H   0  0  0  0  0  0  0  0  0  0  0  0
   21.4591   21.9325   22.1612 H   0  0  0  0  0  0  0  0  0  0  0  0
   20.9001   20.0591   21.2499 C   0  0  0  0  0  0  0  0  0  0  0  0
   19.8870   20.3651   20.9634 H   0  0  0  0  0  0  0  0  0  0  0  0
   21.5350   20.3411   20.3991 H   0  0  0  0  0  0  0  0  0  0  0  0
   20.9813   18.5216   21.4330 C   0  0  0  0  0  0  0  0  0  0  0  0
   21.6843   18.2962   22.2435 H   0  0  0  0  0  0  0  0  0  0  0  0
   19.6253   17.8341   21.7269 C   0  0  0  0  0  0  0  0  0  0  0  0
   19.0639   17.7663   20.7852 H   0  0  0  0  0  0  0  0  0  0  0  0
   19.8165   16.7997   22.0404 H   0  0  0  0  0  0  0  0  0  0  0  0
   18.7002   18.5110   22.7709 C   0  0  0  0  0  0  0  0  0  0  0  0
   17.7634   17.9379   22.7979 H   0  0  0  0  0  0  0  0  0  0  0  0
   18.4035   19.5093   22.4296 H   0  0  0  0  0  0  0  0  0  0  0  0
   19.2431   18.5769   24.2205 C   0  0  0  0  0  0  0  0  0  0  0  0
   19.4377   17.5582   24.5827 H   0  0  0  0  0  0  0  0  0  0  0  0
   18.4356   18.9672   24.8549 H   0  0  0  0  0  0  0  0  0  0  0  0
   21.4977   17.9506   20.2360 O   0  0  0  0  0  0  0  0  0  0  0  0
   21.5804   16.9872   20.3956 H   0  0  0  0  0  0  0  0  0  0  0  0
  1  2  1  0  0  0  0
  1  3  1  0  0  0  0
  1  4  1  0  0  0  0
  4  5  1  0  0  0  0
  4  6  1  0  0  0  0
  4  7  1  0  0  0  0
  7  8  1  0  0  0  0
  7  9  1  0  0  0  0
  7 10  1  0  0  0  0
 10 11  1  0  0  0  0
 10 12  1  0  0  0  0
 10 13  1  0  0  0  0
 13 14  1  0  0  0  0
 13 15  1  0  0  0  0
 15 16  1  0  0  0  0
 15 17  1  0  0  0  0
 15 18  1  0  0  0  0
 18 19  1  0  0  0  0
 18 20  1  0  0  0  0
  1 21  1  0  0  0  0
 18 21  1  0  0  0  0
 21 22  1  0  0  0  0
 21 23  1  0  0  0  0
 13 24  1  0  0  0  0
 24 25  1  0  0  0  0
M  END
> <VConfSearch Rank>
471

> <Conf_Id>
95

> <Delta U+W>
-2.190

> <U+W>
8.723

> <U>
10.905

> <W>
-2.182

> <W(PB)>
-4.296

> <W(SA)>
2.114

> <Valence>
16.377

> <Coulomb>
-8.448

> <VdW>
2.976

> <VdW6>
-12.570

> <VdW12>
15.546

> <Bond>
0.439

> <Angle>
5.049

> <Pdih>
10.889

> <Idih>
0.000

> <Tether>
0.000

$$$$
VeraChem MOL file


 25 25  0  0  0  0  0  0  0  0999 V2000     
   18.7269   18.3232   23.0575 C   0  0  0  0  0  0  0  0  0  0  0  0
   17.7932   17.7591   23.1883 H   0  0  0  0  0  0  0  0  0  0  0  0
   18.6434   19.1270   23.7960 H   0  0  0  0  0  0  0  0  0  0  0  0
   18.7148   18.8938   21.6089 C   0  0  0  0  0  0  0  0  0  0  0  0
   18.2172   18.1525   20.9688 H   0  0  0  0  0  0  0  0  0  0  0  0
   18.0701   19.7827   21.5814 H   0  0  0  0  0  0  0  0  0  0  0  0
   20.0746   19.2262   20.9404 C   0  0  0  0  0  0  0  0  0  0  0  0
   19.8735   19.4983   19.8953 H   0  0  0  0  0  0  0  0  0  0  0  0
   20.6693   18.3111   20.8565 H   0  0  0  0  0  0  0  0  0  0  0  0
   20.9167   20.3802   21.5614 C   0  0  0  0  0  0  0  0  0  0  0  0
   21.9623   20.2654   21.2469 H   0  0  0  0  0  0  0  0  0  0  0  0
   20.5692   21.3146   21.1015 H   0  0  0  0  0  0  0  0  0  0  0  0
   20.8687   20.5789   23.0976 C   0  0  0  0  0  0  0  0  0  0  0  0
   19.8246   20.7374   23.3867 H   0  0  0  0  0  0  0  0  0  0  0  0
   21.4857   19.4510   23.9738 C   0  0  0  0  0  0  0  0  0  0  0  0
   22.5623   19.6470   24.0680 H   0  0  0  0  0  0  0  0  0  0  0  0
   21.0794   19.5424   24.9891 H   0  0  0  0  0  0  0  0  0  0  0  0
   21.3352   17.9796   23.5012 C   0  0  0  0  0  0  0  0  0  0  0  0
   21.9213   17.3502   24.1846 H   0  0  0  0  0  0  0  0  0  0  0  0
   21.8432   17.8549   22.5397 H   0  0  0  0  0  0  0  0  0  0  0  0
   19.8978   17.3838   23.4496 C   0  0  0  0  0  0  0  0  0  0  0  0
   19.6700   16.9883   24.4488 H   0  0  0  0  0  0  0  0  0  0  0  0
   19.8991   16.5108   22.7831 H   0  0  0  0  0  0  0  0  0  0  0  0
   21.5752   21.7781   23.3933 O   0  0  0  0  0  0  0  0  0  0  0  0
   21.1394   22.4953   22.8876 H   0  0  0  0  0  0  0  0  0  0  0  0
  1  2  1  0  0  0  0
  1  3  1  0  0  0  0
  1  4  1  0  0  0  0
  4  5  1  0  0  0  0
  4  6  1  0  0  0  0
  4  7  1  0  0  0  0
  7  8  1  0  0  0  0
  7  9  1  0  0  0  0
  7 10  1  0  0  0  0
 10 11  1  0  0  0  0
 10 12  1  0  0  0  0
 10 13  1  0  0  0  0
 13 14  1  0  0  0  0
 13 15  1  0  0  0  0
 15 16  1  0  0  0  0
 15 17  1  0  0  0  0
 15 18  1  0  0  0  0
 18 19  1  0  0  0  0
 18 20  1  0  0  0  0
  1 21  1  0  0  0  0
 18 21  1  0  0  0  0
 21 22  1  0  0  0  0
 21 23  1  0  0  0  0
 13 24  1  0  0  0  0
 24 25  1  0  0  0  0
M  END
> <VConfSearch Rank>
472

> <Conf_Id>
161

> <Delta U+W>
2.120

> <U+W>
13.033

> <U>
15.076

> <W>
-2.043

> <W(PB)>
-4.186

> <W(SA)>
2.143

> <Valence>
18.884

> <Coulomb>
-8.074

> <VdW>
4.266

> <VdW6>
-13.486

> <VdW12>
17.752

> <Bond>
0.713

> <Angle>
8.955

> <Pdih>
9.215

> <Idih>
0.000

> <Tether>
0.000

$$$$
VeraChem MOL file


 25 25  0  0  0  0  0  0  0  0999 V2000     
   21.5565   20.2171   23.7928 C   0  0  0  0  0  0  0  0  0  0  0  0
   22.0365   20.9434   24.4630 H   0  0  0  0  0  0  0  0  0  0  0  0
   22.3800   19.5967   23.4173 H   0  0  0  0  0  0  0  0  0  0  0  0
   20.9091   21.0003   22.6235 C   0  0  0  0  0  0  0  0  0  0  0  0
   19.8966   21.3325   22.8894 H   0  0  0  0  0  0  0  0  0  0  0  0
   21.4930   21.9222   22.4962 H   0  0  0  0  0  0  0  0  0  0  0  0
   20.9188   20.2690   21.2522 C   0  0  0  0  0  0  0  0  0  0  0  0
   21.8476   19.6997   21.1131 H   0  0  0  0  0  0  0  0  0  0  0  0
   20.9372   21.0480   20.4776 H   0  0  0  0  0  0  0  0  0  0  0  0
   19.6801   19.3812   20.9660 C   0  0  0  0  0  0  0  0  0  0  0  0
   18.7873   19.8314   21.4168 H   0  0  0  0  0  0  0  0  0  0  0  0
   19.4942   19.4069   19.8841 H   0  0  0  0  0  0  0  0  0  0  0  0
   19.8040   17.8863   21.3557 C   0  0  0  0  0  0  0  0  0  0  0  0
   20.5154   17.4148   20.6626 H   0  0  0  0  0  0  0  0  0  0  0  0
   20.2904   17.5877   22.7927 C   0  0  0  0  0  0  0  0  0  0  0  0
   20.1118   16.5247   23.0026 H   0  0  0  0  0  0  0  0  0  0  0  0
   21.3800   17.6934   22.8288 H   0  0  0  0  0  0  0  0  0  0  0  0
   19.6142   18.4374   23.9018 C   0  0  0  0  0  0  0  0  0  0  0  0
   19.1500   17.7605   24.6319 H   0  0  0  0  0  0  0  0  0  0  0  0
   18.7842   19.0288   23.4988 H   0  0  0  0  0  0  0  0  0  0  0  0
   20.5868   19.3718   24.6605 C   0  0  0  0  0  0  0  0  0  0  0  0
   21.1872   18.7678   25.3543 H   0  0  0  0  0  0  0  0  0  0  0  0
   19.9929   20.0481   25.2904 H   0  0  0  0  0  0  0  0  0  0  0  0
   18.5298   17.2817   21.1846 O   0  0  0  0  0  0  0  0  0  0  0  0
   17.9693   17.6287   21.9080 H   0  0  0  0  0  0  0  0  0  0  0  0
  1  2  1  0  0  0  0
  1  3  1  0  0  0  0
  1  4  1  0  0  0  0
  4  5  1  0  0  0  0
  4  6  1  0  0  0  0
  4  7  1  0  0  0  0
  7  8  1  0  0  0  0
  7  9  1  0  0  0  0
  7 10  1  0  0  0  0
 10 11  1  0  0  0  0
 10 12  1  0  0  0  0
 10 13  1  0  0  0  0
 13 14  1  0  0  0  0
 13 15  1  0  0  0  0
 15 16  1  0  0  0  0
 15 17  1  0  0  0  0
 15 18  1  0  0  0  0
 18 19  1  0  0  0  0
 18 20  1  0  0  0  0
  1 21  1  0  0  0  0
 18 21  1  0  0  0  0
 21 22  1  0  0  0  0
 21 23  1  0  0  0  0
 13 24  1  0  0  0  0
 24 25  1  0  0  0  0
M  END
> <VConfSearch Rank>
473

> <Conf_Id>
164

> <Delta U+W>
0.008

> <U+W>
10.922

> <U>
12.433

> <W>
-1.511

> <W(PB)>
-3.669

> <W(SA)>
2.157

> <Valence>
19.007

> <Coulomb>
-9.373

> <VdW>
2.799

> <VdW6>
-12.597

> <VdW12>
15.396

> <Bond>
0.425

> <Angle>
4.784

> <Pdih>
13.799

> <Idih>
0.000

> <Tether>
0.000

$$$$
VeraChem MOL file


 25 25  0  0  0  0  0  0  0  0999 V2000     
   20.8431   17.4933   22.9078 C   0  0  0  0  0  0  0  0  0  0  0  0
   21.7708   18.0627   22.7814 H   0  0  0  0  0  0  0  0  0  0  0  0
   21.1740   16.4586   23.0706 H   0  0  0  0  0  0  0  0  0  0  0  0
   20.0155   17.5107   21.5985 C   0  0  0  0  0  0  0  0  0  0  0  0
   20.6340   17.0561   20.8125 H   0  0  0  0  0  0  0  0  0  0  0  0
   19.1452   16.8500   21.7105 H   0  0  0  0  0  0  0  0  0  0  0  0
   19.5354   18.8918   21.0839 C   0  0  0  0  0  0  0  0  0  0  0  0
   18.6124   19.1926   21.5925 H   0  0  0  0  0  0  0  0  0  0  0  0
   19.2403   18.7615   20.0337 H   0  0  0  0  0  0  0  0  0  0  0  0
   20.5903   20.0281   21.1535 C   0  0  0  0  0  0  0  0  0  0  0  0
   21.6082   19.6199   21.1443 H   0  0  0  0  0  0  0  0  0  0  0  0
   20.5031   20.6112   20.2269 H   0  0  0  0  0  0  0  0  0  0  0  0
   20.4049   21.0187   22.3303 C   0  0  0  0  0  0  0  0  0  0  0  0
   19.3726   21.3956   22.3012 H   0  0  0  0  0  0  0  0  0  0  0  0
   20.6765   20.4645   23.7514 C   0  0  0  0  0  0  0  0  0  0  0  0
   21.6972   20.0706   23.8277 H   0  0  0  0  0  0  0  0  0  0  0  0
   20.6428   21.3190   24.4405 H   0  0  0  0  0  0  0  0  0  0  0  0
   19.6406   19.4245   24.2557 C   0  0  0  0  0  0  0  0  0  0  0  0
   18.6835   19.5528   23.7374 H   0  0  0  0  0  0  0  0  0  0  0  0
   19.4152   19.6473   25.3077 H   0  0  0  0  0  0  0  0  0  0  0  0
   20.1014   17.9460   24.1903 C   0  0  0  0  0  0  0  0  0  0  0  0
   19.2329   17.2943   24.3563 H   0  0  0  0  0  0  0  0  0  0  0  0
   20.7741   17.7661   25.0400 H   0  0  0  0  0  0  0  0  0  0  0  0
   21.2890   22.1106   22.1175 O   0  0  0  0  0  0  0  0  0  0  0  0
   22.1956   21.7421   22.1493 H   0  0  0  0  0  0  0  0  0  0  0  0
  1  2  1  0  0  0  0
  1  3  1  0  0  0  0
  1  4  1  0  0  0  0
  4  5  1  0  0  0  0
  4  6  1  0  0  0  0
  4  7  1  0  0  0  0
  7  8  1  0  0  0  0
  7  9  1  0  0  0  0
  7 10  1  0  0  0  0
 10 11  1  0  0  0  0
 10 12  1  0  0  0  0
 10 13  1  0  0  0  0
 13 14  1  0  0  0  0
 13 15  1  0  0  0  0
 15 16  1  0  0  0  0
 15 17  1  0  0  0  0
 15 18  1  0  0  0  0
 18 19  1  0  0  0  0
 18 20  1  0  0  0  0
  1 21  1  0  0  0  0
 18 21  1  0  0  0  0
 21 22  1  0  0  0  0
 21 23  1  0  0  0  0
 13 24  1  0  0  0  0
 24 25  1  0  0  0  0
M  END
> <VConfSearch Rank>
474

> <Conf_Id>
15

> <Delta U+W>
-1.271

> <U+W>
9.643

> <U>
11.413

> <W>
-1.770

> <W(PB)>
-3.908

> <W(SA)>
2.138

> <Valence>
17.496

> <Coulomb>
-8.736

> <VdW>
2.653

> <VdW6>
-12.485

> <VdW12>
15.138

> <Bond>
0.414

> <Angle>
5.295

> <Pdih>
11.787

> <Idih>
0.000

> <Tether>
0.000

$$$$
VeraChem MOL file


 25 25  0  0  0  0  0  0  0  0999 V2000     
   21.8272   20.3010   22.0916 C   0  0  0  0  0  0  0  0  0  0  0  0
   22.7223   20.9270   21.9734 H   0  0  0  0  0  0  0  0  0  0  0  0
   21.1889   20.5618   21.2379 H   0  0  0  0  0  0  0  0  0  0  0  0
   22.2916   18.8238   21.9962 C   0  0  0  0  0  0  0  0  0  0  0  0
   22.6451   18.6431   20.9719 H   0  0  0  0  0  0  0  0  0  0  0  0
   23.1683   18.6845   22.6434 H   0  0  0  0  0  0  0  0  0  0  0  0
   21.2451   17.7424   22.3576 C   0  0  0  0  0  0  0  0  0  0  0  0
   21.1604   17.6637   23.4477 H   0  0  0  0  0  0  0  0  0  0  0  0
   21.6370   16.7679   22.0357 H   0  0  0  0  0  0  0  0  0  0  0  0
   19.8557   17.9612   21.7041 C   0  0  0  0  0  0  0  0  0  0  0  0
   19.8948   18.7667   20.9625 H   0  0  0  0  0  0  0  0  0  0  0  0
   19.5967   17.0618   21.1302 H   0  0  0  0  0  0  0  0  0  0  0  0
   18.7086   18.2198   22.7079 C   0  0  0  0  0  0  0  0  0  0  0  0
   18.4736   17.2637   23.1973 H   0  0  0  0  0  0  0  0  0  0  0  0
   18.9903   19.2504   23.8317 C   0  0  0  0  0  0  0  0  0  0  0  0
   18.0352   19.4389   24.3403 H   0  0  0  0  0  0  0  0  0  0  0  0
   19.6263   18.7998   24.6031 H   0  0  0  0  0  0  0  0  0  0  0  0
   19.5812   20.6188   23.3992 C   0  0  0  0  0  0  0  0  0  0  0  0
   19.2153   21.3633   24.1196 H   0  0  0  0  0  0  0  0  0  0  0  0
   19.1793   20.9356   22.4281 H   0  0  0  0  0  0  0  0  0  0  0  0
   21.1323   20.7056   23.4152 C   0  0  0  0  0  0  0  0  0  0  0  0
   21.5529   20.1485   24.2632 H   0  0  0  0  0  0  0  0  0  0  0  0
   21.3902   21.7572   23.6021 H   0  0  0  0  0  0  0  0  0  0  0  0
   17.5686   18.6501   21.9774 O   0  0  0  0  0  0  0  0  0  0  0  0
   17.7877   19.5421   21.6404 H   0  0  0  0  0  0  0  0  0  0  0  0
  1  2  1  0  0  0  0
  1  3  1  0  0  0  0
  1  4  1  0  0  0  0
  4  5  1  0  0  0  0
  4  6  1  0  0  0  0
  4  7  1  0  0  0  0
  7  8  1  0  0  0  0
  7  9  1  0  0  0  0
  7 10  1  0  0  0  0
 10 11  1  0  0  0  0
 10 12  1  0  0  0  0
 10 13  1  0  0  0  0
 13 14  1  0  0  0  0
 13 15  1  0  0  0  0
 15 16  1  0  0  0  0
 15 17  1  0  0  0  0
 15 18  1  0  0  0  0
 18 19  1  0  0  0  0
 18 20  1  0  0  0  0
  1 21  1  0  0  0  0
 18 21  1  0  0  0  0
 21 22  1  0  0  0  0
 21 23  1  0  0  0  0
 13 24  1  0  0  0  0
 24 25  1  0  0  0  0
M  END
> <VConfSearch Rank>
475

> <Conf_Id>
115

> <Delta U+W>
0.038

> <U+W>
10.952

> <U>
12.526

> <W>
-1.575

> <W(PB)>
-3.698

> <W(SA)>
2.123

> <Valence>
19.016

> <Coulomb>
-9.226

> <VdW>
2.737

> <VdW6>
-12.612

> <VdW12>
15.349

> <Bond>
0.421

> <Angle>
4.883

> <Pdih>
13.711

> <Idih>
0.000

> <Tether>
0.000

$$$$
VeraChem MOL file


 25 25  0  0  0  0  0  0  0  0999 V2000     
   20.6567   17.3089   23.4952 C   0  0  0  0  0  0  0  0  0  0  0  0
   21.2554   16.5474   24.0135 H   0  0  0  0  0  0  0  0  0  0  0  0
   19.6301   16.9186   23.4843 H   0  0  0  0  0  0  0  0  0  0  0  0
   21.1991   17.4169   22.0510 C   0  0  0  0  0  0  0  0  0  0  0  0
   22.2631   17.6896   22.0672 H   0  0  0  0  0  0  0  0  0  0  0  0
   21.1589   16.4119   21.6091 H   0  0  0  0  0  0  0  0  0  0  0  0
   20.4160   18.3757   21.1246 C   0  0  0  0  0  0  0  0  0  0  0  0
   19.3354   18.2618   21.2837 H   0  0  0  0  0  0  0  0  0  0  0  0
   20.5939   18.0514   20.0901 H   0  0  0  0  0  0  0  0  0  0  0  0
   20.8516   19.8621   21.2284 C   0  0  0  0  0  0  0  0  0  0  0  0
   21.8027   19.9623   21.7662 H   0  0  0  0  0  0  0  0  0  0  0  0
   21.0542   20.2158   20.2083 H   0  0  0  0  0  0  0  0  0  0  0  0
   19.7910   20.7967   21.8524 C   0  0  0  0  0  0  0  0  0  0  0  0
   18.7923   20.4620   21.5374 H   0  0  0  0  0  0  0  0  0  0  0  0
   19.8301   20.8766   23.3947 C   0  0  0  0  0  0  0  0  0  0  0  0
   20.8012   21.2686   23.7248 H   0  0  0  0  0  0  0  0  0  0  0  0
   19.0859   21.6211   23.7066 H   0  0  0  0  0  0  0  0  0  0  0  0
   19.5086   19.5565   24.1366 C   0  0  0  0  0  0  0  0  0  0  0  0
   18.6708   19.0387   23.6507 H   0  0  0  0  0  0  0  0  0  0  0  0
   19.1432   19.8248   25.1374 H   0  0  0  0  0  0  0  0  0  0  0  0
   20.7248   18.6123   24.3252 C   0  0  0  0  0  0  0  0  0  0  0  0
   20.7545   18.3232   25.3848 H   0  0  0  0  0  0  0  0  0  0  0  0
   21.6726   19.1352   24.1406 H   0  0  0  0  0  0  0  0  0  0  0  0
   20.0113   22.1095   21.3509 O   0  0  0  0  0  0  0  0  0  0  0  0
   19.2984   22.6751   21.7145 H   0  0  0  0  0  0  0  0  0  0  0  0
  1  2  1  0  0  0  0
  1  3  1  0  0  0  0
  1  4  1  0  0  0  0
  4  5  1  0  0  0  0
  4  6  1  0  0  0  0
  4  7  1  0  0  0  0
  7  8  1  0  0  0  0
  7  9  1  0  0  0  0
  7 10  1  0  0  0  0
 10 11  1  0  0  0  0
 10 12  1  0  0  0  0
 10 13  1  0  0  0  0
 13 14  1  0  0  0  0
 13 15  1  0  0  0  0
 15 16  1  0  0  0  0
 15 17  1  0  0  0  0
 15 18  1  0  0  0  0
 18 19  1  0  0  0  0
 18 20  1  0  0  0  0
  1 21  1  0  0  0  0
 18 21  1  0  0  0  0
 21 22  1  0  0  0  0
 21 23  1  0  0  0  0
 13 24  1  0  0  0  0
 24 25  1  0  0  0  0
M  END
> <VConfSearch Rank>
476

> <Conf_Id>
30

> <Delta U+W>
0.000

> <U+W>
10.913

> <U>
13.140

> <W>
-2.227

> <W(PB)>
-4.367

> <W(SA)>
2.140

> <Valence>
19.155

> <Coulomb>
-8.157

> <VdW>
2.142

> <VdW6>
-11.576

> <VdW12>
13.718

> <Bond>
0.294

> <Angle>
3.547

> <Pdih>
15.314

> <Idih>
0.000

> <Tether>
0.000

$$$$
VeraChem MOL file


 25 25  0  0  0  0  0  0  0  0999 V2000     
   19.6889   18.9668   20.6224 C   0  0  0  0  0  0  0  0  0  0  0  0
   20.1145   18.4004   19.7829 H   0  0  0  0  0  0  0  0  0  0  0  0
   18.8173   19.4950   20.2125 H   0  0  0  0  0  0  0  0  0  0  0  0
   20.7257   20.0230   21.0780 C   0  0  0  0  0  0  0  0  0  0  0  0
   21.1489   20.4914   20.1789 H   0  0  0  0  0  0  0  0  0  0  0  0
   20.2142   20.8395   21.6007 H   0  0  0  0  0  0  0  0  0  0  0  0
   21.8867   19.4540   21.9326 C   0  0  0  0  0  0  0  0  0  0  0  0
   22.8395   19.7207   21.4554 H   0  0  0  0  0  0  0  0  0  0  0  0
   21.8726   18.3579   21.9356 H   0  0  0  0  0  0  0  0  0  0  0  0
   21.9156   19.9801   23.3900 C   0  0  0  0  0  0  0  0  0  0  0  0
   22.6433   19.3860   23.9586 H   0  0  0  0  0  0  0  0  0  0  0  0
   22.3058   21.0062   23.3811 H   0  0  0  0  0  0  0  0  0  0  0  0
   20.5686   19.9964   24.1550 C   0  0  0  0  0  0  0  0  0  0  0  0
   19.9260   20.7838   23.7390 H   0  0  0  0  0  0  0  0  0  0  0  0
   19.7870   18.6599   24.1386 C   0  0  0  0  0  0  0  0  0  0  0  0
   20.4824   17.8118   24.0967 H   0  0  0  0  0  0  0  0  0  0  0  0
   19.2638   18.5587   25.0988 H   0  0  0  0  0  0  0  0  0  0  0  0
   18.7063   18.5461   23.0264 C   0  0  0  0  0  0  0  0  0  0  0  0
   18.2033   19.5084   22.8605 H   0  0  0  0  0  0  0  0  0  0  0  0
   17.9267   17.8719   23.4071 H   0  0  0  0  0  0  0  0  0  0  0  0
   19.2029   17.9475   21.6871 C   0  0  0  0  0  0  0  0  0  0  0  0
   18.3701   17.3892   21.2379 H   0  0  0  0  0  0  0  0  0  0  0  0
   19.9746   17.1910   21.8780 H   0  0  0  0  0  0  0  0  0  0  0  0
   20.8577   20.3311   25.5073 O   0  0  0  0  0  0  0  0  0  0  0  0
   19.9965   20.4183   25.9669 H   0  0  0  0  0  0  0  0  0  0  0  0
  1  2  1  0  0  0  0
  1  3  1  0  0  0  0
  1  4  1  0  0  0  0
  4  5  1  0  0  0  0
  4  6  1  0  0  0  0
  4  7  1  0  0  0  0
  7  8  1  0  0  0  0
  7  9  1  0  0  0  0
  7 10  1  0  0  0  0
 10 11  1  0  0  0  0
 10 12  1  0  0  0  0
 10 13  1  0  0  0  0
 13 14  1  0  0  0  0
 13 15  1  0  0  0  0
 15 16  1  0  0  0  0
 15 17  1  0  0  0  0
 15 18  1  0  0  0  0
 18 19  1  0  0  0  0
 18 20  1  0  0  0  0
  1 21  1  0  0  0  0
 18 21  1  0  0  0  0
 21 22  1  0  0  0  0
 21 23  1  0  0  0  0
 13 24  1  0  0  0  0
 24 25  1  0  0  0  0
M  END
> <VConfSearch Rank>
477

> <Conf_Id>
162

> <Delta U+W>
0.219

> <U+W>
11.132

> <U>
13.296

> <W>
-2.164

> <W(PB)>
-4.311

> <W(SA)>
2.148

> <Valence>
18.607

> <Coulomb>
-8.339

> <VdW>
3.028

> <VdW6>
-12.271

> <VdW12>
15.299

> <Bond>
0.423

> <Angle>
4.488

> <Pdih>
13.696

> <Idih>
0.000

> <Tether>
0.000

$$$$
VeraChem MOL file


 25 25  0  0  0  0  0  0  0  0999 V2000     
   19.7476   21.0855   22.2097 C   0  0  0  0  0  0  0  0  0  0  0  0
   20.6536   21.1784   21.5974 H   0  0  0  0  0  0  0  0  0  0  0  0
   19.2103   22.0319   22.0594 H   0  0  0  0  0  0  0  0  0  0  0  0
   18.8581   19.9393   21.6670 C   0  0  0  0  0  0  0  0  0  0  0  0
   18.1537   19.5949   22.4361 H   0  0  0  0  0  0  0  0  0  0  0  0
   18.2331   20.3701   20.8727 H   0  0  0  0  0  0  0  0  0  0  0  0
   19.6282   18.7459   21.0361 C   0  0  0  0  0  0  0  0  0  0  0  0
   20.5149   19.0911   20.4876 H   0  0  0  0  0  0  0  0  0  0  0  0
   18.9677   18.3092   20.2744 H   0  0  0  0  0  0  0  0  0  0  0  0
   19.9970   17.6033   22.0178 C   0  0  0  0  0  0  0  0  0  0  0  0
   19.2177   17.5013   22.7831 H   0  0  0  0  0  0  0  0  0  0  0  0
   19.9693   16.6589   21.4588 H   0  0  0  0  0  0  0  0  0  0  0  0
   21.3980   17.6861   22.6748 C   0  0  0  0  0  0  0  0  0  0  0  0
   22.1473   17.4810   21.8966 H   0  0  0  0  0  0  0  0  0  0  0  0
   21.7704   19.0392   23.3263 C   0  0  0  0  0  0  0  0  0  0  0  0
   22.6778   18.8995   23.9280 H   0  0  0  0  0  0  0  0  0  0  0  0
   22.0697   19.7416   22.5410 H   0  0  0  0  0  0  0  0  0  0  0  0
   20.6654   19.6531   24.2261 C   0  0  0  0  0  0  0  0  0  0  0  0
   21.0753   19.8071   25.2334 H   0  0  0  0  0  0  0  0  0  0  0  0
   19.8380   18.9475   24.3666 H   0  0  0  0  0  0  0  0  0  0  0  0
   20.1115   21.0055   23.7161 C   0  0  0  0  0  0  0  0  0  0  0  0
   20.8481   21.7915   23.9316 H   0  0  0  0  0  0  0  0  0  0  0  0
   19.2226   21.2584   24.3099 H   0  0  0  0  0  0  0  0  0  0  0  0
   21.4734   16.6694   23.6672 O   0  0  0  0  0  0  0  0  0  0  0  0
   22.3620   16.7373   24.0731 H   0  0  0  0  0  0  0  0  0  0  0  0
  1  2  1  0  0  0  0
  1  3  1  0  0  0  0
  1  4  1  0  0  0  0
  4  5  1  0  0  0  0
  4  6  1  0  0  0  0
  4  7  1  0  0  0  0
  7  8  1  0  0  0  0
  7  9  1  0  0  0  0
  7 10  1  0  0  0  0
 10 11  1  0  0  0  0
 10 12  1  0  0  0  0
 10 13  1  0  0  0  0
 13 14  1  0  0  0  0
 13 15  1  0  0  0  0
 15 16  1  0  0  0  0
 15 17  1  0  0  0  0
 15 18  1  0  0  0  0
 18 19  1  0  0  0  0
 18 20  1  0  0  0  0
  1 21  1  0  0  0  0
 18 21  1  0  0  0  0
 21 22  1  0  0  0  0
 21 23  1  0  0  0  0
 13 24  1  0  0  0  0
 24 25  1  0  0  0  0
M  END
> <VConfSearch Rank>
478

> <Conf_Id>
155

> <Delta U+W>
0.339

> <U+W>
11.252

> <U>
13.420

> <W>
-2.167

> <W(PB)>
-4.325

> <W(SA)>
2.157

> <Valence>
18.609

> <Coulomb>
-8.052

> <VdW>
2.863

> <VdW6>
-12.524

> <VdW12>
15.387

> <Bond>
0.430

> <Angle>
4.724

> <Pdih>
13.455

> <Idih>
0.000

> <Tether>
0.000

$$$$
VeraChem MOL file


 25 25  0  0  0  0  0  0  0  0999 V2000     
   19.5845   18.6385   24.4360 C   0  0  0  0  0  0  0  0  0  0  0  0
   20.1425   17.8322   24.9310 H   0  0  0  0  0  0  0  0  0  0  0  0
   18.7558   18.8802   25.1155 H   0  0  0  0  0  0  0  0  0  0  0  0
   20.4804   19.9021   24.3503 C   0  0  0  0  0  0  0  0  0  0  0  0
   19.8893   20.7389   23.9649 H   0  0  0  0  0  0  0  0  0  0  0  0
   20.7206   20.2089   25.3774 H   0  0  0  0  0  0  0  0  0  0  0  0
   21.8293   19.7776   23.5833 C   0  0  0  0  0  0  0  0  0  0  0  0
   22.5788   19.4048   24.2944 H   0  0  0  0  0  0  0  0  0  0  0  0
   22.1700   20.7819   23.2970 H   0  0  0  0  0  0  0  0  0  0  0  0
   21.8822   18.8490   22.3396 C   0  0  0  0  0  0  0  0  0  0  0  0
   22.9321   18.7809   22.0257 H   0  0  0  0  0  0  0  0  0  0  0  0
   21.6477   17.8256   22.6451 H   0  0  0  0  0  0  0  0  0  0  0  0
   21.0376   19.2479   21.0939 C   0  0  0  0  0  0  0  0  0  0  0  0
   20.8508   18.3355   20.5097 H   0  0  0  0  0  0  0  0  0  0  0  0
   19.6747   19.9425   21.3406 C   0  0  0  0  0  0  0  0  0  0  0  0
   19.8448   20.8863   21.8667 H   0  0  0  0  0  0  0  0  0  0  0  0
   19.2835   20.2574   20.3641 H   0  0  0  0  0  0  0  0  0  0  0  0
   18.5506   19.1158   22.0342 C   0  0  0  0  0  0  0  0  0  0  0  0
   18.0201   18.5591   21.2497 H   0  0  0  0  0  0  0  0  0  0  0  0
   17.8086   19.8081   22.4543 H   0  0  0  0  0  0  0  0  0  0  0  0
   18.9608   18.0869   23.1204 C   0  0  0  0  0  0  0  0  0  0  0  0
   19.6062   17.3243   22.6734 H   0  0  0  0  0  0  0  0  0  0  0  0
   18.0593   17.5259   23.4023 H   0  0  0  0  0  0  0  0  0  0  0  0
   21.8188   20.1381   20.3043 O   0  0  0  0  0  0  0  0  0  0  0  0
   22.6596   19.6766   20.1058 H   0  0  0  0  0  0  0  0  0  0  0  0
  1  2  1  0  0  0  0
  1  3  1  0  0  0  0
  1  4  1  0  0  0  0
  4  5  1  0  0  0  0
  4  6  1  0  0  0  0
  4  7  1  0  0  0  0
  7  8  1  0  0  0  0
  7  9  1  0  0  0  0
  7 10  1  0  0  0  0
 10 11  1  0  0  0  0
 10 12  1  0  0  0  0
 10 13  1  0  0  0  0
 13 14  1  0  0  0  0
 13 15  1  0  0  0  0
 15 16  1  0  0  0  0
 15 17  1  0  0  0  0
 15 18  1  0  0  0  0
 18 19  1  0  0  0  0
 18 20  1  0  0  0  0
  1 21  1  0  0  0  0
 18 21  1  0  0  0  0
 21 22  1  0  0  0  0
 21 23  1  0  0  0  0
 13 24  1  0  0  0  0
 24 25  1  0  0  0  0
M  END
> <VConfSearch Rank>
479

> <Conf_Id>
146

> <Delta U+W>
2.553

> <U+W>
13.466

> <U>
15.643

> <W>
-2.176

> <W(PB)>
-4.307

> <W(SA)>
2.131

> <Valence>
18.916

> <Coulomb>
-7.506

> <VdW>
4.232

> <VdW6>
-13.632

> <VdW12>
17.864

> <Bond>
0.735

> <Angle>
9.140

> <Pdih>
9.042

> <Idih>
0.000

> <Tether>
0.000

$$$$
VeraChem MOL file


 25 25  0  0  0  0  0  0  0  0999 V2000     
   21.0510   17.9906   24.1346 C   0  0  0  0  0  0  0  0  0  0  0  0
   21.7562   18.3280   24.9062 H   0  0  0  0  0  0  0  0  0  0  0  0
   20.8720   16.9267   24.3418 H   0  0  0  0  0  0  0  0  0  0  0  0
   21.7304   18.0831   22.7454 C   0  0  0  0  0  0  0  0  0  0  0  0
   22.6087   17.4236   22.7677 H   0  0  0  0  0  0  0  0  0  0  0  0
   21.0817   17.6520   21.9743 H   0  0  0  0  0  0  0  0  0  0  0  0
   22.2223   19.4889   22.3186 C   0  0  0  0  0  0  0  0  0  0  0  0
   22.7791   19.3731   21.3787 H   0  0  0  0  0  0  0  0  0  0  0  0
   22.9512   19.8571   23.0531 H   0  0  0  0  0  0  0  0  0  0  0  0
   21.1382   20.5757   22.0967 C   0  0  0  0  0  0  0  0  0  0  0  0
   20.8412   21.0175   23.0531 H   0  0  0  0  0  0  0  0  0  0  0  0
   21.6152   21.4005   21.5501 H   0  0  0  0  0  0  0  0  0  0  0  0
   19.8860   20.1059   21.3122 C   0  0  0  0  0  0  0  0  0  0  0  0
   20.1267   19.1971   20.7445 H   0  0  0  0  0  0  0  0  0  0  0  0
   18.6437   19.8423   22.2004 C   0  0  0  0  0  0  0  0  0  0  0  0
   18.4255   20.7417   22.7912 H   0  0  0  0  0  0  0  0  0  0  0  0
   17.7778   19.7043   21.5397 H   0  0  0  0  0  0  0  0  0  0  0  0
   18.7043   18.6107   23.1445 C   0  0  0  0  0  0  0  0  0  0  0  0
   18.8826   17.6904   22.5736 H   0  0  0  0  0  0  0  0  0  0  0  0
   17.7020   18.4893   23.5775 H   0  0  0  0  0  0  0  0  0  0  0  0
   19.7066   18.7407   24.3204 C   0  0  0  0  0  0  0  0  0  0  0  0
   19.2307   18.3305   25.2217 H   0  0  0  0  0  0  0  0  0  0  0  0
   19.8826   19.7951   24.5615 H   0  0  0  0  0  0  0  0  0  0  0  0
   19.5350   21.1283   20.3866 O   0  0  0  0  0  0  0  0  0  0  0  0
   18.7804   20.7886   19.8619 H   0  0  0  0  0  0  0  0  0  0  0  0
  1  2  1  0  0  0  0
  1  3  1  0  0  0  0
  1  4  1  0  0  0  0
  4  5  1  0  0  0  0
  4  6  1  0  0  0  0
  4  7  1  0  0  0  0
  7  8  1  0  0  0  0
  7  9  1  0  0  0  0
  7 10  1  0  0  0  0
 10 11  1  0  0  0  0
 10 12  1  0  0  0  0
 10 13  1  0  0  0  0
 13 14  1  0  0  0  0
 13 15  1  0  0  0  0
 15 16  1  0  0  0  0
 15 17  1  0  0  0  0
 15 18  1  0  0  0  0
 18 19  1  0  0  0  0
 18 20  1  0  0  0  0
  1 21  1  0  0  0  0
 18 21  1  0  0  0  0
 21 22  1  0  0  0  0
 21 23  1  0  0  0  0
 13 24  1  0  0  0  0
 24 25  1  0  0  0  0
M  END
> <VConfSearch Rank>
480

> <Conf_Id>
62

> <Delta U+W>
-1.779

> <U+W>
9.134

> <U>
11.364

> <W>
-2.230

> <W(PB)>
-4.359

> <W(SA)>
2.129

> <Valence>
16.582

> <Coulomb>
-8.150

> <VdW>
2.933

> <VdW6>
-12.531

> <VdW12>
15.464

> <Bond>
0.439

> <Angle>
5.099

> <Pdih>
11.044

> <Idih>
0.000

> <Tether>
0.000

$$$$
VeraChem MOL file


 25 25  0  0  0  0  0  0  0  0999 V2000     
   18.9090   18.3376   23.4571 C   0  0  0  0  0  0  0  0  0  0  0  0
   19.4333   17.5396   22.9191 H   0  0  0  0  0  0  0  0  0  0  0  0
   18.0389   17.8416   23.9082 H   0  0  0  0  0  0  0  0  0  0  0  0
   18.3708   19.3964   22.4627 C   0  0  0  0  0  0  0  0  0  0  0  0
   17.6806   18.8840   21.7785 H   0  0  0  0  0  0  0  0  0  0  0  0
   17.7597   20.1285   23.0077 H   0  0  0  0  0  0  0  0  0  0  0  0
   19.4151   20.1534   21.6030 C   0  0  0  0  0  0  0  0  0  0  0  0
   19.8406   20.9925   22.1650 H   0  0  0  0  0  0  0  0  0  0  0  0
   18.8704   20.6263   20.7743 H   0  0  0  0  0  0  0  0  0  0  0  0
   20.5430   19.2726   21.0018 C   0  0  0  0  0  0  0  0  0  0  0  0
   20.2224   18.2273   20.9131 H   0  0  0  0  0  0  0  0  0  0  0  0
   20.7059   19.6136   19.9710 H   0  0  0  0  0  0  0  0  0  0  0  0
   21.9036   19.3626   21.7380 C   0  0  0  0  0  0  0  0  0  0  0  0
   22.1853   20.4227   21.8133 H   0  0  0  0  0  0  0  0  0  0  0  0
   21.9598   18.7477   23.1588 C   0  0  0  0  0  0  0  0  0  0  0  0
   21.6818   17.6872   23.1301 H   0  0  0  0  0  0  0  0  0  0  0  0
   23.0123   18.7613   23.4716 H   0  0  0  0  0  0  0  0  0  0  0  0
   21.1460   19.5120   24.2373 C   0  0  0  0  0  0  0  0  0  0  0  0
   21.0116   20.5599   23.9462 H   0  0  0  0  0  0  0  0  0  0  0  0
   21.7496   19.5570   25.1541 H   0  0  0  0  0  0  0  0  0  0  0  0
   19.7855   18.8733   24.6167 C   0  0  0  0  0  0  0  0  0  0  0  0
   19.2050   19.5951   25.2070 H   0  0  0  0  0  0  0  0  0  0  0  0
   19.9872   18.0309   25.2924 H   0  0  0  0  0  0  0  0  0  0  0  0
   22.8703   18.6887   20.9419 O   0  0  0  0  0  0  0  0  0  0  0  0
   22.8742   19.1302   20.0671 H   0  0  0  0  0  0  0  0  0  0  0  0
  1  2  1  0  0  0  0
  1  3  1  0  0  0  0
  1  4  1  0  0  0  0
  4  5  1  0  0  0  0
  4  6  1  0  0  0  0
  4  7  1  0  0  0  0
  7  8  1  0  0  0  0
  7  9  1  0  0  0  0
  7 10  1  0  0  0  0
 10 11  1  0  0  0  0
 10 12  1  0  0  0  0
 10 13  1  0  0  0  0
 13 14  1  0  0  0  0
 13 15  1  0  0  0  0
 15 16  1  0  0  0  0
 15 17  1  0  0  0  0
 15 18  1  0  0  0  0
 18 19  1  0  0  0  0
 18 20  1  0  0  0  0
  1 21  1  0  0  0  0
 18 21  1  0  0  0  0
 21 22  1  0  0  0  0
 21 23  1  0  0  0  0
 13 24  1  0  0  0  0
 24 25  1  0  0  0  0
M  END
> <VConfSearch Rank>
481

> <Conf_Id>
121

> <Delta U+W>
-1.283

> <U+W>
9.630

> <U>
11.876

> <W>
-2.246

> <W(PB)>
-4.376

> <W(SA)>
2.130

> <Valence>
17.153

> <Coulomb>
-7.966

> <VdW>
2.689

> <VdW6>
-12.458

> <VdW12>
15.147

> <Bond>
0.421

> <Angle>
5.258

> <Pdih>
11.475

> <Idih>
0.000

> <Tether>
0.000

$$$$
VeraChem MOL file


 25 25  0  0  0  0  0  0  0  0999 V2000     
   20.4654   18.1130   21.2002 C   0  0  0  0  0  0  0  0  0  0  0  0
   21.1419   17.6719   21.9410 H   0  0  0  0  0  0  0  0  0  0  0  0
   20.5177   17.4334   20.3387 H   0  0  0  0  0  0  0  0  0  0  0  0
   21.0001   19.4899   20.7331 C   0  0  0  0  0  0  0  0  0  0  0  0
   21.9911   19.3241   20.2889 H   0  0  0  0  0  0  0  0  0  0  0  0
   20.3684   19.8669   19.9174 H   0  0  0  0  0  0  0  0  0  0  0  0
   21.1432   20.5949   21.8108 C   0  0  0  0  0  0  0  0  0  0  0  0
   20.1843   21.0997   21.9743 H   0  0  0  0  0  0  0  0  0  0  0  0
   21.7953   21.3734   21.3917 H   0  0  0  0  0  0  0  0  0  0  0  0
   21.7506   20.1296   23.1613 C   0  0  0  0  0  0  0  0  0  0  0  0
   22.3671   19.2321   23.0304 H   0  0  0  0  0  0  0  0  0  0  0  0
   22.4464   20.9111   23.4943 H   0  0  0  0  0  0  0  0  0  0  0  0
   20.7251   19.9223   24.3038 C   0  0  0  0  0  0  0  0  0  0  0  0
   20.1287   20.8411   24.3984 H   0  0  0  0  0  0  0  0  0  0  0  0
   19.7527   18.7258   24.1479 C   0  0  0  0  0  0  0  0  0  0  0  0
   20.3114   17.7877   24.0427 H   0  0  0  0  0  0  0  0  0  0  0  0
   19.1998   18.6289   25.0915 H   0  0  0  0  0  0  0  0  0  0  0  0
   18.7026   18.8804   23.0153 C   0  0  0  0  0  0  0  0  0  0  0  0
   18.5347   19.9393   22.7884 H   0  0  0  0  0  0  0  0  0  0  0  0
   17.7347   18.5239   23.3937 H   0  0  0  0  0  0  0  0  0  0  0  0
   19.0058   18.0874   21.7184 C   0  0  0  0  0  0  0  0  0  0  0  0
   18.3322   18.4339   20.9230 H   0  0  0  0  0  0  0  0  0  0  0  0
   18.7387   17.0369   21.8971 H   0  0  0  0  0  0  0  0  0  0  0  0
   21.4585   19.7283   25.5067 O   0  0  0  0  0  0  0  0  0  0  0  0
   20.8022   19.6665   26.2317 H   0  0  0  0  0  0  0  0  0  0  0  0
  1  2  1  0  0  0  0
  1  3  1  0  0  0  0
  1  4  1  0  0  0  0
  4  5  1  0  0  0  0
  4  6  1  0  0  0  0
  4  7  1  0  0  0  0
  7  8  1  0  0  0  0
  7  9  1  0  0  0  0
  7 10  1  0  0  0  0
 10 11  1  0  0  0  0
 10 12  1  0  0  0  0
 10 13  1  0  0  0  0
 13 14  1  0  0  0  0
 13 15  1  0  0  0  0
 15 16  1  0  0  0  0
 15 17  1  0  0  0  0
 15 18  1  0  0  0  0
 18 19  1  0  0  0  0
 18 20  1  0  0  0  0
  1 21  1  0  0  0  0
 18 21  1  0  0  0  0
 21 22  1  0  0  0  0
 21 23  1  0  0  0  0
 13 24  1  0  0  0  0
 24 25  1  0  0  0  0
M  END
> <VConfSearch Rank>
482

> <Conf_Id>
24

> <Delta U+W>
-1.236

> <U+W>
9.678

> <U>
11.876

> <W>
-2.199

> <W(PB)>
-4.335

> <W(SA)>
2.137

> <Valence>
17.153

> <Coulomb>
-7.966

> <VdW>
2.689

> <VdW6>
-12.458

> <VdW12>
15.147

> <Bond>
0.421

> <Angle>
5.258

> <Pdih>
11.475

> <Idih>
0.000

> <Tether>
0.000

$$$$
VeraChem MOL file


 25 25  0  0  0  0  0  0  0  0999 V2000     
   18.3283   18.9619   21.7395 C   0  0  0  0  0  0  0  0  0  0  0  0
   17.3886   19.0988   22.2918 H   0  0  0  0  0  0  0  0  0  0  0  0
   18.0356   18.6438   20.7295 H   0  0  0  0  0  0  0  0  0  0  0  0
   19.0442   20.3335   21.6192 C   0  0  0  0  0  0  0  0  0  0  0  0
   19.7935   20.3094   20.8178 H   0  0  0  0  0  0  0  0  0  0  0  0
   18.2922   21.0574   21.2765 H   0  0  0  0  0  0  0  0  0  0  0  0
   19.6780   20.8857   22.9200 C   0  0  0  0  0  0  0  0  0  0  0  0
   19.0759   20.6083   23.7957 H   0  0  0  0  0  0  0  0  0  0  0  0
   19.6203   21.9814   22.8624 H   0  0  0  0  0  0  0  0  0  0  0  0
   21.1756   20.5236   23.1304 C   0  0  0  0  0  0  0  0  0  0  0  0
   21.7147   20.5208   22.1745 H   0  0  0  0  0  0  0  0  0  0  0  0
   21.6167   21.3427   23.7148 H   0  0  0  0  0  0  0  0  0  0  0  0
   21.4277   19.2043   23.9005 C   0  0  0  0  0  0  0  0  0  0  0  0
   20.5815   19.0287   24.5779 H   0  0  0  0  0  0  0  0  0  0  0  0
   21.6444   17.9503   23.0161 C   0  0  0  0  0  0  0  0  0  0  0  0
   22.6288   18.0104   22.5336 H   0  0  0  0  0  0  0  0  0  0  0  0
   21.6872   17.0778   23.6814 H   0  0  0  0  0  0  0  0  0  0  0  0
   20.5846   17.6758   21.9197 C   0  0  0  0  0  0  0  0  0  0  0  0
   20.7385   16.6546   21.5453 H   0  0  0  0  0  0  0  0  0  0  0  0
   20.7723   18.3218   21.0541 H   0  0  0  0  0  0  0  0  0  0  0  0
   19.1201   17.8111   22.4076 C   0  0  0  0  0  0  0  0  0  0  0  0
   19.0751   17.9177   23.4977 H   0  0  0  0  0  0  0  0  0  0  0  0
   18.5921   16.8707   22.1984 H   0  0  0  0  0  0  0  0  0  0  0  0
   22.5956   19.3665   24.6950 O   0  0  0  0  0  0  0  0  0  0  0  0
   23.3315   19.5419   24.0732 H   0  0  0  0  0  0  0  0  0  0  0  0
  1  2  1  0  0  0  0
  1  3  1  0  0  0  0
  1  4  1  0  0  0  0
  4  5  1  0  0  0  0
  4  6  1  0  0  0  0
  4  7  1  0  0  0  0
  7  8  1  0  0  0  0
  7  9  1  0  0  0  0
  7 10  1  0  0  0  0
 10 11  1  0  0  0  0
 10 12  1  0  0  0  0
 10 13  1  0  0  0  0
 13 14  1  0  0  0  0
 13 15  1  0  0  0  0
 15 16  1  0  0  0  0
 15 17  1  0  0  0  0
 15 18  1  0  0  0  0
 18 19  1  0  0  0  0
 18 20  1  0  0  0  0
  1 21  1  0  0  0  0
 18 21  1  0  0  0  0
 21 22  1  0  0  0  0
 21 23  1  0  0  0  0
 13 24  1  0  0  0  0
 24 25  1  0  0  0  0
M  END
> <VConfSearch Rank>
483

> <Conf_Id>
167

> <Delta U+W>
0.388

> <U+W>
11.301

> <U>
13.202

> <W>
-1.901

> <W(PB)>
-4.065

> <W(SA)>
2.163

> <Valence>
18.957

> <Coulomb>
-8.753

> <VdW>
2.998

> <VdW6>
-12.294

> <VdW12>
15.292

> <Bond>
0.419

> <Angle>
4.543

> <Pdih>
13.996

> <Idih>
0.000

> <Tether>
0.000

$$$$
VeraChem MOL file


 25 25  0  0  0  0  0  0  0  0999 V2000     
   19.1021   17.9988   23.7836 C   0  0  0  0  0  0  0  0  0  0  0  0
   19.4611   17.0254   24.1443 H   0  0  0  0  0  0  0  0  0  0  0  0
   18.0812   18.1015   24.1760 H   0  0  0  0  0  0  0  0  0  0  0  0
   19.0105   17.9579   22.2359 C   0  0  0  0  0  0  0  0  0  0  0  0
   19.8730   17.4320   21.8114 H   0  0  0  0  0  0  0  0  0  0  0  0
   18.1514   17.3222   21.9810 H   0  0  0  0  0  0  0  0  0  0  0  0
   18.8153   19.3314   21.5429 C   0  0  0  0  0  0  0  0  0  0  0  0
   18.3360   20.0504   22.2197 H   0  0  0  0  0  0  0  0  0  0  0  0
   18.0988   19.1884   20.7225 H   0  0  0  0  0  0  0  0  0  0  0  0
   20.1029   19.9359   20.9192 C   0  0  0  0  0  0  0  0  0  0  0  0
   20.5410   19.2154   20.2164 H   0  0  0  0  0  0  0  0  0  0  0  0
   19.8012   20.7980   20.3097 H   0  0  0  0  0  0  0  0  0  0  0  0
   21.1975   20.4176   21.9037 C   0  0  0  0  0  0  0  0  0  0  0  0
   20.7500   21.1131   22.6263 H   0  0  0  0  0  0  0  0  0  0  0  0
   21.9204   19.2710   22.6571 C   0  0  0  0  0  0  0  0  0  0  0  0
   21.8178   18.3328   22.1026 H   0  0  0  0  0  0  0  0  0  0  0  0
   23.0014   19.4639   22.6674 H   0  0  0  0  0  0  0  0  0  0  0  0
   21.4776   19.0736   24.1301 C   0  0  0  0  0  0  0  0  0  0  0  0
   21.9556   19.8568   24.7343 H   0  0  0  0  0  0  0  0  0  0  0  0
   21.8841   18.1226   24.5001 H   0  0  0  0  0  0  0  0  0  0  0  0
   19.9559   19.1256   24.4175 C   0  0  0  0  0  0  0  0  0  0  0  0
   19.5471   20.1075   24.1531 H   0  0  0  0  0  0  0  0  0  0  0  0
   19.8278   19.0576   25.5065 H   0  0  0  0  0  0  0  0  0  0  0  0
   22.1661   21.1308   21.1438 O   0  0  0  0  0  0  0  0  0  0  0  0
   22.8162   21.4895   21.7836 H   0  0  0  0  0  0  0  0  0  0  0  0
  1  2  1  0  0  0  0
  1  3  1  0  0  0  0
  1  4  1  0  0  0  0
  4  5  1  0  0  0  0
  4  6  1  0  0  0  0
  4  7  1  0  0  0  0
  7  8  1  0  0  0  0
  7  9  1  0  0  0  0
  7 10  1  0  0  0  0
 10 11  1  0  0  0  0
 10 12  1  0  0  0  0
 10 13  1  0  0  0  0
 13 14  1  0  0  0  0
 13 15  1  0  0  0  0
 15 16  1  0  0  0  0
 15 17  1  0  0  0  0
 15 18  1  0  0  0  0
 18 19  1  0  0  0  0
 18 20  1  0  0  0  0
  1 21  1  0  0  0  0
 18 21  1  0  0  0  0
 21 22  1  0  0  0  0
 21 23  1  0  0  0  0
 13 24  1  0  0  0  0
 24 25  1  0  0  0  0
M  END
> <VConfSearch Rank>
484

> <Conf_Id>
60

> <Delta U+W>
-1.838

> <U+W>
9.075

> <U>
11.150

> <W>
-2.074

> <W(PB)>
-4.196

> <W(SA)>
2.121

> <Valence>
16.582

> <Coulomb>
-8.361

> <VdW>
2.928

> <VdW6>
-12.539

> <VdW12>
15.467

> <Bond>
0.441

> <Angle>
5.093

> <Pdih>
11.049

> <Idih>
0.000

> <Tether>
0.000

$$$$
VeraChem MOL file


 25 25  0  0  0  0  0  0  0  0999 V2000     
   19.4238   19.9034   24.3696 C   0  0  0  0  0  0  0  0  0  0  0  0
   19.9948   20.4608   25.1244 H   0  0  0  0  0  0  0  0  0  0  0  0
   18.4019   19.8303   24.7662 H   0  0  0  0  0  0  0  0  0  0  0  0
   19.9831   18.4621   24.2668 C   0  0  0  0  0  0  0  0  0  0  0  0
   19.8600   17.9940   25.2529 H   0  0  0  0  0  0  0  0  0  0  0  0
   19.3604   17.8590   23.5962 H   0  0  0  0  0  0  0  0  0  0  0  0
   21.4788   18.3357   23.8822 C   0  0  0  0  0  0  0  0  0  0  0  0
   21.7532   17.2751   23.9640 H   0  0  0  0  0  0  0  0  0  0  0  0
   22.0907   18.8599   24.6287 H   0  0  0  0  0  0  0  0  0  0  0  0
   21.8830   18.8248   22.4672 C   0  0  0  0  0  0  0  0  0  0  0  0
   22.0091   19.9121   22.4648 H   0  0  0  0  0  0  0  0  0  0  0  0
   22.8891   18.4340   22.2650 H   0  0  0  0  0  0  0  0  0  0  0  0
   20.9231   18.3967   21.3270 C   0  0  0  0  0  0  0  0  0  0  0  0
   20.3162   17.5415   21.6532 H   0  0  0  0  0  0  0  0  0  0  0  0
   19.9839   19.5255   20.8338 C   0  0  0  0  0  0  0  0  0  0  0  0
   20.5871   20.3937   20.5379 H   0  0  0  0  0  0  0  0  0  0  0  0
   19.4978   19.1753   19.9135 H   0  0  0  0  0  0  0  0  0  0  0  0
   18.8643   19.9825   21.8085 C   0  0  0  0  0  0  0  0  0  0  0  0
   18.2218   19.1373   22.0871 H   0  0  0  0  0  0  0  0  0  0  0  0
   18.2118   20.6663   21.2486 H   0  0  0  0  0  0  0  0  0  0  0  0
   19.3647   20.7405   23.0654 C   0  0  0  0  0  0  0  0  0  0  0  0
   18.6808   21.5797   23.2523 H   0  0  0  0  0  0  0  0  0  0  0  0
   20.3316   21.2168   22.8677 H   0  0  0  0  0  0  0  0  0  0  0  0
   21.7088   17.9839   20.2151 O   0  0  0  0  0  0  0  0  0  0  0  0
   22.2489   17.2248   20.5195 H   0  0  0  0  0  0  0  0  0  0  0  0
  1  2  1  0  0  0  0
  1  3  1  0  0  0  0
  1  4  1  0  0  0  0
  4  5  1  0  0  0  0
  4  6  1  0  0  0  0
  4  7  1  0  0  0  0
  7  8  1  0  0  0  0
  7  9  1  0  0  0  0
  7 10  1  0  0  0  0
 10 11  1  0  0  0  0
 10 12  1  0  0  0  0
 10 13  1  0  0  0  0
 13 14  1  0  0  0  0
 13 15  1  0  0  0  0
 15 16  1  0  0  0  0
 15 17  1  0  0  0  0
 15 18  1  0  0  0  0
 18 19  1  0  0  0  0
 18 20  1  0  0  0  0
  1 21  1  0  0  0  0
 18 21  1  0  0  0  0
 21 22  1  0  0  0  0
 21 23  1  0  0  0  0
 13 24  1  0  0  0  0
 24 25  1  0  0  0  0
M  END
> <VConfSearch Rank>
485

> <Conf_Id>
129

> <Delta U+W>
-1.846

> <U+W>
9.067

> <U>
11.150

> <W>
-2.083

> <W(PB)>
-4.217

> <W(SA)>
2.134

> <Valence>
16.583

> <Coulomb>
-8.361

> <VdW>
2.928

> <VdW6>
-12.539

> <VdW12>
15.467

> <Bond>
0.441

> <Angle>
5.093

> <Pdih>
11.049

> <Idih>
0.000

> <Tether>
0.000

$$$$
VeraChem MOL file


 25 25  0  0  0  0  0  0  0  0999 V2000     
   19.5998   20.3043   24.2693 C   0  0  0  0  0  0  0  0  0  0  0  0
   18.5265   20.4643   24.4395 H   0  0  0  0  0  0  0  0  0  0  0  0
   20.1101   20.8117   25.0993 H   0  0  0  0  0  0  0  0  0  0  0  0
   20.0223   21.0188   22.9612 C   0  0  0  0  0  0  0  0  0  0  0  0
   19.8188   22.0900   23.0949 H   0  0  0  0  0  0  0  0  0  0  0  0
   21.1085   20.9594   22.8280 H   0  0  0  0  0  0  0  0  0  0  0  0
   19.2910   20.5699   21.6712 C   0  0  0  0  0  0  0  0  0  0  0  0
   19.6102   21.2392   20.8606 H   0  0  0  0  0  0  0  0  0  0  0  0
   18.2119   20.7379   21.7886 H   0  0  0  0  0  0  0  0  0  0  0  0
   19.5254   19.1106   21.2014 C   0  0  0  0  0  0  0  0  0  0  0  0
   18.8774   18.4259   21.7580 H   0  0  0  0  0  0  0  0  0  0  0  0
   19.1689   19.0477   20.1642 H   0  0  0  0  0  0  0  0  0  0  0  0
   20.9979   18.6288   21.2658 C   0  0  0  0  0  0  0  0  0  0  0  0
   21.6704   19.4966   21.2928 H   0  0  0  0  0  0  0  0  0  0  0  0
   21.3125   17.7013   22.4665 C   0  0  0  0  0  0  0  0  0  0  0  0
   20.6219   16.8480   22.4599 H   0  0  0  0  0  0  0  0  0  0  0  0
   22.3126   17.2765   22.3065 H   0  0  0  0  0  0  0  0  0  0  0  0
   21.3050   18.3523   23.8761 C   0  0  0  0  0  0  0  0  0  0  0  0
   22.0199   19.1838   23.9251 H   0  0  0  0  0  0  0  0  0  0  0  0
   21.6912   17.6009   24.5784 H   0  0  0  0  0  0  0  0  0  0  0  0
   19.9059   18.7884   24.3831 C   0  0  0  0  0  0  0  0  0  0  0  0
   19.8303   18.5234   25.4466 H   0  0  0  0  0  0  0  0  0  0  0  0
   19.1197   18.1982   23.8990 H   0  0  0  0  0  0  0  0  0  0  0  0
   21.2773   17.8944   20.0806 O   0  0  0  0  0  0  0  0  0  0  0  0
   20.6701   17.1262   20.0816 H   0  0  0  0  0  0  0  0  0  0  0  0
  1  2  1  0  0  0  0
  1  3  1  0  0  0  0
  1  4  1  0  0  0  0
  4  5  1  0  0  0  0
  4  6  1  0  0  0  0
  4  7  1  0  0  0  0
  7  8  1  0  0  0  0
  7  9  1  0  0  0  0
  7 10  1  0  0  0  0
 10 11  1  0  0  0  0
 10 12  1  0  0  0  0
 10 13  1  0  0  0  0
 13 14  1  0  0  0  0
 13 15  1  0  0  0  0
 15 16  1  0  0  0  0
 15 17  1  0  0  0  0
 15 18  1  0  0  0  0
 18 19  1  0  0  0  0
 18 20  1  0  0  0  0
  1 21  1  0  0  0  0
 18 21  1  0  0  0  0
 21 22  1  0  0  0  0
 21 23  1  0  0  0  0
 13 24  1  0  0  0  0
 24 25  1  0  0  0  0
M  END
> <VConfSearch Rank>
486

> <Conf_Id>
140

> <Delta U+W>
-1.702

> <U+W>
9.211

> <U>
11.181

> <W>
-1.969

> <W(PB)>
-4.093

> <W(SA)>
2.124

> <Valence>
16.954

> <Coulomb>
-8.661

> <VdW>
2.887

> <VdW6>
-12.561

> <VdW12>
15.448

> <Bond>
0.433

> <Angle>
5.120

> <Pdih>
11.401

> <Idih>
0.000

> <Tether>
0.000

$$$$
VeraChem MOL file


 25 25  0  0  0  0  0  0  0  0999 V2000     
   19.8908   17.1789   22.9718 C   0  0  0  0  0  0  0  0  0  0  0  0
   18.8996   16.8445   23.3067 H   0  0  0  0  0  0  0  0  0  0  0  0
   20.4990   16.2675   22.8910 H   0  0  0  0  0  0  0  0  0  0  0  0
   20.5196   18.0697   24.0743 C   0  0  0  0  0  0  0  0  0  0  0  0
   19.7669   18.7389   24.5060 H   0  0  0  0  0  0  0  0  0  0  0  0
   20.8017   17.4058   24.9029 H   0  0  0  0  0  0  0  0  0  0  0  0
   21.7780   18.8685   23.6469 C   0  0  0  0  0  0  0  0  0  0  0  0
   22.2923   18.3779   22.8104 H   0  0  0  0  0  0  0  0  0  0  0  0
   22.4911   18.8328   24.4819 H   0  0  0  0  0  0  0  0  0  0  0  0
   21.5220   20.3675   23.3334 C   0  0  0  0  0  0  0  0  0  0  0  0
   21.0469   20.8413   24.2023 H   0  0  0  0  0  0  0  0  0  0  0  0
   22.5016   20.8527   23.2279 H   0  0  0  0  0  0  0  0  0  0  0  0
   20.7000   20.6853   22.0589 C   0  0  0  0  0  0  0  0  0  0  0  0
   21.1609   20.1848   21.1969 H   0  0  0  0  0  0  0  0  0  0  0  0
   19.2027   20.2929   22.1520 C   0  0  0  0  0  0  0  0  0  0  0  0
   18.8915   20.2295   23.1997 H   0  0  0  0  0  0  0  0  0  0  0  0
   18.5899   21.1006   21.7293 H   0  0  0  0  0  0  0  0  0  0  0  0
   18.8168   18.9928   21.3996 C   0  0  0  0  0  0  0  0  0  0  0  0
   18.7514   19.2310   20.3290 H   0  0  0  0  0  0  0  0  0  0  0  0
   17.8035   18.6939   21.7005 H   0  0  0  0  0  0  0  0  0  0  0  0
   19.7733   17.7835   21.5502 C   0  0  0  0  0  0  0  0  0  0  0  0
   20.7666   18.0272   21.1562 H   0  0  0  0  0  0  0  0  0  0  0  0
   19.4011   16.9896   20.8884 H   0  0  0  0  0  0  0  0  0  0  0  0
   20.7790   22.0889   21.8448 O   0  0  0  0  0  0  0  0  0  0  0  0
   20.3668   22.5115   22.6260 H   0  0  0  0  0  0  0  0  0  0  0  0
  1  2  1  0  0  0  0
  1  3  1  0  0  0  0
  1  4  1  0  0  0  0
  4  5  1  0  0  0  0
  4  6  1  0  0  0  0
  4  7  1  0  0  0  0
  7  8  1  0  0  0  0
  7  9  1  0  0  0  0
  7 10  1  0  0  0  0
 10 11  1  0  0  0  0
 10 12  1  0  0  0  0
 10 13  1  0  0  0  0
 13 14  1  0  0  0  0
 13 15  1  0  0  0  0
 15 16  1  0  0  0  0
 15 17  1  0  0  0  0
 15 18  1  0  0  0  0
 18 19  1  0  0  0  0
 18 20  1  0  0  0  0
  1 21  1  0  0  0  0
 18 21  1  0  0  0  0
 21 22  1  0  0  0  0
 21 23  1  0  0  0  0
 13 24  1  0  0  0  0
 24 25  1  0  0  0  0
M  END
> <VConfSearch Rank>
487

> <Conf_Id>
68

> <Delta U+W>
-1.765

> <U+W>
9.148

> <U>
11.181

> <W>
-2.032

> <W(PB)>
-4.147

> <W(SA)>
2.114

> <Valence>
16.955

> <Coulomb>
-8.661

> <VdW>
2.887

> <VdW6>
-12.561

> <VdW12>
15.448

> <Bond>
0.433

> <Angle>
5.121

> <Pdih>
11.402

> <Idih>
0.000

> <Tether>
0.000

$$$$
VeraChem MOL file


 25 25  0  0  0  0  0  0  0  0999 V2000     
   20.3500   17.4354   23.2840 C   0  0  0  0  0  0  0  0  0  0  0  0
   20.5220   16.4310   23.6946 H   0  0  0  0  0  0  0  0  0  0  0  0
   19.5144   17.3042   22.5873 H   0  0  0  0  0  0  0  0  0  0  0  0
   21.6304   17.8702   22.5245 C   0  0  0  0  0  0  0  0  0  0  0  0
   22.2866   18.4714   23.1667 H   0  0  0  0  0  0  0  0  0  0  0  0
   22.2054   16.9614   22.2998 H   0  0  0  0  0  0  0  0  0  0  0  0
   21.3738   18.5885   21.1736 C   0  0  0  0  0  0  0  0  0  0  0  0
   20.7553   17.9466   20.5314 H   0  0  0  0  0  0  0  0  0  0  0  0
   22.3385   18.6803   20.6561 H   0  0  0  0  0  0  0  0  0  0  0  0
   20.7406   20.0035   21.2462 C   0  0  0  0  0  0  0  0  0  0  0  0
   21.3608   20.6680   21.8597 H   0  0  0  0  0  0  0  0  0  0  0  0
   20.7856   20.4223   20.2317 H   0  0  0  0  0  0  0  0  0  0  0  0
   19.2656   20.0240   21.7246 C   0  0  0  0  0  0  0  0  0  0  0  0
   18.8331   19.0255   21.5922 H   0  0  0  0  0  0  0  0  0  0  0  0
   19.0659   20.4733   23.1930 C   0  0  0  0  0  0  0  0  0  0  0  0
   19.1634   21.5659   23.2394 H   0  0  0  0  0  0  0  0  0  0  0  0
   18.0314   20.2513   23.4855 H   0  0  0  0  0  0  0  0  0  0  0  0
   20.0282   19.8776   24.2529 C   0  0  0  0  0  0  0  0  0  0  0  0
   19.7950   20.3580   25.2128 H   0  0  0  0  0  0  0  0  0  0  0  0
   21.0623   20.1721   24.0404 H   0  0  0  0  0  0  0  0  0  0  0  0
   19.9384   18.3462   24.4698 C   0  0  0  0  0  0  0  0  0  0  0  0
   18.9195   18.0828   24.7846 H   0  0  0  0  0  0  0  0  0  0  0  0
   20.5851   18.0977   25.3224 H   0  0  0  0  0  0  0  0  0  0  0  0
   18.5343   20.9225   20.8995 O   0  0  0  0  0  0  0  0  0  0  0  0
   18.9453   21.8035   21.0171 H   0  0  0  0  0  0  0  0  0  0  0  0
  1  2  1  0  0  0  0
  1  3  1  0  0  0  0
  1  4  1  0  0  0  0
  4  5  1  0  0  0  0
  4  6  1  0  0  0  0
  4  7  1  0  0  0  0
  7  8  1  0  0  0  0
  7  9  1  0  0  0  0
  7 10  1  0  0  0  0
 10 11  1  0  0  0  0
 10 12  1  0  0  0  0
 10 13  1  0  0  0  0
 13 14  1  0  0  0  0
 13 15  1  0  0  0  0
 15 16  1  0  0  0  0
 15 17  1  0  0  0  0
 15 18  1  0  0  0  0
 18 19  1  0  0  0  0
 18 20  1  0  0  0  0
  1 21  1  0  0  0  0
 18 21  1  0  0  0  0
 21 22  1  0  0  0  0
 21 23  1  0  0  0  0
 13 24  1  0  0  0  0
 24 25  1  0  0  0  0
M  END
> <VConfSearch Rank>
488

> <Conf_Id>
165

> <Delta U+W>
-1.999

> <U+W>
8.915

> <U>
10.935

> <W>
-2.020

> <W(PB)>
-4.135

> <W(SA)>
2.115

> <Valence>
16.757

> <Coulomb>
-8.731

> <VdW>
2.908

> <VdW6>
-12.597

> <VdW12>
15.506

> <Bond>
0.434

> <Angle>
5.069

> <Pdih>
11.254

> <Idih>
0.000

> <Tether>
0.000

$$$$
VeraChem MOL file


 25 25  0  0  0  0  0  0  0  0999 V2000     
   21.5984   17.8941   22.4236 C   0  0  0  0  0  0  0  0  0  0  0  0
   22.4060   17.1780   22.2182 H   0  0  0  0  0  0  0  0  0  0  0  0
   21.1062   17.4980   23.3189 H   0  0  0  0  0  0  0  0  0  0  0  0
   20.6382   17.8564   21.2062 C   0  0  0  0  0  0  0  0  0  0  0  0
   21.2532   17.8157   20.2968 H   0  0  0  0  0  0  0  0  0  0  0  0
   20.0753   16.9133   21.2250 H   0  0  0  0  0  0  0  0  0  0  0  0
   19.6513   19.0396   21.0434 C   0  0  0  0  0  0  0  0  0  0  0  0
   19.1254   18.8983   20.0893 H   0  0  0  0  0  0  0  0  0  0  0  0
   20.2010   19.9796   20.9191 H   0  0  0  0  0  0  0  0  0  0  0  0
   18.5728   19.1844   22.1478 C   0  0  0  0  0  0  0  0  0  0  0  0
   17.8918   19.9889   21.8387 H   0  0  0  0  0  0  0  0  0  0  0  0
   17.9677   18.2691   22.1746 H   0  0  0  0  0  0  0  0  0  0  0  0
   19.0672   19.4938   23.5823 C   0  0  0  0  0  0  0  0  0  0  0  0
   19.4513   18.5741   24.0388 H   0  0  0  0  0  0  0  0  0  0  0  0
   20.1588   20.5917   23.6669 C   0  0  0  0  0  0  0  0  0  0  0  0
   20.1270   21.2426   22.7852 H   0  0  0  0  0  0  0  0  0  0  0  0
   19.9248   21.2488   24.5155 H   0  0  0  0  0  0  0  0  0  0  0  0
   21.5972   20.0549   23.8948 C   0  0  0  0  0  0  0  0  0  0  0  0
   21.6127   19.4319   24.7995 H   0  0  0  0  0  0  0  0  0  0  0  0
   22.2430   20.9149   24.1186 H   0  0  0  0  0  0  0  0  0  0  0  0
   22.2429   19.2732   22.7205 C   0  0  0  0  0  0  0  0  0  0  0  0
   23.2923   19.0954   22.9929 H   0  0  0  0  0  0  0  0  0  0  0  0
   22.2842   19.8936   21.8160 H   0  0  0  0  0  0  0  0  0  0  0  0
   17.9393   19.9188   24.3391 O   0  0  0  0  0  0  0  0  0  0  0  0
   17.2856   19.1894   24.3053 H   0  0  0  0  0  0  0  0  0  0  0  0
  1  2  1  0  0  0  0
  1  3  1  0  0  0  0
  1  4  1  0  0  0  0
  4  5  1  0  0  0  0
  4  6  1  0  0  0  0
  4  7  1  0  0  0  0
  7  8  1  0  0  0  0
  7  9  1  0  0  0  0
  7 10  1  0  0  0  0
 10 11  1  0  0  0  0
 10 12  1  0  0  0  0
 10 13  1  0  0  0  0
 13 14  1  0  0  0  0
 13 15  1  0  0  0  0
 15 16  1  0  0  0  0
 15 17  1  0  0  0  0
 15 18  1  0  0  0  0
 18 19  1  0  0  0  0
 18 20  1  0  0  0  0
  1 21  1  0  0  0  0
 18 21  1  0  0  0  0
 21 22  1  0  0  0  0
 21 23  1  0  0  0  0
 13 24  1  0  0  0  0
 24 25  1  0  0  0  0
M  END
> <VConfSearch Rank>
489

> <Conf_Id>
133

> <Delta U+W>
-2.139

> <U+W>
8.774

> <U>
10.905

> <W>
-2.131

> <W(PB)>
-4.281

> <W(SA)>
2.150

> <Valence>
16.378

> <Coulomb>
-8.448

> <VdW>
2.976

> <VdW6>
-12.570

> <VdW12>
15.545

> <Bond>
0.439

> <Angle>
5.049

> <Pdih>
10.889

> <Idih>
0.000

> <Tether>
0.000

$$$$
VeraChem MOL file


 25 25  0  0  0  0  0  0  0  0999 V2000     
   20.4109   17.4059   22.7193 C   0  0  0  0  0  0  0  0  0  0  0  0
   20.4781   16.3165   22.8450 H   0  0  0  0  0  0  0  0  0  0  0  0
   20.6127   17.5688   21.6547 H   0  0  0  0  0  0  0  0  0  0  0  0
   21.5155   18.0593   23.5901 C   0  0  0  0  0  0  0  0  0  0  0  0
   21.1225   18.3549   24.5713 H   0  0  0  0  0  0  0  0  0  0  0  0
   22.2670   17.2870   23.8043 H   0  0  0  0  0  0  0  0  0  0  0  0
   22.2614   19.2416   22.9173 C   0  0  0  0  0  0  0  0  0  0  0  0
   22.6872   18.9071   21.9613 H   0  0  0  0  0  0  0  0  0  0  0  0
   23.1225   19.4964   23.5499 H   0  0  0  0  0  0  0  0  0  0  0  0
   21.4438   20.5408   22.6875 C   0  0  0  0  0  0  0  0  0  0  0  0
   21.0351   20.9101   23.6355 H   0  0  0  0  0  0  0  0  0  0  0  0
   22.1549   21.3126   22.3631 H   0  0  0  0  0  0  0  0  0  0  0  0
   20.3298   20.4199   21.6158 C   0  0  0  0  0  0  0  0  0  0  0  0
   20.5439   19.5560   20.9757 H   0  0  0  0  0  0  0  0  0  0  0  0
   18.8963   20.2900   22.1868 C   0  0  0  0  0  0  0  0  0  0  0  0
   18.5690   21.2837   22.5212 H   0  0  0  0  0  0  0  0  0  0  0  0
   18.2180   20.0062   21.3719 H   0  0  0  0  0  0  0  0  0  0  0  0
   18.6926   19.3112   23.3718 C   0  0  0  0  0  0  0  0  0  0  0  0
   17.6462   19.4008   23.6937 H   0  0  0  0  0  0  0  0  0  0  0  0
   19.2774   19.6345   24.2406 H   0  0  0  0  0  0  0  0  0  0  0  0
   18.9568   17.8143   23.0718 C   0  0  0  0  0  0  0  0  0  0  0  0
   18.2876   17.4811   22.2670 H   0  0  0  0  0  0  0  0  0  0  0  0
   18.6560   17.2443   23.9615 H   0  0  0  0  0  0  0  0  0  0  0  0
   20.3593   21.5857   20.7999 O   0  0  0  0  0  0  0  0  0  0  0  0
   19.6777   21.4623   20.1066 H   0  0  0  0  0  0  0  0  0  0  0  0
  1  2  1  0  0  0  0
  1  3  1  0  0  0  0
  1  4  1  0  0  0  0
  4  5  1  0  0  0  0
  4  6  1  0  0  0  0
  4  7  1  0  0  0  0
  7  8  1  0  0  0  0
  7  9  1  0  0  0  0
  7 10  1  0  0  0  0
 10 11  1  0  0  0  0
 10 12  1  0  0  0  0
 10 13  1  0  0  0  0
 13 14  1  0  0  0  0
 13 15  1  0  0  0  0
 15 16  1  0  0  0  0
 15 17  1  0  0  0  0
 15 18  1  0  0  0  0
 18 19  1  0  0  0  0
 18 20  1  0  0  0  0
  1 21  1  0  0  0  0
 18 21  1  0  0  0  0
 21 22  1  0  0  0  0
 21 23  1  0  0  0  0
 13 24  1  0  0  0  0
 24 25  1  0  0  0  0
M  END
> <VConfSearch Rank>
490

> <Conf_Id>
95

> <Delta U+W>
-2.190

> <U+W>
8.723

> <U>
10.905

> <W>
-2.182

> <W(PB)>
-4.296

> <W(SA)>
2.114

> <Valence>
16.377

> <Coulomb>
-8.448

> <VdW>
2.976

> <VdW6>
-12.570

> <VdW12>
15.546

> <Bond>
0.439

> <Angle>
5.049

> <Pdih>
10.889

> <Idih>
0.000

> <Tether>
0.000

$$$$
VeraChem MOL file


 25 25  0  0  0  0  0  0  0  0999 V2000     
   19.0480   20.4620   22.3101 C   0  0  0  0  0  0  0  0  0  0  0  0
   18.2174   21.1483   22.0955 H   0  0  0  0  0  0  0  0  0  0  0  0
   19.9348   21.0449   22.0416 H   0  0  0  0  0  0  0  0  0  0  0  0
   18.8804   19.2353   21.3660 C   0  0  0  0  0  0  0  0  0  0  0  0
   17.8027   19.0581   21.2471 H   0  0  0  0  0  0  0  0  0  0  0  0
   19.2442   19.5037   20.3650 H   0  0  0  0  0  0  0  0  0  0  0  0
   19.5141   17.8865   21.7969 C   0  0  0  0  0  0  0  0  0  0  0  0
   19.1929   17.1228   21.0755 H   0  0  0  0  0  0  0  0  0  0  0  0
   19.0597   17.5576   22.7368 H   0  0  0  0  0  0  0  0  0  0  0  0
   21.0681   17.8169   21.8776 C   0  0  0  0  0  0  0  0  0  0  0  0
   21.3525   16.9745   22.5218 H   0  0  0  0  0  0  0  0  0  0  0  0
   21.4305   17.5586   20.8740 H   0  0  0  0  0  0  0  0  0  0  0  0
   21.8368   19.0837   22.3316 C   0  0  0  0  0  0  0  0  0  0  0  0
   21.5762   19.9007   21.6508 H   0  0  0  0  0  0  0  0  0  0  0  0
   21.6278   19.5456   23.8025 C   0  0  0  0  0  0  0  0  0  0  0  0
   22.3368   18.9934   24.4340 H   0  0  0  0  0  0  0  0  0  0  0  0
   21.9245   20.5994   23.8780 H   0  0  0  0  0  0  0  0  0  0  0  0
   20.2237   19.3703   24.4418 C   0  0  0  0  0  0  0  0  0  0  0  0
   20.3044   19.6495   25.5011 H   0  0  0  0  0  0  0  0  0  0  0  0
   19.9727   18.3054   24.4765 H   0  0  0  0  0  0  0  0  0  0  0  0
   19.0502   20.1966   23.8388 C   0  0  0  0  0  0  0  0  0  0  0  0
   19.0506   21.1773   24.3339 H   0  0  0  0  0  0  0  0  0  0  0  0
   18.1003   19.7253   24.1249 H   0  0  0  0  0  0  0  0  0  0  0  0
   23.2252   18.8212   22.1641 O   0  0  0  0  0  0  0  0  0  0  0  0
   23.3584   18.5944   21.2202 H   0  0  0  0  0  0  0  0  0  0  0  0
  1  2  1  0  0  0  0
  1  3  1  0  0  0  0
  1  4  1  0  0  0  0
  4  5  1  0  0  0  0
  4  6  1  0  0  0  0
  4  7  1  0  0  0  0
  7  8  1  0  0  0  0
  7  9  1  0  0  0  0
  7 10  1  0  0  0  0
 10 11  1  0  0  0  0
 10 12  1  0  0  0  0
 10 13  1  0  0  0  0
 13 14  1  0  0  0  0
 13 15  1  0  0  0  0
 15 16  1  0  0  0  0
 15 17  1  0  0  0  0
 15 18  1  0  0  0  0
 18 19  1  0  0  0  0
 18 20  1  0  0  0  0
  1 21  1  0  0  0  0
 18 21  1  0  0  0  0
 21 22  1  0  0  0  0
 21 23  1  0  0  0  0
 13 24  1  0  0  0  0
 24 25  1  0  0  0  0
M  END
> <VConfSearch Rank>
491

> <Conf_Id>
161

> <Delta U+W>
2.120

> <U+W>
13.033

> <U>
15.076

> <W>
-2.043

> <W(PB)>
-4.186

> <W(SA)>
2.143

> <Valence>
18.884

> <Coulomb>
-8.074

> <VdW>
4.266

> <VdW6>
-13.486

> <VdW12>
17.752

> <Bond>
0.713

> <Angle>
8.955

> <Pdih>
9.215

> <Idih>
0.000

> <Tether>
0.000

$$$$
VeraChem MOL file


 25 25  0  0  0  0  0  0  0  0999 V2000     
   20.2153   18.0928   21.0005 C   0  0  0  0  0  0  0  0  0  0  0  0
   20.4270   17.4852   20.1100 H   0  0  0  0  0  0  0  0  0  0  0  0
   19.1454   18.3269   20.9312 H   0  0  0  0  0  0  0  0  0  0  0  0
   21.0487   19.3948   20.9004 C   0  0  0  0  0  0  0  0  0  0  0  0
   22.0549   19.2471   21.3151 H   0  0  0  0  0  0  0  0  0  0  0  0
   21.2018   19.5932   19.8307 H   0  0  0  0  0  0  0  0  0  0  0  0
   20.3737   20.6598   21.5000 C   0  0  0  0  0  0  0  0  0  0  0  0
   19.2916   20.6586   21.3120 H   0  0  0  0  0  0  0  0  0  0  0  0
   20.7641   21.5221   20.9421 H   0  0  0  0  0  0  0  0  0  0  0  0
   20.6723   20.9228   22.9987 C   0  0  0  0  0  0  0  0  0  0  0  0
   21.6923   20.5981   23.2376 H   0  0  0  0  0  0  0  0  0  0  0  0
   20.6785   22.0101   23.1517 H   0  0  0  0  0  0  0  0  0  0  0  0
   19.6540   20.3417   24.0123 C   0  0  0  0  0  0  0  0  0  0  0  0
   18.7214   20.9167   23.9210 H   0  0  0  0  0  0  0  0  0  0  0  0
   19.2946   18.8470   23.8466 C   0  0  0  0  0  0  0  0  0  0  0  0
   18.7593   18.5198   24.7480 H   0  0  0  0  0  0  0  0  0  0  0  0
   18.5596   18.7449   23.0409 H   0  0  0  0  0  0  0  0  0  0  0  0
   20.5061   17.9049   23.6142 C   0  0  0  0  0  0  0  0  0  0  0  0
   20.5075   17.1320   24.3948 H   0  0  0  0  0  0  0  0  0  0  0  0
   21.4548   18.4381   23.7443 H   0  0  0  0  0  0  0  0  0  0  0  0
   20.5006   17.1997   22.2368 C   0  0  0  0  0  0  0  0  0  0  0  0
   19.7541   16.3939   22.2560 H   0  0  0  0  0  0  0  0  0  0  0  0
   21.4715   16.7041   22.1003 H   0  0  0  0  0  0  0  0  0  0  0  0
   20.1805   20.5287   25.3185 O   0  0  0  0  0  0  0  0  0  0  0  0
   20.9235   19.8970   25.4008 H   0  0  0  0  0  0  0  0  0  0  0  0
  1  2  1  0  0  0  0
  1  3  1  0  0  0  0
  1  4  1  0  0  0  0
  4  5  1  0  0  0  0
  4  6  1  0  0  0  0
  4  7  1  0  0  0  0
  7  8  1  0  0  0  0
  7  9  1  0  0  0  0
  7 10  1  0  0  0  0
 10 11  1  0  0  0  0
 10 12  1  0  0  0  0
 10 13  1  0  0  0  0
 13 14  1  0  0  0  0
 13 15  1  0  0  0  0
 15 16  1  0  0  0  0
 15 17  1  0  0  0  0
 15 18  1  0  0  0  0
 18 19  1  0  0  0  0
 18 20  1  0  0  0  0
  1 21  1  0  0  0  0
 18 21  1  0  0  0  0
 21 22  1  0  0  0  0
 21 23  1  0  0  0  0
 13 24  1  0  0  0  0
 24 25  1  0  0  0  0
M  END
> <VConfSearch Rank>
492

> <Conf_Id>
164

> <Delta U+W>
0.008

> <U+W>
10.922

> <U>
12.433

> <W>
-1.511

> <W(PB)>
-3.669

> <W(SA)>
2.157

> <Valence>
19.007

> <Coulomb>
-9.373

> <VdW>
2.799

> <VdW6>
-12.597

> <VdW12>
15.396

> <Bond>
0.425

> <Angle>
4.784

> <Pdih>
13.799

> <Idih>
0.000

> <Tether>
0.000

$$$$
VeraChem MOL file


 25 25  0  0  0  0  0  0  0  0999 V2000     
   21.9309   18.3930   22.5076 C   0  0  0  0  0  0  0  0  0  0  0  0
   22.1537   19.4658   22.5263 H   0  0  0  0  0  0  0  0  0  0  0  0
   22.9135   17.9080   22.4295 H   0  0  0  0  0  0  0  0  0  0  0  0
   21.1354   18.0283   21.2294 C   0  0  0  0  0  0  0  0  0  0  0  0
   21.7577   18.3003   20.3659 H   0  0  0  0  0  0  0  0  0  0  0  0
   21.0142   16.9378   21.1761 H   0  0  0  0  0  0  0  0  0  0  0  0
   19.7497   18.6979   21.0441 C   0  0  0  0  0  0  0  0  0  0  0  0
   18.9799   18.1496   21.5990 H   0  0  0  0  0  0  0  0  0  0  0  0
   19.4686   18.5740   19.9893 H   0  0  0  0  0  0  0  0  0  0  0  0
   19.6937   20.2107   21.3862 C   0  0  0  0  0  0  0  0  0  0  0  0
   20.6847   20.6712   21.2932 H   0  0  0  0  0  0  0  0  0  0  0  0
   19.0752   20.6958   20.6191 H   0  0  0  0  0  0  0  0  0  0  0  0
   19.0575   20.5456   22.7586 C   0  0  0  0  0  0  0  0  0  0  0  0
   18.0723   20.0602   22.8069 H   0  0  0  0  0  0  0  0  0  0  0  0
   19.8627   20.1297   24.0152 C   0  0  0  0  0  0  0  0  0  0  0  0
   20.8592   20.5876   24.0087 H   0  0  0  0  0  0  0  0  0  0  0  0
   19.3492   20.5645   24.8833 H   0  0  0  0  0  0  0  0  0  0  0  0
   19.9560   18.5990   24.2539 C   0  0  0  0  0  0  0  0  0  0  0  0
   19.1194   18.0827   23.7696 H   0  0  0  0  0  0  0  0  0  0  0  0
   19.8116   18.4097   25.3265 H   0  0  0  0  0  0  0  0  0  0  0  0
   21.3039   17.9475   23.8523 C   0  0  0  0  0  0  0  0  0  0  0  0
   21.1863   16.8554   23.8537 H   0  0  0  0  0  0  0  0  0  0  0  0
   22.0327   18.1685   24.6441 H   0  0  0  0  0  0  0  0  0  0  0  0
   18.8690   21.9530   22.8140 O   0  0  0  0  0  0  0  0  0  0  0  0
   19.7616   22.3531   22.7688 H   0  0  0  0  0  0  0  0  0  0  0  0
  1  2  1  0  0  0  0
  1  3  1  0  0  0  0
  1  4  1  0  0  0  0
  4  5  1  0  0  0  0
  4  6  1  0  0  0  0
  4  7  1  0  0  0  0
  7  8  1  0  0  0  0
  7  9  1  0  0  0  0
  7 10  1  0  0  0  0
 10 11  1  0  0  0  0
 10 12  1  0  0  0  0
 10 13  1  0  0  0  0
 13 14  1  0  0  0  0
 13 15  1  0  0  0  0
 15 16  1  0  0  0  0
 15 17  1  0  0  0  0
 15 18  1  0  0  0  0
 18 19  1  0  0  0  0
 18 20  1  0  0  0  0
  1 21  1  0  0  0  0
 18 21  1  0  0  0  0
 21 22  1  0  0  0  0
 21 23  1  0  0  0  0
 13 24  1  0  0  0  0
 24 25  1  0  0  0  0
M  END
> <VConfSearch Rank>
493

> <Conf_Id>
15

> <Delta U+W>
-1.271

> <U+W>
9.643

> <U>
11.413

> <W>
-1.770

> <W(PB)>
-3.908

> <W(SA)>
2.138

> <Valence>
17.496

> <Coulomb>
-8.736

> <VdW>
2.653

> <VdW6>
-12.485

> <VdW12>
15.138

> <Bond>
0.414

> <Angle>
5.295

> <Pdih>
11.787

> <Idih>
0.000

> <Tether>
0.000

$$$$
VeraChem MOL file


 25 25  0  0  0  0  0  0  0  0999 V2000     
   21.5378   19.5821   24.0969 C   0  0  0  0  0  0  0  0  0  0  0  0
   22.0625   19.8708   25.0180 H   0  0  0  0  0  0  0  0  0  0  0  0
   22.3128   19.5877   23.3201 H   0  0  0  0  0  0  0  0  0  0  0  0
   20.9938   18.1459   24.3166 C   0  0  0  0  0  0  0  0  0  0  0  0
   21.8520   17.4644   24.3933 H   0  0  0  0  0  0  0  0  0  0  0  0
   20.4898   18.1021   25.2917 H   0  0  0  0  0  0  0  0  0  0  0  0
   20.0218   17.6000   23.2430 C   0  0  0  0  0  0  0  0  0  0  0  0
   19.0229   18.0218   23.4042 H   0  0  0  0  0  0  0  0  0  0  0  0
   19.9008   16.5210   23.4100 H   0  0  0  0  0  0  0  0  0  0  0  0
   20.4954   17.8285   21.7839 C   0  0  0  0  0  0  0  0  0  0  0  0
   21.5253   18.2015   21.7610 H   0  0  0  0  0  0  0  0  0  0  0  0
   20.5362   16.8560   21.2761 H   0  0  0  0  0  0  0  0  0  0  0  0
   19.5782   18.7518   20.9493 C   0  0  0  0  0  0  0  0  0  0  0  0
   18.6694   18.1837   20.7041 H   0  0  0  0  0  0  0  0  0  0  0  0
   19.1230   20.0711   21.6251 C   0  0  0  0  0  0  0  0  0  0  0  0
   18.6318   20.6751   20.8504 H   0  0  0  0  0  0  0  0  0  0  0  0
   18.3303   19.8649   22.3543 H   0  0  0  0  0  0  0  0  0  0  0  0
   20.2267   20.9414   22.2834 C   0  0  0  0  0  0  0  0  0  0  0  0
   19.8961   21.9860   22.2023 H   0  0  0  0  0  0  0  0  0  0  0  0
   21.1641   20.8906   21.7146 H   0  0  0  0  0  0  0  0  0  0  0  0
   20.4751   20.6668   23.7923 C   0  0  0  0  0  0  0  0  0  0  0  0
   19.5348   20.4505   24.3170 H   0  0  0  0  0  0  0  0  0  0  0  0
   20.8427   21.6050   24.2301 H   0  0  0  0  0  0  0  0  0  0  0  0
   20.2539   19.0740   19.7418 O   0  0  0  0  0  0  0  0  0  0  0  0
   20.9975   19.6558   19.9982 H   0  0  0  0  0  0  0  0  0  0  0  0
  1  2  1  0  0  0  0
  1  3  1  0  0  0  0
  1  4  1  0  0  0  0
  4  5  1  0  0  0  0
  4  6  1  0  0  0  0
  4  7  1  0  0  0  0
  7  8  1  0  0  0  0
  7  9  1  0  0  0  0
  7 10  1  0  0  0  0
 10 11  1  0  0  0  0
 10 12  1  0  0  0  0
 10 13  1  0  0  0  0
 13 14  1  0  0  0  0
 13 15  1  0  0  0  0
 15 16  1  0  0  0  0
 15 17  1  0  0  0  0
 15 18  1  0  0  0  0
 18 19  1  0  0  0  0
 18 20  1  0  0  0  0
  1 21  1  0  0  0  0
 18 21  1  0  0  0  0
 21 22  1  0  0  0  0
 21 23  1  0  0  0  0
 13 24  1  0  0  0  0
 24 25  1  0  0  0  0
M  END
> <VConfSearch Rank>
494

> <Conf_Id>
115

> <Delta U+W>
0.038

> <U+W>
10.952

> <U>
12.526

> <W>
-1.575

> <W(PB)>
-3.698

> <W(SA)>
2.123

> <Valence>
19.016

> <Coulomb>
-9.226

> <VdW>
2.737

> <VdW6>
-12.612

> <VdW12>
15.349

> <Bond>
0.421

> <Angle>
4.883

> <Pdih>
13.711

> <Idih>
0.000

> <Tether>
0.000

$$$$
VeraChem MOL file


 25 25  0  0  0  0  0  0  0  0999 V2000     
   21.2869   17.9693   21.2363 C   0  0  0  0  0  0  0  0  0  0  0  0
   21.9587   17.1506   20.9441 H   0  0  0  0  0  0  0  0  0  0  0  0
   20.6945   18.1978   20.3400 H   0  0  0  0  0  0  0  0  0  0  0  0
   22.1726   19.1806   21.6104 C   0  0  0  0  0  0  0  0  0  0  0  0
   22.8528   18.9116   22.4299 H   0  0  0  0  0  0  0  0  0  0  0  0
   22.8192   19.3933   20.7481 H   0  0  0  0  0  0  0  0  0  0  0  0
   21.4025   20.4755   21.9587 C   0  0  0  0  0  0  0  0  0  0  0  0
   20.5643   20.6192   21.2639 H   0  0  0  0  0  0  0  0  0  0  0  0
   22.0807   21.3203   21.7757 H   0  0  0  0  0  0  0  0  0  0  0  0
   20.9364   20.5637   23.4368 C   0  0  0  0  0  0  0  0  0  0  0  0
   21.4302   19.8048   24.0566 H   0  0  0  0  0  0  0  0  0  0  0  0
   21.2785   21.5304   23.8307 H   0  0  0  0  0  0  0  0  0  0  0  0
   19.4051   20.4883   23.6294 C   0  0  0  0  0  0  0  0  0  0  0  0
   18.9152   21.0039   22.7911 H   0  0  0  0  0  0  0  0  0  0  0  0
   18.8390   19.0549   23.7367 C   0  0  0  0  0  0  0  0  0  0  0  0
   19.2724   18.5453   24.6073 H   0  0  0  0  0  0  0  0  0  0  0  0
   17.7641   19.1382   23.9439 H   0  0  0  0  0  0  0  0  0  0  0  0
   19.0035   18.1793   22.4706 C   0  0  0  0  0  0  0  0  0  0  0  0
   18.7947   18.7688   21.5678 H   0  0  0  0  0  0  0  0  0  0  0  0
   18.2207   17.4090   22.5020 H   0  0  0  0  0  0  0  0  0  0  0  0
   20.3681   17.4491   22.3667 C   0  0  0  0  0  0  0  0  0  0  0  0
   20.1590   16.3912   22.1563 H   0  0  0  0  0  0  0  0  0  0  0  0
   20.9012   17.4540   23.3267 H   0  0  0  0  0  0  0  0  0  0  0  0
   19.0792   21.1677   24.8360 O   0  0  0  0  0  0  0  0  0  0  0  0
   18.1023   21.1559   24.9128 H   0  0  0  0  0  0  0  0  0  0  0  0
  1  2  1  0  0  0  0
  1  3  1  0  0  0  0
  1  4  1  0  0  0  0
  4  5  1  0  0  0  0
  4  6  1  0  0  0  0
  4  7  1  0  0  0  0
  7  8  1  0  0  0  0
  7  9  1  0  0  0  0
  7 10  1  0  0  0  0
 10 11  1  0  0  0  0
 10 12  1  0  0  0  0
 10 13  1  0  0  0  0
 13 14  1  0  0  0  0
 13 15  1  0  0  0  0
 15 16  1  0  0  0  0
 15 17  1  0  0  0  0
 15 18  1  0  0  0  0
 18 19  1  0  0  0  0
 18 20  1  0  0  0  0
  1 21  1  0  0  0  0
 18 21  1  0  0  0  0
 21 22  1  0  0  0  0
 21 23  1  0  0  0  0
 13 24  1  0  0  0  0
 24 25  1  0  0  0  0
M  END
> <VConfSearch Rank>
495

> <Conf_Id>
30

> <Delta U+W>
0.000

> <U+W>
10.913

> <U>
13.140

> <W>
-2.227

> <W(PB)>
-4.367

> <W(SA)>
2.140

> <Valence>
19.155

> <Coulomb>
-8.157

> <VdW>
2.142

> <VdW6>
-11.576

> <VdW12>
13.718

> <Bond>
0.294

> <Angle>
3.547

> <Pdih>
15.314

> <Idih>
0.000

> <Tether>
0.000

$$$$
VeraChem MOL file


 25 25  0  0  0  0  0  0  0  0999 V2000     
   19.8376   17.4108   21.6559 C   0  0  0  0  0  0  0  0  0  0  0  0
   20.1737   16.3747   21.7989 H   0  0  0  0  0  0  0  0  0  0  0  0
   19.1862   17.3921   20.7716 H   0  0  0  0  0  0  0  0  0  0  0  0
   21.0722   18.2870   21.3302 C   0  0  0  0  0  0  0  0  0  0  0  0
   21.6922   17.7418   20.6055 H   0  0  0  0  0  0  0  0  0  0  0  0
   20.7526   19.1898   20.7969 H   0  0  0  0  0  0  0  0  0  0  0  0
   21.9462   18.6446   22.5590 C   0  0  0  0  0  0  0  0  0  0  0  0
   22.9776   18.3200   22.3648 H   0  0  0  0  0  0  0  0  0  0  0  0
   21.6354   18.0746   23.4422 H   0  0  0  0  0  0  0  0  0  0  0  0
   21.9742   20.1569   22.8963 C   0  0  0  0  0  0  0  0  0  0  0  0
   22.4543   20.2848   23.8755 H   0  0  0  0  0  0  0  0  0  0  0  0
   22.6268   20.6621   22.1724 H   0  0  0  0  0  0  0  0  0  0  0  0
   20.6139   20.8983   22.8999 C   0  0  0  0  0  0  0  0  0  0  0  0
   20.2527   20.9960   21.8675 H   0  0  0  0  0  0  0  0  0  0  0  0
   19.5048   20.2332   23.7513 C   0  0  0  0  0  0  0  0  0  0  0  0
   19.9449   19.7113   24.6106 H   0  0  0  0  0  0  0  0  0  0  0  0
   18.8825   21.0285   24.1827 H   0  0  0  0  0  0  0  0  0  0  0  0
   18.5477   19.2946   22.9634 C   0  0  0  0  0  0  0  0  0  0  0  0
   18.3431   19.6878   21.9584 H   0  0  0  0  0  0  0  0  0  0  0  0
   17.5813   19.3133   23.4857 H   0  0  0  0  0  0  0  0  0  0  0  0
   18.9919   17.8124   22.8937 C   0  0  0  0  0  0  0  0  0  0  0  0
   18.0869   17.1897   22.8779 H   0  0  0  0  0  0  0  0  0  0  0  0
   19.5072   17.5316   23.8210 H   0  0  0  0  0  0  0  0  0  0  0  0
   20.8494   22.2052   23.4107 O   0  0  0  0  0  0  0  0  0  0  0  0
   20.0034   22.6943   23.3357 H   0  0  0  0  0  0  0  0  0  0  0  0
  1  2  1  0  0  0  0
  1  3  1  0  0  0  0
  1  4  1  0  0  0  0
  4  5  1  0  0  0  0
  4  6  1  0  0  0  0
  4  7  1  0  0  0  0
  7  8  1  0  0  0  0
  7  9  1  0  0  0  0
  7 10  1  0  0  0  0
 10 11  1  0  0  0  0
 10 12  1  0  0  0  0
 10 13  1  0  0  0  0
 13 14  1  0  0  0  0
 13 15  1  0  0  0  0
 15 16  1  0  0  0  0
 15 17  1  0  0  0  0
 15 18  1  0  0  0  0
 18 19  1  0  0  0  0
 18 20  1  0  0  0  0
  1 21  1  0  0  0  0
 18 21  1  0  0  0  0
 21 22  1  0  0  0  0
 21 23  1  0  0  0  0
 13 24  1  0  0  0  0
 24 25  1  0  0  0  0
M  END
> <VConfSearch Rank>
496

> <Conf_Id>
162

> <Delta U+W>
0.219

> <U+W>
11.132

> <U>
13.296

> <W>
-2.164

> <W(PB)>
-4.311

> <W(SA)>
2.148

> <Valence>
18.607

> <Coulomb>
-8.339

> <VdW>
3.028

> <VdW6>
-12.271

> <VdW12>
15.299

> <Bond>
0.423

> <Angle>
4.488

> <Pdih>
13.696

> <Idih>
0.000

> <Tether>
0.000

$$$$
VeraChem MOL file


 25 25  0  0  0  0  0  0  0  0999 V2000     
   18.9449   20.6476   22.8414 C   0  0  0  0  0  0  0  0  0  0  0  0
   19.4280   20.9499   23.7792 H   0  0  0  0  0  0  0  0  0  0  0  0
   18.1216   21.3626   22.7078 H   0  0  0  0  0  0  0  0  0  0  0  0
   19.9293   20.8255   21.6586 C   0  0  0  0  0  0  0  0  0  0  0  0
   19.6182   20.2183   20.7979 H   0  0  0  0  0  0  0  0  0  0  0  0
   19.8412   21.8687   21.3252 H   0  0  0  0  0  0  0  0  0  0  0  0
   21.4263   20.5877   22.0018 C   0  0  0  0  0  0  0  0  0  0  0  0
   21.6666   20.9583   23.0073 H   0  0  0  0  0  0  0  0  0  0  0  0
   22.0125   21.2129   21.3143 H   0  0  0  0  0  0  0  0  0  0  0  0
   21.9239   19.1305   21.8174 C   0  0  0  0  0  0  0  0  0  0  0  0
   21.3998   18.6596   20.9766 H   0  0  0  0  0  0  0  0  0  0  0  0
   22.9761   19.1723   21.5067 H   0  0  0  0  0  0  0  0  0  0  0  0
   21.8700   18.2211   23.0710 C   0  0  0  0  0  0  0  0  0  0  0  0
   22.6413   18.5696   23.7729 H   0  0  0  0  0  0  0  0  0  0  0  0
   20.5275   18.1931   23.8398 C   0  0  0  0  0  0  0  0  0  0  0  0
   20.5554   17.3667   24.5618 H   0  0  0  0  0  0  0  0  0  0  0  0
   20.4536   19.0935   24.4590 H   0  0  0  0  0  0  0  0  0  0  0  0
   19.2698   18.0316   22.9456 C   0  0  0  0  0  0  0  0  0  0  0  0
   18.7171   17.1401   23.2712 H   0  0  0  0  0  0  0  0  0  0  0  0
   19.5521   17.8209   21.9073 H   0  0  0  0  0  0  0  0  0  0  0  0
   18.3049   19.2412   22.9846 C   0  0  0  0  0  0  0  0  0  0  0  0
   17.7456   19.2152   23.9297 H   0  0  0  0  0  0  0  0  0  0  0  0
   17.5567   19.1093   22.1911 H   0  0  0  0  0  0  0  0  0  0  0  0
   22.1847   16.8958   22.6603 O   0  0  0  0  0  0  0  0  0  0  0  0
   22.1437   16.3352   23.4623 H   0  0  0  0  0  0  0  0  0  0  0  0
  1  2  1  0  0  0  0
  1  3  1  0  0  0  0
  1  4  1  0  0  0  0
  4  5  1  0  0  0  0
  4  6  1  0  0  0  0
  4  7  1  0  0  0  0
  7  8  1  0  0  0  0
  7  9  1  0  0  0  0
  7 10  1  0  0  0  0
 10 11  1  0  0  0  0
 10 12  1  0  0  0  0
 10 13  1  0  0  0  0
 13 14  1  0  0  0  0
 13 15  1  0  0  0  0
 15 16  1  0  0  0  0
 15 17  1  0  0  0  0
 15 18  1  0  0  0  0
 18 19  1  0  0  0  0
 18 20  1  0  0  0  0
  1 21  1  0  0  0  0
 18 21  1  0  0  0  0
 21 22  1  0  0  0  0
 21 23  1  0  0  0  0
 13 24  1  0  0  0  0
 24 25  1  0  0  0  0
M  END
> <VConfSearch Rank>
497

> <Conf_Id>
155

> <Delta U+W>
0.339

> <U+W>
11.252

> <U>
13.420

> <W>
-2.167

> <W(PB)>
-4.325

> <W(SA)>
2.157

> <Valence>
18.609

> <Coulomb>
-8.052

> <VdW>
2.863

> <VdW6>
-12.524

> <VdW12>
15.387

> <Bond>
0.430

> <Angle>
4.724

> <Pdih>
13.455

> <Idih>
0.000

> <Tether>
0.000

$$$$
VeraChem MOL file


 25 25  0  0  0  0  0  0  0  0999 V2000     
   19.8707   19.3064   20.7284 C   0  0  0  0  0  0  0  0  0  0  0  0
   19.9396   20.3095   20.2863 H   0  0  0  0  0  0  0  0  0  0  0  0
   19.5590   18.6461   19.9077 H   0  0  0  0  0  0  0  0  0  0  0  0
   21.2847   18.8432   21.1675 C   0  0  0  0  0  0  0  0  0  0  0  0
   21.2369   17.8013   21.4997 H   0  0  0  0  0  0  0  0  0  0  0  0
   21.9131   18.7972   20.2677 H   0  0  0  0  0  0  0  0  0  0  0  0
   22.0394   19.7217   22.2077 C   0  0  0  0  0  0  0  0  0  0  0  0
   22.5681   20.5081   21.6521 H   0  0  0  0  0  0  0  0  0  0  0  0
   22.8253   19.1173   22.6808 H   0  0  0  0  0  0  0  0  0  0  0  0
   21.2069   20.4279   23.3122 C   0  0  0  0  0  0  0  0  0  0  0  0
   21.8838   21.1030   23.8519 H   0  0  0  0  0  0  0  0  0  0  0  0
   20.4952   21.1129   22.8431 H   0  0  0  0  0  0  0  0  0  0  0  0
   20.4848   19.5362   24.3647 C   0  0  0  0  0  0  0  0  0  0  0  0
   19.6483   20.1174   24.7786 H   0  0  0  0  0  0  0  0  0  0  0  0
   19.9270   18.1708   23.8904 C   0  0  0  0  0  0  0  0  0  0  0  0
   20.7547   17.5517   23.5322 H   0  0  0  0  0  0  0  0  0  0  0  0
   19.5682   17.6345   24.7787 H   0  0  0  0  0  0  0  0  0  0  0  0
   18.7560   18.1795   22.8622 C   0  0  0  0  0  0  0  0  0  0  0  0
   17.8197   18.2598   23.4311 H   0  0  0  0  0  0  0  0  0  0  0  0
   18.7131   17.2013   22.3648 H   0  0  0  0  0  0  0  0  0  0  0  0
   18.7308   19.2993   21.7889 C   0  0  0  0  0  0  0  0  0  0  0  0
   18.6513   20.2734   22.2817 H   0  0  0  0  0  0  0  0  0  0  0  0
   17.7825   19.2117   21.2413 H   0  0  0  0  0  0  0  0  0  0  0  0
   21.4085   19.2643   25.4131 O   0  0  0  0  0  0  0  0  0  0  0  0
   21.7211   20.1305   25.7466 H   0  0  0  0  0  0  0  0  0  0  0  0
  1  2  1  0  0  0  0
  1  3  1  0  0  0  0
  1  4  1  0  0  0  0
  4  5  1  0  0  0  0
  4  6  1  0  0  0  0
  4  7  1  0  0  0  0
  7  8  1  0  0  0  0
  7  9  1  0  0  0  0
  7 10  1  0  0  0  0
 10 11  1  0  0  0  0
 10 12  1  0  0  0  0
 10 13  1  0  0  0  0
 13 14  1  0  0  0  0
 13 15  1  0  0  0  0
 15 16  1  0  0  0  0
 15 17  1  0  0  0  0
 15 18  1  0  0  0  0
 18 19  1  0  0  0  0
 18 20  1  0  0  0  0
  1 21  1  0  0  0  0
 18 21  1  0  0  0  0
 21 22  1  0  0  0  0
 21 23  1  0  0  0  0
 13 24  1  0  0  0  0
 24 25  1  0  0  0  0
M  END
> <VConfSearch Rank>
498

> <Conf_Id>
146

> <Delta U+W>
2.553

> <U+W>
13.466

> <U>
15.643

> <W>
-2.176

> <W(PB)>
-4.307

> <W(SA)>
2.131

> <Valence>
18.916

> <Coulomb>
-7.506

> <VdW>
4.232

> <VdW6>
-13.632

> <VdW12>
17.864

> <Bond>
0.735

> <Angle>
9.140

> <Pdih>
9.042

> <Idih>
0.000

> <Tether>
0.000

$$$$
VeraChem MOL file


 25 25  0  0  0  0  0  0  0  0999 V2000     
   21.7289   18.0607   21.7214 C   0  0  0  0  0  0  0  0  0  0  0  0
   22.5454   18.4760   21.1154 H   0  0  0  0  0  0  0  0  0  0  0  0
   21.8595   16.9704   21.6869 H   0  0  0  0  0  0  0  0  0  0  0  0
   20.3736   18.3856   21.0448 C   0  0  0  0  0  0  0  0  0  0  0  0
   20.3837   17.9146   20.0524 H   0  0  0  0  0  0  0  0  0  0  0  0
   19.5535   17.8898   21.5767 H   0  0  0  0  0  0  0  0  0  0  0  0
   20.0575   19.8880   20.8372 C   0  0  0  0  0  0  0  0  0  0  0  0
   19.1322   19.9529   20.2484 H   0  0  0  0  0  0  0  0  0  0  0  0
   20.8398   20.3409   20.2133 H   0  0  0  0  0  0  0  0  0  0  0  0
   19.8690   20.7497   22.1129 C   0  0  0  0  0  0  0  0  0  0  0  0
   20.8412   21.0541   22.5133 H   0  0  0  0  0  0  0  0  0  0  0  0
   19.3949   21.6899   21.8002 H   0  0  0  0  0  0  0  0  0  0  0  0
   19.0117   20.0967   23.2277 C   0  0  0  0  0  0  0  0  0  0  0  0
   18.3945   19.2970   22.7967 H   0  0  0  0  0  0  0  0  0  0  0  0
   19.8362   19.5280   24.4102 C   0  0  0  0  0  0  0  0  0  0  0  0
   20.4766   20.3214   24.8178 H   0  0  0  0  0  0  0  0  0  0  0  0
   19.1377   19.2675   25.2162 H   0  0  0  0  0  0  0  0  0  0  0  0
   20.6991   18.2692   24.1231 C   0  0  0  0  0  0  0  0  0  0  0  0
   20.0758   17.4460   23.7508 H   0  0  0  0  0  0  0  0  0  0  0  0
   21.0876   17.9197   25.0895 H   0  0  0  0  0  0  0  0  0  0  0  0
   21.9158   18.5123   23.1930 C   0  0  0  0  0  0  0  0  0  0  0  0
   22.7709   17.9523   23.5958 H   0  0  0  0  0  0  0  0  0  0  0  0
   22.2314   19.5607   23.2382 H   0  0  0  0  0  0  0  0  0  0  0  0
   18.1432   21.0919   23.7574 O   0  0  0  0  0  0  0  0  0  0  0  0
   17.5710   20.6467   24.4167 H   0  0  0  0  0  0  0  0  0  0  0  0
  1  2  1  0  0  0  0
  1  3  1  0  0  0  0
  1  4  1  0  0  0  0
  4  5  1  0  0  0  0
  4  6  1  0  0  0  0
  4  7  1  0  0  0  0
  7  8  1  0  0  0  0
  7  9  1  0  0  0  0
  7 10  1  0  0  0  0
 10 11  1  0  0  0  0
 10 12  1  0  0  0  0
 10 13  1  0  0  0  0
 13 14  1  0  0  0  0
 13 15  1  0  0  0  0
 15 16  1  0  0  0  0
 15 17  1  0  0  0  0
 15 18  1  0  0  0  0
 18 19  1  0  0  0  0
 18 20  1  0  0  0  0
  1 21  1  0  0  0  0
 18 21  1  0  0  0  0
 21 22  1  0  0  0  0
 21 23  1  0  0  0  0
 13 24  1  0  0  0  0
 24 25  1  0  0  0  0
M  END
> <VConfSearch Rank>
499

> <Conf_Id>
62

> <Delta U+W>
-1.779

> <U+W>
9.134

> <U>
11.364

> <W>
-2.230

> <W(PB)>
-4.359

> <W(SA)>
2.129

> <Valence>
16.582

> <Coulomb>
-8.150

> <VdW>
2.933

> <VdW6>
-12.531

> <VdW12>
15.464

> <Bond>
0.439

> <Angle>
5.099

> <Pdih>
11.044

> <Idih>
0.000

> <Tether>
0.000

$$$$
VeraChem MOL file


 25 25  0  0  0  0  0  0  0  0999 V2000     
   19.1119   20.4400   22.0635 C   0  0  0  0  0  0  0  0  0  0  0  0
   19.9099   20.4763   21.3133 H   0  0  0  0  0  0  0  0  0  0  0  0
   18.3781   21.1830   21.7228 H   0  0  0  0  0  0  0  0  0  0  0  0
   19.6421   20.9144   23.4396 C   0  0  0  0  0  0  0  0  0  0  0  0
   19.9995   21.9459   23.3164 H   0  0  0  0  0  0  0  0  0  0  0  0
   18.8064   20.9725   24.1500 H   0  0  0  0  0  0  0  0  0  0  0  0
   20.7883   20.0889   24.0779 C   0  0  0  0  0  0  0  0  0  0  0  0
   20.3864   19.2170   24.6063 H   0  0  0  0  0  0  0  0  0  0  0  0
   21.2318   20.7089   24.8690 H   0  0  0  0  0  0  0  0  0  0  0  0
   21.9197   19.6622   23.1047 C   0  0  0  0  0  0  0  0  0  0  0  0
   21.9698   20.3340   22.2390 H   0  0  0  0  0  0  0  0  0  0  0  0
   22.8717   19.8008   23.6337 H   0  0  0  0  0  0  0  0  0  0  0  0
   21.8598   18.1844   22.6422 C   0  0  0  0  0  0  0  0  0  0  0  0
   21.8029   17.5458   23.5355 H   0  0  0  0  0  0  0  0  0  0  0  0
   20.6882   17.8037   21.7030 C   0  0  0  0  0  0  0  0  0  0  0  0
   20.7054   18.4213   20.7969 H   0  0  0  0  0  0  0  0  0  0  0  0
   20.8761   16.7787   21.3567 H   0  0  0  0  0  0  0  0  0  0  0  0
   19.2845   17.8187   22.3656 C   0  0  0  0  0  0  0  0  0  0  0  0
   19.3698   17.6811   23.4495 H   0  0  0  0  0  0  0  0  0  0  0  0
   18.7325   16.9343   22.0192 H   0  0  0  0  0  0  0  0  0  0  0  0
   18.4120   19.0581   22.0409 C   0  0  0  0  0  0  0  0  0  0  0  0
   17.5507   19.0763   22.7223 H   0  0  0  0  0  0  0  0  0  0  0  0
   17.9922   18.9188   21.0353 H   0  0  0  0  0  0  0  0  0  0  0  0
   23.0705   17.8986   21.9530 O   0  0  0  0  0  0  0  0  0  0  0  0
   23.8022   18.0782   22.5796 H   0  0  0  0  0  0  0  0  0  0  0  0
  1  2  1  0  0  0  0
  1  3  1  0  0  0  0
  1  4  1  0  0  0  0
  4  5  1  0  0  0  0
  4  6  1  0  0  0  0
  4  7  1  0  0  0  0
  7  8  1  0  0  0  0
  7  9  1  0  0  0  0
  7 10  1  0  0  0  0
 10 11  1  0  0  0  0
 10 12  1  0  0  0  0
 10 13  1  0  0  0  0
 13 14  1  0  0  0  0
 13 15  1  0  0  0  0
 15 16  1  0  0  0  0
 15 17  1  0  0  0  0
 15 18  1  0  0  0  0
 18 19  1  0  0  0  0
 18 20  1  0  0  0  0
  1 21  1  0  0  0  0
 18 21  1  0  0  0  0
 21 22  1  0  0  0  0
 21 23  1  0  0  0  0
 13 24  1  0  0  0  0
 24 25  1  0  0  0  0
M  END
> <VConfSearch Rank>
500

> <Conf_Id>
121

> <Delta U+W>
-1.283

> <U+W>
9.630

> <U>
11.876

> <W>
-2.246

> <W(PB)>
-4.376

> <W(SA)>
2.130

> <Valence>
17.153

> <Coulomb>
-7.966

> <VdW>
2.689

> <VdW6>
-12.458

> <VdW12>
15.147

> <Bond>
0.421

> <Angle>
5.258

> <Pdih>
11.475

> <Idih>
0.000

> <Tether>
0.000

$$$$
VeraChem MOL file


 25 25  0  0  0  0  0  0  0  0999 V2000     
   21.3433   20.5656   21.7892 C   0  0  0  0  0  0  0  0  0  0  0  0
   21.6111   19.6336   21.2784 H   0  0  0  0  0  0  0  0  0  0  0  0
   21.9142   21.3429   21.2634 H   0  0  0  0  0  0  0  0  0  0  0  0
   21.8426   20.5404   23.2554 C   0  0  0  0  0  0  0  0  0  0  0  0
   22.9347   20.4242   23.2287 H   0  0  0  0  0  0  0  0  0  0  0  0
   21.6595   21.5196   23.7182 H   0  0  0  0  0  0  0  0  0  0  0  0
   21.2711   19.4333   24.1777 C   0  0  0  0  0  0  0  0  0  0  0  0
   20.3000   19.7354   24.5858 H   0  0  0  0  0  0  0  0  0  0  0  0
   21.9299   19.3702   25.0546 H   0  0  0  0  0  0  0  0  0  0  0  0
   21.1777   18.0213   23.5396 C   0  0  0  0  0  0  0  0  0  0  0  0
   21.8947   17.9098   22.7172 H   0  0  0  0  0  0  0  0  0  0  0  0
   21.4965   17.2962   24.3001 H   0  0  0  0  0  0  0  0  0  0  0  0
   19.7581   17.6014   23.0832 C   0  0  0  0  0  0  0  0  0  0  0  0
   19.0735   17.7313   23.9338 H   0  0  0  0  0  0  0  0  0  0  0  0
   19.1720   18.3628   21.8674 C   0  0  0  0  0  0  0  0  0  0  0  0
   19.8324   18.2636   20.9972 H   0  0  0  0  0  0  0  0  0  0  0  0
   18.2404   17.8564   21.5828 H   0  0  0  0  0  0  0  0  0  0  0  0
   18.8213   19.8509   22.1354 C   0  0  0  0  0  0  0  0  0  0  0  0
   18.6443   20.0180   23.2039 H   0  0  0  0  0  0  0  0  0  0  0  0
   17.8545   20.0667   21.6601 H   0  0  0  0  0  0  0  0  0  0  0  0
   19.8405   20.8810   21.5850 C   0  0  0  0  0  0  0  0  0  0  0  0
   19.6156   21.8678   22.0117 H   0  0  0  0  0  0  0  0  0  0  0  0
   19.6688   20.9786   20.5043 H   0  0  0  0  0  0  0  0  0  0  0  0
   19.8086   16.2212   22.7444 O   0  0  0  0  0  0  0  0  0  0  0  0
   18.8932   15.9502   22.5233 H   0  0  0  0  0  0  0  0  0  0  0  0
  1  2  1  0  0  0  0
  1  3  1  0  0  0  0
  1  4  1  0  0  0  0
  4  5  1  0  0  0  0
  4  6  1  0  0  0  0
  4  7  1  0  0  0  0
  7  8  1  0  0  0  0
  7  9  1  0  0  0  0
  7 10  1  0  0  0  0
 10 11  1  0  0  0  0
 10 12  1  0  0  0  0
 10 13  1  0  0  0  0
 13 14  1  0  0  0  0
 13 15  1  0  0  0  0
 15 16  1  0  0  0  0
 15 17  1  0  0  0  0
 15 18  1  0  0  0  0
 18 19  1  0  0  0  0
 18 20  1  0  0  0  0
  1 21  1  0  0  0  0
 18 21  1  0  0  0  0
 21 22  1  0  0  0  0
 21 23  1  0  0  0  0
 13 24  1  0  0  0  0
 24 25  1  0  0  0  0
M  END
> <VConfSearch Rank>
501

> <Conf_Id>
24

> <Delta U+W>
-1.236

> <U+W>
9.678

> <U>
11.876

> <W>
-2.199

> <W(PB)>
-4.335

> <W(SA)>
2.137

> <Valence>
17.153

> <Coulomb>
-7.966

> <VdW>
2.689

> <VdW6>
-12.458

> <VdW12>
15.147

> <Bond>
0.421

> <Angle>
5.258

> <Pdih>
11.475

> <Idih>
0.000

> <Tether>
0.000

$$$$
VeraChem MOL file


 25 25  0  0  0  0  0  0  0  0999 V2000     
   21.9245   20.1379   23.6191 C   0  0  0  0  0  0  0  0  0  0  0  0
   21.8530   21.1229   24.1003 H   0  0  0  0  0  0  0  0  0  0  0  0
   22.9793   19.8425   23.7025 H   0  0  0  0  0  0  0  0  0  0  0  0
   21.0783   19.1207   24.4300 C   0  0  0  0  0  0  0  0  0  0  0  0
   21.3758   18.0921   24.1897 H   0  0  0  0  0  0  0  0  0  0  0  0
   21.3495   19.2500   25.4867 H   0  0  0  0  0  0  0  0  0  0  0  0
   19.5411   19.2683   24.3118 C   0  0  0  0  0  0  0  0  0  0  0  0
   19.2573   20.3245   24.2099 H   0  0  0  0  0  0  0  0  0  0  0  0
   19.1151   18.9438   25.2712 H   0  0  0  0  0  0  0  0  0  0  0  0
   18.8771   18.3990   23.2067 C   0  0  0  0  0  0  0  0  0  0  0  0
   19.3779   17.4261   23.1216 H   0  0  0  0  0  0  0  0  0  0  0  0
   17.8585   18.1766   23.5530 H   0  0  0  0  0  0  0  0  0  0  0  0
   18.7673   19.0768   21.8190 C   0  0  0  0  0  0  0  0  0  0  0  0
   18.6990   20.1628   21.9657 H   0  0  0  0  0  0  0  0  0  0  0  0
   19.9225   18.7647   20.8342 C   0  0  0  0  0  0  0  0  0  0  0  0
   19.8309   17.7290   20.4817 H   0  0  0  0  0  0  0  0  0  0  0  0
   19.7842   19.3984   19.9482 H   0  0  0  0  0  0  0  0  0  0  0  0
   21.3652   18.9704   21.3605 C   0  0  0  0  0  0  0  0  0  0  0  0
   22.0487   18.9413   20.5010 H   0  0  0  0  0  0  0  0  0  0  0  0
   21.6583   18.1146   21.9797 H   0  0  0  0  0  0  0  0  0  0  0  0
   21.5774   20.3047   22.1194 C   0  0  0  0  0  0  0  0  0  0  0  0
   20.7065   20.9620   22.0140 H   0  0  0  0  0  0  0  0  0  0  0  0
   22.3995   20.8540   21.6405 H   0  0  0  0  0  0  0  0  0  0  0  0
   17.5607   18.6435   21.2040 O   0  0  0  0  0  0  0  0  0  0  0  0
   17.6351   17.6724   21.1019 H   0  0  0  0  0  0  0  0  0  0  0  0
  1  2  1  0  0  0  0
  1  3  1  0  0  0  0
  1  4  1  0  0  0  0
  4  5  1  0  0  0  0
  4  6  1  0  0  0  0
  4  7  1  0  0  0  0
  7  8  1  0  0  0  0
  7  9  1  0  0  0  0
  7 10  1  0  0  0  0
 10 11  1  0  0  0  0
 10 12  1  0  0  0  0
 10 13  1  0  0  0  0
 13 14  1  0  0  0  0
 13 15  1  0  0  0  0
 15 16  1  0  0  0  0
 15 17  1  0  0  0  0
 15 18  1  0  0  0  0
 18 19  1  0  0  0  0
 18 20  1  0  0  0  0
  1 21  1  0  0  0  0
 18 21  1  0  0  0  0
 21 22  1  0  0  0  0
 21 23  1  0  0  0  0
 13 24  1  0  0  0  0
 24 25  1  0  0  0  0
M  END
> <VConfSearch Rank>
502

> <Conf_Id>
167

> <Delta U+W>
0.388

> <U+W>
11.301

> <U>
13.202

> <W>
-1.901

> <W(PB)>
-4.065

> <W(SA)>
2.163

> <Valence>
18.957

> <Coulomb>
-8.753

> <VdW>
2.998

> <VdW6>
-12.294

> <VdW12>
15.292

> <Bond>
0.419

> <Angle>
4.543

> <Pdih>
13.996

> <Idih>
0.000

> <Tether>
0.000

$$$$
VeraChem MOL file


 25 25  0  0  0  0  0  0  0  0999 V2000     
   19.4468   20.5153   21.2834 C   0  0  0  0  0  0  0  0  0  0  0  0
   19.2334   20.1911   20.2559 H   0  0  0  0  0  0  0  0  0  0  0  0
   19.0863   21.5511   21.3477 H   0  0  0  0  0  0  0  0  0  0  0  0
   20.9831   20.5367   21.4943 C   0  0  0  0  0  0  0  0  0  0  0  0
   21.4503   19.6654   21.0217 H   0  0  0  0  0  0  0  0  0  0  0  0
   21.3735   21.3947   20.9300 H   0  0  0  0  0  0  0  0  0  0  0  0
   21.4524   20.6746   22.9659 C   0  0  0  0  0  0  0  0  0  0  0  0
   20.6890   21.1712   23.5787 H   0  0  0  0  0  0  0  0  0  0  0  0
   22.3147   21.3553   22.9751 H   0  0  0  0  0  0  0  0  0  0  0  0
   21.9151   19.3489   23.6298 C   0  0  0  0  0  0  0  0  0  0  0  0
   22.7061   18.8924   23.0207 H   0  0  0  0  0  0  0  0  0  0  0  0
   22.3893   19.6065   24.5861 H   0  0  0  0  0  0  0  0  0  0  0  0
   20.8203   18.2919   23.9188 C   0  0  0  0  0  0  0  0  0  0  0  0
   20.0143   18.7592   24.5002 H   0  0  0  0  0  0  0  0  0  0  0  0
   20.2325   17.6255   22.6479 C   0  0  0  0  0  0  0  0  0  0  0  0
   20.9353   17.7198   21.8140 H   0  0  0  0  0  0  0  0  0  0  0  0
   20.1455   16.5427   22.8089 H   0  0  0  0  0  0  0  0  0  0  0  0
   18.8308   18.1389   22.2275 C   0  0  0  0  0  0  0  0  0  0  0  0
   18.0883   17.6747   22.8909 H   0  0  0  0  0  0  0  0  0  0  0  0
   18.6028   17.7673   21.2193 H   0  0  0  0  0  0  0  0  0  0  0  0
   18.6034   19.6709   22.2715 C   0  0  0  0  0  0  0  0  0  0  0  0
   18.7224   20.0491   23.2932 H   0  0  0  0  0  0  0  0  0  0  0  0
   17.5462   19.8500   22.0326 H   0  0  0  0  0  0  0  0  0  0  0  0
   21.4132   17.2766   24.7200 O   0  0  0  0  0  0  0  0  0  0  0  0
   20.6970   16.6500   24.9544 H   0  0  0  0  0  0  0  0  0  0  0  0
  1  2  1  0  0  0  0
  1  3  1  0  0  0  0
  1  4  1  0  0  0  0
  4  5  1  0  0  0  0
  4  6  1  0  0  0  0
  4  7  1  0  0  0  0
  7  8  1  0  0  0  0
  7  9  1  0  0  0  0
  7 10  1  0  0  0  0
 10 11  1  0  0  0  0
 10 12  1  0  0  0  0
 10 13  1  0  0  0  0
 13 14  1  0  0  0  0
 13 15  1  0  0  0  0
 15 16  1  0  0  0  0
 15 17  1  0  0  0  0
 15 18  1  0  0  0  0
 18 19  1  0  0  0  0
 18 20  1  0  0  0  0
  1 21  1  0  0  0  0
 18 21  1  0  0  0  0
 21 22  1  0  0  0  0
 21 23  1  0  0  0  0
 13 24  1  0  0  0  0
 24 25  1  0  0  0  0
M  END
> <VConfSearch Rank>
503

> <Conf_Id>
60

> <Delta U+W>
-1.838

> <U+W>
9.075

> <U>
11.150

> <W>
-2.074

> <W(PB)>
-4.196

> <W(SA)>
2.121

> <Valence>
16.582

> <Coulomb>
-8.361

> <VdW>
2.928

> <VdW6>
-12.539

> <VdW12>
15.467

> <Bond>
0.441

> <Angle>
5.093

> <Pdih>
11.049

> <Idih>
0.000

> <Tether>
0.000

$$$$
VeraChem MOL file


 25 25  0  0  0  0  0  0  0  0999 V2000     
   19.8008   18.0649   24.3054 C   0  0  0  0  0  0  0  0  0  0  0  0
   19.4123   17.0428   24.2010 H   0  0  0  0  0  0  0  0  0  0  0  0
   19.7929   18.2757   25.3835 H   0  0  0  0  0  0  0  0  0  0  0  0
   18.8177   19.0565   23.6339 C   0  0  0  0  0  0  0  0  0  0  0  0
   17.8555   18.9648   24.1560 H   0  0  0  0  0  0  0  0  0  0  0  0
   19.1336   20.0896   23.8186 H   0  0  0  0  0  0  0  0  0  0  0  0
   18.5447   18.8316   22.1253 C   0  0  0  0  0  0  0  0  0  0  0  0
   17.7505   19.5288   21.8250 H   0  0  0  0  0  0  0  0  0  0  0  0
   18.1290   17.8256   21.9781 H   0  0  0  0  0  0  0  0  0  0  0  0
   19.7416   19.0278   21.1590 C   0  0  0  0  0  0  0  0  0  0  0  0
   20.3672   18.1297   21.1451 H   0  0  0  0  0  0  0  0  0  0  0  0
   19.3302   19.0882   20.1426 H   0  0  0  0  0  0  0  0  0  0  0  0
   20.6121   20.2800   21.4399 C   0  0  0  0  0  0  0  0  0  0  0  0
   20.0458   20.9976   22.0486 H   0  0  0  0  0  0  0  0  0  0  0  0
   21.9573   19.9703   22.1426 C   0  0  0  0  0  0  0  0  0  0  0  0
   22.5107   19.2282   21.5524 H   0  0  0  0  0  0  0  0  0  0  0  0
   22.5655   20.8842   22.1143 H   0  0  0  0  0  0  0  0  0  0  0  0
   21.8848   19.5033   23.6221 C   0  0  0  0  0  0  0  0  0  0  0  0
   21.3705   20.2497   24.2412 H   0  0  0  0  0  0  0  0  0  0  0  0
   22.9157   19.4779   24.0008 H   0  0  0  0  0  0  0  0  0  0  0  0
   21.2769   18.0919   23.8304 C   0  0  0  0  0  0  0  0  0  0  0  0
   21.8709   17.5744   24.5961 H   0  0  0  0  0  0  0  0  0  0  0  0
   21.4042   17.4816   22.9292 H   0  0  0  0  0  0  0  0  0  0  0  0
   20.9171   20.8983   20.1954 O   0  0  0  0  0  0  0  0  0  0  0  0
   20.0613   21.1523   19.7910 H   0  0  0  0  0  0  0  0  0  0  0  0
  1  2  1  0  0  0  0
  1  3  1  0  0  0  0
  1  4  1  0  0  0  0
  4  5  1  0  0  0  0
  4  6  1  0  0  0  0
  4  7  1  0  0  0  0
  7  8  1  0  0  0  0
  7  9  1  0  0  0  0
  7 10  1  0  0  0  0
 10 11  1  0  0  0  0
 10 12  1  0  0  0  0
 10 13  1  0  0  0  0
 13 14  1  0  0  0  0
 13 15  1  0  0  0  0
 15 16  1  0  0  0  0
 15 17  1  0  0  0  0
 15 18  1  0  0  0  0
 18 19  1  0  0  0  0
 18 20  1  0  0  0  0
  1 21  1  0  0  0  0
 18 21  1  0  0  0  0
 21 22  1  0  0  0  0
 21 23  1  0  0  0  0
 13 24  1  0  0  0  0
 24 25  1  0  0  0  0
M  END
> <VConfSearch Rank>
504

> <Conf_Id>
129

> <Delta U+W>
-1.846

> <U+W>
9.067

> <U>
11.150

> <W>
-2.083

> <W(PB)>
-4.217

> <W(SA)>
2.134

> <Valence>
16.583

> <Coulomb>
-8.361

> <VdW>
2.928

> <VdW6>
-12.539

> <VdW12>
15.467

> <Bond>
0.441

> <Angle>
5.093

> <Pdih>
11.049

> <Idih>
0.000

> <Tether>
0.000

$$$$
VeraChem MOL file


 25 25  0  0  0  0  0  0  0  0999 V2000     
   21.7438   17.7939   22.8566 C   0  0  0  0  0  0  0  0  0  0  0  0
   22.0100   17.3980   23.8460 H   0  0  0  0  0  0  0  0  0  0  0  0
   22.3967   17.2723   22.1435 H   0  0  0  0  0  0  0  0  0  0  0  0
   22.1022   19.2999   22.7949 C   0  0  0  0  0  0  0  0  0  0  0  0
   23.1860   19.3835   22.9539 H   0  0  0  0  0  0  0  0  0  0  0  0
   21.9415   19.6890   21.7830 H   0  0  0  0  0  0  0  0  0  0  0  0
   21.4129   20.2092   23.8430 C   0  0  0  0  0  0  0  0  0  0  0  0
   21.8510   21.2123   23.7491 H   0  0  0  0  0  0  0  0  0  0  0  0
   21.6749   19.8632   24.8520 H   0  0  0  0  0  0  0  0  0  0  0  0
   19.8719   20.3535   23.7441 C   0  0  0  0  0  0  0  0  0  0  0  0
   19.3812   19.4996   24.2224 H   0  0  0  0  0  0  0  0  0  0  0  0
   19.5915   21.2166   24.3630 H   0  0  0  0  0  0  0  0  0  0  0  0
   19.3223   20.5541   22.3081 C   0  0  0  0  0  0  0  0  0  0  0  0
   20.1257   20.9128   21.6511 H   0  0  0  0  0  0  0  0  0  0  0  0
   18.6832   19.2860   21.6879 C   0  0  0  0  0  0  0  0  0  0  0  0
   17.8998   18.9069   22.3570 H   0  0  0  0  0  0  0  0  0  0  0  0
   18.1675   19.5890   20.7668 H   0  0  0  0  0  0  0  0  0  0  0  0
   19.6455   18.1242   21.3202 C   0  0  0  0  0  0  0  0  0  0  0  0
   20.4161   18.4645   20.6165 H   0  0  0  0  0  0  0  0  0  0  0  0
   19.0558   17.3836   20.7629 H   0  0  0  0  0  0  0  0  0  0  0  0
   20.2800   17.3969   22.5339 C   0  0  0  0  0  0  0  0  0  0  0  0
   20.2772   16.3183   22.3252 H   0  0  0  0  0  0  0  0  0  0  0  0
   19.6461   17.5040   23.4214 H   0  0  0  0  0  0  0  0  0  0  0  0
   18.3137   21.5555   22.3544 O   0  0  0  0  0  0  0  0  0  0  0  0
   17.6090   21.2115   22.9409 H   0  0  0  0  0  0  0  0  0  0  0  0
  1  2  1  0  0  0  0
  1  3  1  0  0  0  0
  1  4  1  0  0  0  0
  4  5  1  0  0  0  0
  4  6  1  0  0  0  0
  4  7  1  0  0  0  0
  7  8  1  0  0  0  0
  7  9  1  0  0  0  0
  7 10  1  0  0  0  0
 10 11  1  0  0  0  0
 10 12  1  0  0  0  0
 10 13  1  0  0  0  0
 13 14  1  0  0  0  0
 13 15  1  0  0  0  0
 15 16  1  0  0  0  0
 15 17  1  0  0  0  0
 15 18  1  0  0  0  0
 18 19  1  0  0  0  0
 18 20  1  0  0  0  0
  1 21  1  0  0  0  0
 18 21  1  0  0  0  0
 21 22  1  0  0  0  0
 21 23  1  0  0  0  0
 13 24  1  0  0  0  0
 24 25  1  0  0  0  0
M  END
> <VConfSearch Rank>
505

> <Conf_Id>
140

> <Delta U+W>
-1.702

> <U+W>
9.211

> <U>
11.181

> <W>
-1.969

> <W(PB)>
-4.093

> <W(SA)>
2.124

> <Valence>
16.954

> <Coulomb>
-8.661

> <VdW>
2.887

> <VdW6>
-12.561

> <VdW12>
15.448

> <Bond>
0.433

> <Angle>
5.120

> <Pdih>
11.401

> <Idih>
0.000

> <Tether>
0.000

$$$$
VeraChem MOL file


 25 25  0  0  0  0  0  0  0  0999 V2000     
   19.7992   17.1889   22.9031 C   0  0  0  0  0  0  0  0  0  0  0  0
   20.5304   16.3990   22.6838 H   0  0  0  0  0  0  0  0  0  0  0  0
   18.8902   16.6675   23.2328 H   0  0  0  0  0  0  0  0  0  0  0  0
   19.4621   17.9403   21.5893 C   0  0  0  0  0  0  0  0  0  0  0  0
   20.3671   18.0995   20.9923 H   0  0  0  0  0  0  0  0  0  0  0  0
   18.8484   17.2634   20.9793 H   0  0  0  0  0  0  0  0  0  0  0  0
   18.6839   19.2701   21.7644 C   0  0  0  0  0  0  0  0  0  0  0  0
   18.1119   19.2729   22.7012 H   0  0  0  0  0  0  0  0  0  0  0  0
   17.9289   19.3181   20.9678 H   0  0  0  0  0  0  0  0  0  0  0  0
   19.5513   20.5524   21.6445 C   0  0  0  0  0  0  0  0  0  0  0  0
   20.0773   20.5428   20.6809 H   0  0  0  0  0  0  0  0  0  0  0  0
   18.8658   21.4094   21.6012 H   0  0  0  0  0  0  0  0  0  0  0  0
   20.5667   20.8193   22.7840 C   0  0  0  0  0  0  0  0  0  0  0  0
   20.0422   20.7979   23.7485 H   0  0  0  0  0  0  0  0  0  0  0  0
   21.7617   19.8316   22.8170 C   0  0  0  0  0  0  0  0  0  0  0  0
   21.9040   19.3751   21.8321 H   0  0  0  0  0  0  0  0  0  0  0  0
   22.6891   20.3914   22.9995 H   0  0  0  0  0  0  0  0  0  0  0  0
   21.6756   18.7331   23.9084 C   0  0  0  0  0  0  0  0  0  0  0  0
   21.9483   19.1916   24.8688 H   0  0  0  0  0  0  0  0  0  0  0  0
   22.4446   17.9739   23.7119 H   0  0  0  0  0  0  0  0  0  0  0  0
   20.3047   18.0364   24.0974 C   0  0  0  0  0  0  0  0  0  0  0  0
   19.5421   18.7635   24.3990 H   0  0  0  0  0  0  0  0  0  0  0  0
   20.3986   17.3615   24.9591 H   0  0  0  0  0  0  0  0  0  0  0  0
   21.0801   22.1316   22.5931 O   0  0  0  0  0  0  0  0  0  0  0  0
   21.5382   22.1262   21.7276 H   0  0  0  0  0  0  0  0  0  0  0  0
  1  2  1  0  0  0  0
  1  3  1  0  0  0  0
  1  4  1  0  0  0  0
  4  5  1  0  0  0  0
  4  6  1  0  0  0  0
  4  7  1  0  0  0  0
  7  8  1  0  0  0  0
  7  9  1  0  0  0  0
  7 10  1  0  0  0  0
 10 11  1  0  0  0  0
 10 12  1  0  0  0  0
 10 13  1  0  0  0  0
 13 14  1  0  0  0  0
 13 15  1  0  0  0  0
 15 16  1  0  0  0  0
 15 17  1  0  0  0  0
 15 18  1  0  0  0  0
 18 19  1  0  0  0  0
 18 20  1  0  0  0  0
  1 21  1  0  0  0  0
 18 21  1  0  0  0  0
 21 22  1  0  0  0  0
 21 23  1  0  0  0  0
 13 24  1  0  0  0  0
 24 25  1  0  0  0  0
M  END
> <VConfSearch Rank>
506

> <Conf_Id>
68

> <Delta U+W>
-1.765

> <U+W>
9.148

> <U>
11.181

> <W>
-2.032

> <W(PB)>
-4.147

> <W(SA)>
2.114

> <Valence>
16.955

> <Coulomb>
-8.661

> <VdW>
2.887

> <VdW6>
-12.561

> <VdW12>
15.448

> <Bond>
0.433

> <Angle>
5.121

> <Pdih>
11.402

> <Idih>
0.000

> <Tether>
0.000

$$$$
VeraChem MOL file


 25 25  0  0  0  0  0  0  0  0999 V2000     
   20.8323   18.4704   24.2769 C   0  0  0  0  0  0  0  0  0  0  0  0
   21.2219   17.9538   25.1649 H   0  0  0  0  0  0  0  0  0  0  0  0
   20.1481   19.2252   24.6807 H   0  0  0  0  0  0  0  0  0  0  0  0
   20.0583   17.4355   23.4194 C   0  0  0  0  0  0  0  0  0  0  0  0
   20.6996   17.0122   22.6357 H   0  0  0  0  0  0  0  0  0  0  0  0
   19.8074   16.5880   24.0718 H   0  0  0  0  0  0  0  0  0  0  0  0
   18.7251   17.9543   22.8192 C   0  0  0  0  0  0  0  0  0  0  0  0
   18.0825   18.3282   23.6281 H   0  0  0  0  0  0  0  0  0  0  0  0
   18.1925   17.0922   22.3950 H   0  0  0  0  0  0  0  0  0  0  0  0
   18.8340   19.0343   21.7100 C   0  0  0  0  0  0  0  0  0  0  0  0
   19.4482   18.6672   20.8791 H   0  0  0  0  0  0  0  0  0  0  0  0
   17.8265   19.1592   21.2906 H   0  0  0  0  0  0  0  0  0  0  0  0
   19.3384   20.4149   22.2044 C   0  0  0  0  0  0  0  0  0  0  0  0
   19.1959   20.4799   23.2893 H   0  0  0  0  0  0  0  0  0  0  0  0
   20.8179   20.7239   21.8671 C   0  0  0  0  0  0  0  0  0  0  0  0
   20.8820   21.0077   20.8084 H   0  0  0  0  0  0  0  0  0  0  0  0
   21.1245   21.6118   22.4352 H   0  0  0  0  0  0  0  0  0  0  0  0
   21.8499   19.5917   22.1059 C   0  0  0  0  0  0  0  0  0  0  0  0
   22.8222   19.9543   21.7455 H   0  0  0  0  0  0  0  0  0  0  0  0
   21.6247   18.7273   21.4707 H   0  0  0  0  0  0  0  0  0  0  0  0
   22.0411   19.1436   23.5765 C   0  0  0  0  0  0  0  0  0  0  0  0
   22.3690   20.0021   24.1783 H   0  0  0  0  0  0  0  0  0  0  0  0
   22.8777   18.4318   23.5959 H   0  0  0  0  0  0  0  0  0  0  0  0
   18.5424   21.4293   21.6043 O   0  0  0  0  0  0  0  0  0  0  0  0
   18.6684   21.3443   20.6369 H   0  0  0  0  0  0  0  0  0  0  0  0
  1  2  1  0  0  0  0
  1  3  1  0  0  0  0
  1  4  1  0  0  0  0
  4  5  1  0  0  0  0
  4  6  1  0  0  0  0
  4  7  1  0  0  0  0
  7  8  1  0  0  0  0
  7  9  1  0  0  0  0
  7 10  1  0  0  0  0
 10 11  1  0  0  0  0
 10 12  1  0  0  0  0
 10 13  1  0  0  0  0
 13 14  1  0  0  0  0
 13 15  1  0  0  0  0
 15 16  1  0  0  0  0
 15 17  1  0  0  0  0
 15 18  1  0  0  0  0
 18 19  1  0  0  0  0
 18 20  1  0  0  0  0
  1 21  1  0  0  0  0
 18 21  1  0  0  0  0
 21 22  1  0  0  0  0
 21 23  1  0  0  0  0
 13 24  1  0  0  0  0
 24 25  1  0  0  0  0
M  END
> <VConfSearch Rank>
507

> <Conf_Id>
165

> <Delta U+W>
-1.999

> <U+W>
8.915

> <U>
10.935

> <W>
-2.020

> <W(PB)>
-4.135

> <W(SA)>
2.115

> <Valence>
16.757

> <Coulomb>
-8.731

> <VdW>
2.908

> <VdW6>
-12.597

> <VdW12>
15.506

> <Bond>
0.434

> <Angle>
5.069

> <Pdih>
11.254

> <Idih>
0.000

> <Tether>
0.000

$$$$
VeraChem MOL file


 25 25  0  0  0  0  0  0  0  0999 V2000     
   20.0396   20.0331   21.0584 C   0  0  0  0  0  0  0  0  0  0  0  0
   19.7913   20.5240   20.1073 H   0  0  0  0  0  0  0  0  0  0  0  0
   21.0842   20.3090   21.2411 H   0  0  0  0  0  0  0  0  0  0  0  0
   19.9070   18.5050   20.8284 C   0  0  0  0  0  0  0  0  0  0  0  0
   19.0032   18.3349   20.2273 H   0  0  0  0  0  0  0  0  0  0  0  0
   20.7450   18.1640   20.2055 H   0  0  0  0  0  0  0  0  0  0  0  0
   19.8018   17.6044   22.0847 C   0  0  0  0  0  0  0  0  0  0  0  0
   19.6173   16.5786   21.7376 H   0  0  0  0  0  0  0  0  0  0  0  0
   18.9096   17.8640   22.6659 H   0  0  0  0  0  0  0  0  0  0  0  0
   21.0522   17.5637   23.0006 C   0  0  0  0  0  0  0  0  0  0  0  0
   20.8669   16.8087   23.7765 H   0  0  0  0  0  0  0  0  0  0  0  0
   21.9066   17.1957   22.4180 H   0  0  0  0  0  0  0  0  0  0  0  0
   21.4604   18.8843   23.6986 C   0  0  0  0  0  0  0  0  0  0  0  0
   21.9748   19.5305   22.9777 H   0  0  0  0  0  0  0  0  0  0  0  0
   20.2836   19.6719   24.3303 C   0  0  0  0  0  0  0  0  0  0  0  0
   19.4355   19.0082   24.5359 H   0  0  0  0  0  0  0  0  0  0  0  0
   20.6023   20.0413   25.3145 H   0  0  0  0  0  0  0  0  0  0  0  0
   19.8215   20.9073   23.5123 C   0  0  0  0  0  0  0  0  0  0  0  0
   20.6792   21.5732   23.3451 H   0  0  0  0  0  0  0  0  0  0  0  0
   19.1223   21.4793   24.1375 H   0  0  0  0  0  0  0  0  0  0  0  0
   19.1191   20.6230   22.1585 C   0  0  0  0  0  0  0  0  0  0  0  0
   18.7364   21.5840   21.7883 H   0  0  0  0  0  0  0  0  0  0  0  0
   18.2284   19.9989   22.3056 H   0  0  0  0  0  0  0  0  0  0  0  0
   22.3868   18.5537   24.7272 O   0  0  0  0  0  0  0  0  0  0  0  0
   23.1386   18.0979   24.2942 H   0  0  0  0  0  0  0  0  0  0  0  0
  1  2  1  0  0  0  0
  1  3  1  0  0  0  0
  1  4  1  0  0  0  0
  4  5  1  0  0  0  0
  4  6  1  0  0  0  0
  4  7  1  0  0  0  0
  7  8  1  0  0  0  0
  7  9  1  0  0  0  0
  7 10  1  0  0  0  0
 10 11  1  0  0  0  0
 10 12  1  0  0  0  0
 10 13  1  0  0  0  0
 13 14  1  0  0  0  0
 13 15  1  0  0  0  0
 15 16  1  0  0  0  0
 15 17  1  0  0  0  0
 15 18  1  0  0  0  0
 18 19  1  0  0  0  0
 18 20  1  0  0  0  0
  1 21  1  0  0  0  0
 18 21  1  0  0  0  0
 21 22  1  0  0  0  0
 21 23  1  0  0  0  0
 13 24  1  0  0  0  0
 24 25  1  0  0  0  0
M  END
> <VConfSearch Rank>
508

> <Conf_Id>
133

> <Delta U+W>
-2.139

> <U+W>
8.774

> <U>
10.905

> <W>
-2.131

> <W(PB)>
-4.281

> <W(SA)>
2.150

> <Valence>
16.378

> <Coulomb>
-8.448

> <VdW>
2.976

> <VdW6>
-12.570

> <VdW12>
15.545

> <Bond>
0.439

> <Angle>
5.049

> <Pdih>
10.889

> <Idih>
0.000

> <Tether>
0.000

$$$$
VeraChem MOL file


 25 25  0  0  0  0  0  0  0  0999 V2000     
   21.1979   18.7835   24.1877 C   0  0  0  0  0  0  0  0  0  0  0  0
   21.6708   18.4628   25.1261 H   0  0  0  0  0  0  0  0  0  0  0  0
   21.8725   19.5515   23.7929 H   0  0  0  0  0  0  0  0  0  0  0  0
   19.8153   19.3966   24.5313 C   0  0  0  0  0  0  0  0  0  0  0  0
   19.0170   18.6491   24.4383 H   0  0  0  0  0  0  0  0  0  0  0  0
   19.8299   19.6678   25.5959 H   0  0  0  0  0  0  0  0  0  0  0  0
   19.4587   20.6836   23.7417 C   0  0  0  0  0  0  0  0  0  0  0  0
   20.2481   21.4330   23.8909 H   0  0  0  0  0  0  0  0  0  0  0  0
   18.5551   21.1137   24.1948 H   0  0  0  0  0  0  0  0  0  0  0  0
   19.1910   20.5168   22.2220 C   0  0  0  0  0  0  0  0  0  0  0  0
   18.3835   19.7951   22.0513 H   0  0  0  0  0  0  0  0  0  0  0  0
   18.7978   21.4763   21.8597 H   0  0  0  0  0  0  0  0  0  0  0  0
   20.4432   20.1528   21.3833 C   0  0  0  0  0  0  0  0  0  0  0  0
   21.3421   20.4164   21.9529 H   0  0  0  0  0  0  0  0  0  0  0  0
   20.5255   18.6661   20.9582 C   0  0  0  0  0  0  0  0  0  0  0  0
   19.8295   18.5092   20.1230 H   0  0  0  0  0  0  0  0  0  0  0  0
   21.5283   18.4702   20.5575 H   0  0  0  0  0  0  0  0  0  0  0  0
   20.2012   17.6021   22.0385 C   0  0  0  0  0  0  0  0  0  0  0  0
   20.2347   16.6190   21.5495 H   0  0  0  0  0  0  0  0  0  0  0  0
   19.1647   17.7059   22.3793 H   0  0  0  0  0  0  0  0  0  0  0  0
   21.1639   17.5477   23.2512 C   0  0  0  0  0  0  0  0  0  0  0  0
   22.1829   17.3400   22.8976 H   0  0  0  0  0  0  0  0  0  0  0  0
   20.8778   16.6772   23.8572 H   0  0  0  0  0  0  0  0  0  0  0  0
   20.4344   20.9357   20.1948 O   0  0  0  0  0  0  0  0  0  0  0  0
   21.2567   20.7188   19.7078 H   0  0  0  0  0  0  0  0  0  0  0  0
  1  2  1  0  0  0  0
  1  3  1  0  0  0  0
  1  4  1  0  0  0  0
  4  5  1  0  0  0  0
  4  6  1  0  0  0  0
  4  7  1  0  0  0  0
  7  8  1  0  0  0  0
  7  9  1  0  0  0  0
  7 10  1  0  0  0  0
 10 11  1  0  0  0  0
 10 12  1  0  0  0  0
 10 13  1  0  0  0  0
 13 14  1  0  0  0  0
 13 15  1  0  0  0  0
 15 16  1  0  0  0  0
 15 17  1  0  0  0  0
 15 18  1  0  0  0  0
 18 19  1  0  0  0  0
 18 20  1  0  0  0  0
  1 21  1  0  0  0  0
 18 21  1  0  0  0  0
 21 22  1  0  0  0  0
 21 23  1  0  0  0  0
 13 24  1  0  0  0  0
 24 25  1  0  0  0  0
M  END
> <VConfSearch Rank>
509

> <Conf_Id>
95

> <Delta U+W>
-2.190

> <U+W>
8.723

> <U>
10.905

> <W>
-2.182

> <W(PB)>
-4.296

> <W(SA)>
2.114

> <Valence>
16.377

> <Coulomb>
-8.448

> <VdW>
2.976

> <VdW6>
-12.570

> <VdW12>
15.546

> <Bond>
0.439

> <Angle>
5.049

> <Pdih>
10.889

> <Idih>
0.000

> <Tether>
0.000

$$$$
VeraChem MOL file


 25 25  0  0  0  0  0  0  0  0999 V2000     
   19.0044   18.1485   21.8711 C   0  0  0  0  0  0  0  0  0  0  0  0
   18.3044   17.5207   21.3029 H   0  0  0  0  0  0  0  0  0  0  0  0
   18.3629   18.6394   22.6099 H   0  0  0  0  0  0  0  0  0  0  0  0
   19.5994   19.1850   20.8732 C   0  0  0  0  0  0  0  0  0  0  0  0
   19.6967   18.6845   19.9001 H   0  0  0  0  0  0  0  0  0  0  0  0
   18.8677   19.9889   20.7160 H   0  0  0  0  0  0  0  0  0  0  0  0
   20.9822   19.8074   21.2002 C   0  0  0  0  0  0  0  0  0  0  0  0
   21.2867   20.4135   20.3360 H   0  0  0  0  0  0  0  0  0  0  0  0
   21.7362   19.0148   21.2351 H   0  0  0  0  0  0  0  0  0  0  0  0
   21.0787   20.7209   22.4583 C   0  0  0  0  0  0  0  0  0  0  0  0
   22.1292   20.7835   22.7715 H   0  0  0  0  0  0  0  0  0  0  0  0
   20.8026   21.7349   22.1408 H   0  0  0  0  0  0  0  0  0  0  0  0
   20.2036   20.3705   23.6883 C   0  0  0  0  0  0  0  0  0  0  0  0
   19.1569   20.3576   23.3673 H   0  0  0  0  0  0  0  0  0  0  0  0
   20.5350   19.0464   24.4350 C   0  0  0  0  0  0  0  0  0  0  0  0
   21.3264   19.2598   25.1661 H   0  0  0  0  0  0  0  0  0  0  0  0
   19.6576   18.7556   25.0265 H   0  0  0  0  0  0  0  0  0  0  0  0
   21.0088   17.8247   23.6019 C   0  0  0  0  0  0  0  0  0  0  0  0
   21.2933   17.0323   24.3076 H   0  0  0  0  0  0  0  0  0  0  0  0
   21.9504   18.0715   23.1015 H   0  0  0  0  0  0  0  0  0  0  0  0
   19.9950   17.2013   22.5984 C   0  0  0  0  0  0  0  0  0  0  0  0
   19.3905   16.4707   23.1531 H   0  0  0  0  0  0  0  0  0  0  0  0
   20.5487   16.6157   21.8520 H   0  0  0  0  0  0  0  0  0  0  0  0
   20.3444   21.4312   24.6262 O   0  0  0  0  0  0  0  0  0  0  0  0
   20.0713   22.2528   24.1673 H   0  0  0  0  0  0  0  0  0  0  0  0
  1  2  1  0  0  0  0
  1  3  1  0  0  0  0
  1  4  1  0  0  0  0
  4  5  1  0  0  0  0
  4  6  1  0  0  0  0
  4  7  1  0  0  0  0
  7  8  1  0  0  0  0
  7  9  1  0  0  0  0
  7 10  1  0  0  0  0
 10 11  1  0  0  0  0
 10 12  1  0  0  0  0
 10 13  1  0  0  0  0
 13 14  1  0  0  0  0
 13 15  1  0  0  0  0
 15 16  1  0  0  0  0
 15 17  1  0  0  0  0
 15 18  1  0  0  0  0
 18 19  1  0  0  0  0
 18 20  1  0  0  0  0
  1 21  1  0  0  0  0
 18 21  1  0  0  0  0
 21 22  1  0  0  0  0
 21 23  1  0  0  0  0
 13 24  1  0  0  0  0
 24 25  1  0  0  0  0
M  END
> <VConfSearch Rank>
510

> <Conf_Id>
161

> <Delta U+W>
2.120

> <U+W>
13.033

> <U>
15.076

> <W>
-2.043

> <W(PB)>
-4.186

> <W(SA)>
2.143

> <Valence>
18.884

> <Coulomb>
-8.074

> <VdW>
4.266

> <VdW6>
-13.486

> <VdW12>
17.752

> <Bond>
0.713

> <Angle>
8.955

> <Pdih>
9.215

> <Idih>
0.000

> <Tether>
0.000

$$$$
VeraChem MOL file


 25 25  0  0  0  0  0  0  0  0999 V2000     
   20.2003   17.2287   22.6712 C   0  0  0  0  0  0  0  0  0  0  0  0
   20.2453   16.1539   22.4481 H   0  0  0  0  0  0  0  0  0  0  0  0
   19.5659   17.3025   23.5636 H   0  0  0  0  0  0  0  0  0  0  0  0
   19.5155   17.9371   21.4758 C   0  0  0  0  0  0  0  0  0  0  0  0
   20.2498   18.1908   20.6996 H   0  0  0  0  0  0  0  0  0  0  0  0
   18.8449   17.2010   21.0114 H   0  0  0  0  0  0  0  0  0  0  0  0
   18.6429   19.1681   21.8482 C   0  0  0  0  0  0  0  0  0  0  0  0
   18.1123   19.0058   22.7960 H   0  0  0  0  0  0  0  0  0  0  0  0
   17.8565   19.2420   21.0844 H   0  0  0  0  0  0  0  0  0  0  0  0
   19.3869   20.5286   21.8591 C   0  0  0  0  0  0  0  0  0  0  0  0
   20.1611   20.5357   21.0822 H   0  0  0  0  0  0  0  0  0  0  0  0
   18.6710   21.3025   21.5520 H   0  0  0  0  0  0  0  0  0  0  0  0
   19.9663   20.9816   23.2232 C   0  0  0  0  0  0  0  0  0  0  0  0
   19.1228   21.2434   23.8779 H   0  0  0  0  0  0  0  0  0  0  0  0
   20.8357   19.9498   23.9784 C   0  0  0  0  0  0  0  0  0  0  0  0
   21.3579   20.4699   24.7926 H   0  0  0  0  0  0  0  0  0  0  0  0
   20.1792   19.2361   24.4877 H   0  0  0  0  0  0  0  0  0  0  0  0
   21.8835   19.2117   23.1028 C   0  0  0  0  0  0  0  0  0  0  0  0
   22.8810   19.3736   23.5335 H   0  0  0  0  0  0  0  0  0  0  0  0
   21.9372   19.6449   22.0975 H   0  0  0  0  0  0  0  0  0  0  0  0
   21.6482   17.6863   22.9903 C   0  0  0  0  0  0  0  0  0  0  0  0
   21.9572   17.2114   23.9314 H   0  0  0  0  0  0  0  0  0  0  0  0
   22.3237   17.2900   22.2200 H   0  0  0  0  0  0  0  0  0  0  0  0
   20.7513   22.1447   23.0015 O   0  0  0  0  0  0  0  0  0  0  0  0
   21.5566   21.8398   22.5362 H   0  0  0  0  0  0  0  0  0  0  0  0
  1  2  1  0  0  0  0
  1  3  1  0  0  0  0
  1  4  1  0  0  0  0
  4  5  1  0  0  0  0
  4  6  1  0  0  0  0
  4  7  1  0  0  0  0
  7  8  1  0  0  0  0
  7  9  1  0  0  0  0
  7 10  1  0  0  0  0
 10 11  1  0  0  0  0
 10 12  1  0  0  0  0
 10 13  1  0  0  0  0
 13 14  1  0  0  0  0
 13 15  1  0  0  0  0
 15 16  1  0  0  0  0
 15 17  1  0  0  0  0
 15 18  1  0  0  0  0
 18 19  1  0  0  0  0
 18 20  1  0  0  0  0
  1 21  1  0  0  0  0
 18 21  1  0  0  0  0
 21 22  1  0  0  0  0
 21 23  1  0  0  0  0
 13 24  1  0  0  0  0
 24 25  1  0  0  0  0
M  END
> <VConfSearch Rank>
511

> <Conf_Id>
164

> <Delta U+W>
0.008

> <U+W>
10.922

> <U>
12.433

> <W>
-1.511

> <W(PB)>
-3.669

> <W(SA)>
2.157

> <Valence>
19.007

> <Coulomb>
-9.373

> <VdW>
2.799

> <VdW6>
-12.597

> <VdW12>
15.396

> <Bond>
0.425

> <Angle>
4.784

> <Pdih>
13.799

> <Idih>
0.000

> <Tether>
0.000

$$$$
VeraChem MOL file


 25 25  0  0  0  0  0  0  0  0999 V2000     
   21.3101   18.5941   21.2475 C   0  0  0  0  0  0  0  0  0  0  0  0
   20.7354   17.7277   21.5939 H   0  0  0  0  0  0  0  0  0  0  0  0
   21.9087   18.2115   20.4097 H   0  0  0  0  0  0  0  0  0  0  0  0
   22.2996   19.0602   22.3444 C   0  0  0  0  0  0  0  0  0  0  0  0
   22.9742   18.2197   22.5573 H   0  0  0  0  0  0  0  0  0  0  0  0
   22.9379   19.8584   21.9420 H   0  0  0  0  0  0  0  0  0  0  0  0
   21.6920   19.5324   23.6900 C   0  0  0  0  0  0  0  0  0  0  0  0
   21.3767   20.5798   23.6236 H   0  0  0  0  0  0  0  0  0  0  0  0
   22.5052   19.5368   24.4288 H   0  0  0  0  0  0  0  0  0  0  0  0
   20.5402   18.6511   24.2426 C   0  0  0  0  0  0  0  0  0  0  0  0
   20.6072   17.6280   23.8534 H   0  0  0  0  0  0  0  0  0  0  0  0
   20.6908   18.5596   25.3267 H   0  0  0  0  0  0  0  0  0  0  0  0
   19.1182   19.2287   24.0308 C   0  0  0  0  0  0  0  0  0  0  0  0
   19.1016   20.2528   24.4302 H   0  0  0  0  0  0  0  0  0  0  0  0
   18.5982   19.2711   22.5720 C   0  0  0  0  0  0  0  0  0  0  0  0
   18.6013   18.2684   22.1278 H   0  0  0  0  0  0  0  0  0  0  0  0
   17.5410   19.5653   22.6170 H   0  0  0  0  0  0  0  0  0  0  0  0
   19.3210   20.2894   21.6503 C   0  0  0  0  0  0  0  0  0  0  0  0
   19.7733   21.0917   22.2442 H   0  0  0  0  0  0  0  0  0  0  0  0
   18.5628   20.7955   21.0372 H   0  0  0  0  0  0  0  0  0  0  0  0
   20.3621   19.6787   20.6777 C   0  0  0  0  0  0  0  0  0  0  0  0
   20.9600   20.4898   20.2405 H   0  0  0  0  0  0  0  0  0  0  0  0
   19.8140   19.2286   19.8387 H   0  0  0  0  0  0  0  0  0  0  0  0
   18.2140   18.4357   24.7876 O   0  0  0  0  0  0  0  0  0  0  0  0
   18.2530   17.5340   24.4078 H   0  0  0  0  0  0  0  0  0  0  0  0
  1  2  1  0  0  0  0
  1  3  1  0  0  0  0
  1  4  1  0  0  0  0
  4  5  1  0  0  0  0
  4  6  1  0  0  0  0
  4  7  1  0  0  0  0
  7  8  1  0  0  0  0
  7  9  1  0  0  0  0
  7 10  1  0  0  0  0
 10 11  1  0  0  0  0
 10 12  1  0  0  0  0
 10 13  1  0  0  0  0
 13 14  1  0  0  0  0
 13 15  1  0  0  0  0
 15 16  1  0  0  0  0
 15 17  1  0  0  0  0
 15 18  1  0  0  0  0
 18 19  1  0  0  0  0
 18 20  1  0  0  0  0
  1 21  1  0  0  0  0
 18 21  1  0  0  0  0
 21 22  1  0  0  0  0
 21 23  1  0  0  0  0
 13 24  1  0  0  0  0
 24 25  1  0  0  0  0
M  END
> <VConfSearch Rank>
512

> <Conf_Id>
15

> <Delta U+W>
-1.271

> <U+W>
9.643

> <U>
11.413

> <W>
-1.770

> <W(PB)>
-3.908

> <W(SA)>
2.138

> <Valence>
17.496

> <Coulomb>
-8.736

> <VdW>
2.653

> <VdW6>
-12.485

> <VdW12>
15.138

> <Bond>
0.414

> <Angle>
5.295

> <Pdih>
11.787

> <Idih>
0.000

> <Tether>
0.000

$$$$
VeraChem MOL file


 25 25  0  0  0  0  0  0  0  0999 V2000     
   20.4316   19.8182   20.8218 C   0  0  0  0  0  0  0  0  0  0  0  0
   20.3847   20.3212   19.8462 H   0  0  0  0  0  0  0  0  0  0  0  0
   20.4666   18.7477   20.5831 H   0  0  0  0  0  0  0  0  0  0  0  0
   21.7508   20.2705   21.5016 C   0  0  0  0  0  0  0  0  0  0  0  0
   22.5902   19.8655   20.9201 H   0  0  0  0  0  0  0  0  0  0  0  0
   21.8340   21.3631   21.4244 H   0  0  0  0  0  0  0  0  0  0  0  0
   21.9386   19.8733   22.9856 C   0  0  0  0  0  0  0  0  0  0  0  0
   21.3577   20.5502   23.6229 H   0  0  0  0  0  0  0  0  0  0  0  0
   22.9860   20.0610   23.2588 H   0  0  0  0  0  0  0  0  0  0  0  0
   21.6015   18.3909   23.2928 C   0  0  0  0  0  0  0  0  0  0  0  0
   21.4367   17.8275   22.3677 H   0  0  0  0  0  0  0  0  0  0  0  0
   22.4809   17.9236   23.7548 H   0  0  0  0  0  0  0  0  0  0  0  0
   20.4081   18.1909   24.2551 C   0  0  0  0  0  0  0  0  0  0  0  0
   20.7476   18.4597   25.2658 H   0  0  0  0  0  0  0  0  0  0  0  0
   19.1353   19.0273   23.9641 C   0  0  0  0  0  0  0  0  0  0  0  0
   18.3432   18.6450   24.6219 H   0  0  0  0  0  0  0  0  0  0  0  0
   19.2847   20.0636   24.2901 H   0  0  0  0  0  0  0  0  0  0  0  0
   18.5992   19.0087   22.5076 C   0  0  0  0  0  0  0  0  0  0  0  0
   17.5094   19.1341   22.5700 H   0  0  0  0  0  0  0  0  0  0  0  0
   18.7500   18.0263   22.0418 H   0  0  0  0  0  0  0  0  0  0  0  0
   19.1287   20.1466   21.5920 C   0  0  0  0  0  0  0  0  0  0  0  0
   19.2302   21.0888   22.1472 H   0  0  0  0  0  0  0  0  0  0  0  0
   18.3521   20.3359   20.8383 H   0  0  0  0  0  0  0  0  0  0  0  0
   20.0551   16.8148   24.2439 O   0  0  0  0  0  0  0  0  0  0  0  0
   19.6718   16.6439   23.3602 H   0  0  0  0  0  0  0  0  0  0  0  0
  1  2  1  0  0  0  0
  1  3  1  0  0  0  0
  1  4  1  0  0  0  0
  4  5  1  0  0  0  0
  4  6  1  0  0  0  0
  4  7  1  0  0  0  0
  7  8  1  0  0  0  0
  7  9  1  0  0  0  0
  7 10  1  0  0  0  0
 10 11  1  0  0  0  0
 10 12  1  0  0  0  0
 10 13  1  0  0  0  0
 13 14  1  0  0  0  0
 13 15  1  0  0  0  0
 15 16  1  0  0  0  0
 15 17  1  0  0  0  0
 15 18  1  0  0  0  0
 18 19  1  0  0  0  0
 18 20  1  0  0  0  0
  1 21  1  0  0  0  0
 18 21  1  0  0  0  0
 21 22  1  0  0  0  0
 21 23  1  0  0  0  0
 13 24  1  0  0  0  0
 24 25  1  0  0  0  0
M  END
> <VConfSearch Rank>
513

> <Conf_Id>
115

> <Delta U+W>
0.038

> <U+W>
10.952

> <U>
12.526

> <W>
-1.575

> <W(PB)>
-3.698

> <W(SA)>
2.123

> <Valence>
19.016

> <Coulomb>
-9.226

> <VdW>
2.737

> <VdW6>
-12.612

> <VdW12>
15.349

> <Bond>
0.421

> <Angle>
4.883

> <Pdih>
13.711

> <Idih>
0.000

> <Tether>
0.000

$$$$
VeraChem MOL file


 25 25  0  0  0  0  0  0  0  0999 V2000     
   19.1694   19.9114   24.3319 C   0  0  0  0  0  0  0  0  0  0  0  0
   18.2567   20.2984   24.8054 H   0  0  0  0  0  0  0  0  0  0  0  0
   19.8087   19.5728   25.1584 H   0  0  0  0  0  0  0  0  0  0  0  0
   19.8399   21.0918   23.5912 C   0  0  0  0  0  0  0  0  0  0  0  0
   19.1503   21.5095   22.8451 H   0  0  0  0  0  0  0  0  0  0  0  0
   19.9995   21.8926   24.3262 H   0  0  0  0  0  0  0  0  0  0  0  0
   21.2029   20.7682   22.9366 C   0  0  0  0  0  0  0  0  0  0  0  0
   21.8084   20.1426   23.6059 H   0  0  0  0  0  0  0  0  0  0  0  0
   21.7550   21.7134   22.8426 H   0  0  0  0  0  0  0  0  0  0  0  0
   21.0987   20.1463   21.5180 C   0  0  0  0  0  0  0  0  0  0  0  0
   20.0862   20.2531   21.1092 H   0  0  0  0  0  0  0  0  0  0  0  0
   21.7455   20.7357   20.8540 H   0  0  0  0  0  0  0  0  0  0  0  0
   21.5500   18.6709   21.4324 C   0  0  0  0  0  0  0  0  0  0  0  0
   22.3953   18.5170   22.1183 H   0  0  0  0  0  0  0  0  0  0  0  0
   20.4464   17.6398   21.7569 C   0  0  0  0  0  0  0  0  0  0  0  0
   19.6195   17.7385   21.0412 H   0  0  0  0  0  0  0  0  0  0  0  0
   20.8681   16.6399   21.5898 H   0  0  0  0  0  0  0  0  0  0  0  0
   19.9041   17.6811   23.2063 C   0  0  0  0  0  0  0  0  0  0  0  0
   20.7274   17.8228   23.9190 H   0  0  0  0  0  0  0  0  0  0  0  0
   19.4939   16.6867   23.4302 H   0  0  0  0  0  0  0  0  0  0  0  0
   18.7698   18.7132   23.4392 C   0  0  0  0  0  0  0  0  0  0  0  0
   17.9478   18.1888   23.9457 H   0  0  0  0  0  0  0  0  0  0  0  0
   18.3465   19.0670   22.4897 H   0  0  0  0  0  0  0  0  0  0  0  0
   21.9901   18.4216   20.1028 O   0  0  0  0  0  0  0  0  0  0  0  0
   22.3216   17.4996   20.0824 H   0  0  0  0  0  0  0  0  0  0  0  0
  1  2  1  0  0  0  0
  1  3  1  0  0  0  0
  1  4  1  0  0  0  0
  4  5  1  0  0  0  0
  4  6  1  0  0  0  0
  4  7  1  0  0  0  0
  7  8  1  0  0  0  0
  7  9  1  0  0  0  0
  7 10  1  0  0  0  0
 10 11  1  0  0  0  0
 10 12  1  0  0  0  0
 10 13  1  0  0  0  0
 13 14  1  0  0  0  0
 13 15  1  0  0  0  0
 15 16  1  0  0  0  0
 15 17  1  0  0  0  0
 15 18  1  0  0  0  0
 18 19  1  0  0  0  0
 18 20  1  0  0  0  0
  1 21  1  0  0  0  0
 18 21  1  0  0  0  0
 21 22  1  0  0  0  0
 21 23  1  0  0  0  0
 13 24  1  0  0  0  0
 24 25  1  0  0  0  0
M  END
> <VConfSearch Rank>
514

> <Conf_Id>
30

> <Delta U+W>
0.000

> <U+W>
10.913

> <U>
13.140

> <W>
-2.227

> <W(PB)>
-4.367

> <W(SA)>
2.140

> <Valence>
19.155

> <Coulomb>
-8.157

> <VdW>
2.142

> <VdW6>
-11.576

> <VdW12>
13.718

> <Bond>
0.294

> <Angle>
3.547

> <Pdih>
15.314

> <Idih>
0.000

> <Tether>
0.000

$$$$
VeraChem MOL file


 25 25  0  0  0  0  0  0  0  0999 V2000     
   19.0588   18.6791   21.0049 C   0  0  0  0  0  0  0  0  0  0  0  0
   19.2647   18.1769   20.0498 H   0  0  0  0  0  0  0  0  0  0  0  0
   17.9930   18.9438   20.9773 H   0  0  0  0  0  0  0  0  0  0  0  0
   19.8826   19.9893   21.0584 C   0  0  0  0  0  0  0  0  0  0  0  0
   19.7984   20.4819   20.0800 H   0  0  0  0  0  0  0  0  0  0  0  0
   19.4162   20.6890   21.7615 H   0  0  0  0  0  0  0  0  0  0  0  0
   21.3845   19.7890   21.3838 C   0  0  0  0  0  0  0  0  0  0  0  0
   21.9828   20.2484   20.5853 H   0  0  0  0  0  0  0  0  0  0  0  0
   21.6542   18.7267   21.3593 H   0  0  0  0  0  0  0  0  0  0  0  0
   21.8272   20.4094   22.7331 C   0  0  0  0  0  0  0  0  0  0  0  0
   22.8419   20.0567   22.9606 H   0  0  0  0  0  0  0  0  0  0  0  0
   21.9077   21.4968   22.6056 H   0  0  0  0  0  0  0  0  0  0  0  0
   20.9147   20.1463   23.9572 C   0  0  0  0  0  0  0  0  0  0  0  0
   19.9839   20.7178   23.8437 H   0  0  0  0  0  0  0  0  0  0  0  0
   20.5560   18.6602   24.2026 C   0  0  0  0  0  0  0  0  0  0  0  0
   21.3760   18.0102   23.8714 H   0  0  0  0  0  0  0  0  0  0  0  0
   20.4802   18.5019   25.2866 H   0  0  0  0  0  0  0  0  0  0  0  0
   19.2030   18.2023   23.5882 C   0  0  0  0  0  0  0  0  0  0  0  0
   18.4462   18.9953   23.6571 H   0  0  0  0  0  0  0  0  0  0  0  0
   18.8267   17.3851   24.2190 H   0  0  0  0  0  0  0  0  0  0  0  0
   19.2910   17.6506   22.1437 C   0  0  0  0  0  0  0  0  0  0  0  0
   18.5234   16.8724   22.0326 H   0  0  0  0  0  0  0  0  0  0  0  0
   20.2436   17.1247   22.0008 H   0  0  0  0  0  0  0  0  0  0  0  0
   21.5980   20.6388   25.1039 O   0  0  0  0  0  0  0  0  0  0  0  0
   20.9837   20.5426   25.8615 H   0  0  0  0  0  0  0  0  0  0  0  0
  1  2  1  0  0  0  0
  1  3  1  0  0  0  0
  1  4  1  0  0  0  0
  4  5  1  0  0  0  0
  4  6  1  0  0  0  0
  4  7  1  0  0  0  0
  7  8  1  0  0  0  0
  7  9  1  0  0  0  0
  7 10  1  0  0  0  0
 10 11  1  0  0  0  0
 10 12  1  0  0  0  0
 10 13  1  0  0  0  0
 13 14  1  0  0  0  0
 13 15  1  0  0  0  0
 15 16  1  0  0  0  0
 15 17  1  0  0  0  0
 15 18  1  0  0  0  0
 18 19  1  0  0  0  0
 18 20  1  0  0  0  0
  1 21  1  0  0  0  0
 18 21  1  0  0  0  0
 21 22  1  0  0  0  0
 21 23  1  0  0  0  0
 13 24  1  0  0  0  0
 24 25  1  0  0  0  0
M  END
> <VConfSearch Rank>
515

> <Conf_Id>
162

> <Delta U+W>
0.219

> <U+W>
11.132

> <U>
13.296

> <W>
-2.164

> <W(PB)>
-4.311

> <W(SA)>
2.148

> <Valence>
18.607

> <Coulomb>
-8.339

> <VdW>
3.028

> <VdW6>
-12.271

> <VdW12>
15.299

> <Bond>
0.423

> <Angle>
4.488

> <Pdih>
13.696

> <Idih>
0.000

> <Tether>
0.000

$$$$
VeraChem MOL file


 25 25  0  0  0  0  0  0  0  0999 V2000     
   19.9526   17.2762   22.5257 C   0  0  0  0  0  0  0  0  0  0  0  0
   19.7066   17.2943   23.5950 H   0  0  0  0  0  0  0  0  0  0  0  0
   19.7495   16.2439   22.2094 H   0  0  0  0  0  0  0  0  0  0  0  0
   18.9947   18.2120   21.7470 C   0  0  0  0  0  0  0  0  0  0  0  0
   19.4236   18.4867   20.7740 H   0  0  0  0  0  0  0  0  0  0  0  0
   18.0962   17.6245   21.5129 H   0  0  0  0  0  0  0  0  0  0  0  0
   18.5194   19.4698   22.5265 C   0  0  0  0  0  0  0  0  0  0  0  0
   18.3586   19.2412   23.5886 H   0  0  0  0  0  0  0  0  0  0  0  0
   17.5277   19.7312   22.1325 H   0  0  0  0  0  0  0  0  0  0  0  0
   19.4128   20.7267   22.3619 C   0  0  0  0  0  0  0  0  0  0  0  0
   19.8435   20.7503   21.3533 H   0  0  0  0  0  0  0  0  0  0  0  0
   18.7620   21.6095   22.4119 H   0  0  0  0  0  0  0  0  0  0  0  0
   20.5164   20.9313   23.4303 C   0  0  0  0  0  0  0  0  0  0  0  0
   20.0238   21.2035   24.3750 H   0  0  0  0  0  0  0  0  0  0  0  0
   21.4242   19.7122   23.7197 C   0  0  0  0  0  0  0  0  0  0  0  0
   22.2780   20.0476   24.3227 H   0  0  0  0  0  0  0  0  0  0  0  0
   20.8868   19.0157   24.3721 H   0  0  0  0  0  0  0  0  0  0  0  0
   21.9599   18.9867   22.4572 C   0  0  0  0  0  0  0  0  0  0  0  0
   23.0576   18.9783   22.4938 H   0  0  0  0  0  0  0  0  0  0  0  0
   21.7154   19.5498   21.5487 H   0  0  0  0  0  0  0  0  0  0  0  0
   21.4687   17.5264   22.3091 C   0  0  0  0  0  0  0  0  0  0  0  0
   22.0234   16.8948   23.0163 H   0  0  0  0  0  0  0  0  0  0  0  0
   21.7478   17.1700   21.3082 H   0  0  0  0  0  0  0  0  0  0  0  0
   21.3348   22.0156   23.0076 O   0  0  0  0  0  0  0  0  0  0  0  0
   22.0268   22.1294   23.6913 H   0  0  0  0  0  0  0  0  0  0  0  0
  1  2  1  0  0  0  0
  1  3  1  0  0  0  0
  1  4  1  0  0  0  0
  4  5  1  0  0  0  0
  4  6  1  0  0  0  0
  4  7  1  0  0  0  0
  7  8  1  0  0  0  0
  7  9  1  0  0  0  0
  7 10  1  0  0  0  0
 10 11  1  0  0  0  0
 10 12  1  0  0  0  0
 10 13  1  0  0  0  0
 13 14  1  0  0  0  0
 13 15  1  0  0  0  0
 15 16  1  0  0  0  0
 15 17  1  0  0  0  0
 15 18  1  0  0  0  0
 18 19  1  0  0  0  0
 18 20  1  0  0  0  0
  1 21  1  0  0  0  0
 18 21  1  0  0  0  0
 21 22  1  0  0  0  0
 21 23  1  0  0  0  0
 13 24  1  0  0  0  0
 24 25  1  0  0  0  0
M  END
> <VConfSearch Rank>
516

> <Conf_Id>
155

> <Delta U+W>
0.339

> <U+W>
11.252

> <U>
13.420

> <W>
-2.167

> <W(PB)>
-4.325

> <W(SA)>
2.157

> <Valence>
18.609

> <Coulomb>
-8.052

> <VdW>
2.863

> <VdW6>
-12.524

> <VdW12>
15.387

> <Bond>
0.430

> <Angle>
4.724

> <Pdih>
13.455

> <Idih>
0.000

> <Tether>
0.000

$$$$
VeraChem MOL file


 25 25  0  0  0  0  0  0  0  0999 V2000     
   20.7500   18.5776   20.8163 C   0  0  0  0  0  0  0  0  0  0  0  0
   20.0619   17.8066   20.4443 H   0  0  0  0  0  0  0  0  0  0  0  0
   21.4563   18.7598   19.9948 H   0  0  0  0  0  0  0  0  0  0  0  0
   19.9664   19.8980   21.0382 C   0  0  0  0  0  0  0  0  0  0  0  0
   20.6692   20.6966   21.2958 H   0  0  0  0  0  0  0  0  0  0  0  0
   19.5650   20.2131   20.0654 H   0  0  0  0  0  0  0  0  0  0  0  0
   18.7728   19.8676   22.0369 C   0  0  0  0  0  0  0  0  0  0  0  0
   17.8851   19.5403   21.4788 H   0  0  0  0  0  0  0  0  0  0  0  0
   18.5537   20.8941   22.3612 H   0  0  0  0  0  0  0  0  0  0  0  0
   18.8859   18.9528   23.2868 C   0  0  0  0  0  0  0  0  0  0  0  0
   17.9077   18.9560   23.7852 H   0  0  0  0  0  0  0  0  0  0  0  0
   18.9961   17.9141   22.9630 H   0  0  0  0  0  0  0  0  0  0  0  0
   19.9649   19.3035   24.3531 C   0  0  0  0  0  0  0  0  0  0  0  0
   20.1956   18.3846   24.9109 H   0  0  0  0  0  0  0  0  0  0  0  0
   21.3023   19.9052   23.8532 C   0  0  0  0  0  0  0  0  0  0  0  0
   21.1005   20.8546   23.3489 H   0  0  0  0  0  0  0  0  0  0  0  0
   21.8823   20.2001   24.7377 H   0  0  0  0  0  0  0  0  0  0  0  0
   22.2281   19.0017   22.9844 C   0  0  0  0  0  0  0  0  0  0  0  0
   22.8549   18.4165   23.6711 H   0  0  0  0  0  0  0  0  0  0  0  0
   22.9248   19.6409   22.4254 H   0  0  0  0  0  0  0  0  0  0  0  0
   21.5643   17.9949   22.0085 C   0  0  0  0  0  0  0  0  0  0  0  0
   20.9630   17.2794   22.5780 H   0  0  0  0  0  0  0  0  0  0  0  0
   22.3627   17.3740   21.5798 H   0  0  0  0  0  0  0  0  0  0  0  0
   19.3970   20.2483   25.2537 O   0  0  0  0  0  0  0  0  0  0  0  0
   18.5781   19.8445   25.6082 H   0  0  0  0  0  0  0  0  0  0  0  0
  1  2  1  0  0  0  0
  1  3  1  0  0  0  0
  1  4  1  0  0  0  0
  4  5  1  0  0  0  0
  4  6  1  0  0  0  0
  4  7  1  0  0  0  0
  7  8  1  0  0  0  0
  7  9  1  0  0  0  0
  7 10  1  0  0  0  0
 10 11  1  0  0  0  0
 10 12  1  0  0  0  0
 10 13  1  0  0  0  0
 13 14  1  0  0  0  0
 13 15  1  0  0  0  0
 15 16  1  0  0  0  0
 15 17  1  0  0  0  0
 15 18  1  0  0  0  0
 18 19  1  0  0  0  0
 18 20  1  0  0  0  0
  1 21  1  0  0  0  0
 18 21  1  0  0  0  0
 21 22  1  0  0  0  0
 21 23  1  0  0  0  0
 13 24  1  0  0  0  0
 24 25  1  0  0  0  0
M  END
> <VConfSearch Rank>
517

> <Conf_Id>
146

> <Delta U+W>
2.553

> <U+W>
13.466

> <U>
15.643

> <W>
-2.176

> <W(PB)>
-4.307

> <W(SA)>
2.131

> <Valence>
18.916

> <Coulomb>
-7.506

> <VdW>
4.232

> <VdW6>
-13.632

> <VdW12>
17.864

> <Bond>
0.735

> <Angle>
9.140

> <Pdih>
9.042

> <Idih>
0.000

> <Tether>
0.000

$$$$
VeraChem MOL file


 25 25  0  0  0  0  0  0  0  0999 V2000     
   18.5733   18.7411   21.6653 C   0  0  0  0  0  0  0  0  0  0  0  0
   17.7960   18.1095   22.1162 H   0  0  0  0  0  0  0  0  0  0  0  0
   18.2063   18.9903   20.6602 H   0  0  0  0  0  0  0  0  0  0  0  0
   19.8696   17.9107   21.4913 C   0  0  0  0  0  0  0  0  0  0  0  0
   19.6317   17.0714   20.8237 H   0  0  0  0  0  0  0  0  0  0  0  0
   20.6236   18.4906   20.9468 H   0  0  0  0  0  0  0  0  0  0  0  0
   20.4747   17.3112   22.7854 C   0  0  0  0  0  0  0  0  0  0  0  0
   21.3096   16.6611   22.4897 H   0  0  0  0  0  0  0  0  0  0  0  0
   19.7363   16.6506   23.2595 H   0  0  0  0  0  0  0  0  0  0  0  0
   21.0060   18.3136   23.8431 C   0  0  0  0  0  0  0  0  0  0  0  0
   20.1818   18.6925   24.4557 H   0  0  0  0  0  0  0  0  0  0  0  0
   21.6289   17.7424   24.5447 H   0  0  0  0  0  0  0  0  0  0  0  0
   21.8360   19.4931   23.2738 C   0  0  0  0  0  0  0  0  0  0  0  0
   22.2053   19.2339   22.2724 H   0  0  0  0  0  0  0  0  0  0  0  0
   21.0649   20.8356   23.2048 C   0  0  0  0  0  0  0  0  0  0  0  0
   20.6687   21.0754   24.2004 H   0  0  0  0  0  0  0  0  0  0  0  0
   21.7870   21.6297   22.9739 H   0  0  0  0  0  0  0  0  0  0  0  0
   19.9204   20.9349   22.1598 C   0  0  0  0  0  0  0  0  0  0  0  0
   20.2980   20.7378   21.1482 H   0  0  0  0  0  0  0  0  0  0  0  0
   19.5915   21.9830   22.1435 H   0  0  0  0  0  0  0  0  0  0  0  0
   18.6773   20.0618   22.4710 C   0  0  0  0  0  0  0  0  0  0  0  0
   17.7794   20.6515   22.2404 H   0  0  0  0  0  0  0  0  0  0  0  0
   18.6046   19.8649   23.5466 H   0  0  0  0  0  0  0  0  0  0  0  0
   22.9596   19.6937   24.1238 O   0  0  0  0  0  0  0  0  0  0  0  0
   23.5007   20.4014   23.7158 H   0  0  0  0  0  0  0  0  0  0  0  0
  1  2  1  0  0  0  0
  1  3  1  0  0  0  0
  1  4  1  0  0  0  0
  4  5  1  0  0  0  0
  4  6  1  0  0  0  0
  4  7  1  0  0  0  0
  7  8  1  0  0  0  0
  7  9  1  0  0  0  0
  7 10  1  0  0  0  0
 10 11  1  0  0  0  0
 10 12  1  0  0  0  0
 10 13  1  0  0  0  0
 13 14  1  0  0  0  0
 13 15  1  0  0  0  0
 15 16  1  0  0  0  0
 15 17  1  0  0  0  0
 15 18  1  0  0  0  0
 18 19  1  0  0  0  0
 18 20  1  0  0  0  0
  1 21  1  0  0  0  0
 18 21  1  0  0  0  0
 21 22  1  0  0  0  0
 21 23  1  0  0  0  0
 13 24  1  0  0  0  0
 24 25  1  0  0  0  0
M  END
> <VConfSearch Rank>
518

> <Conf_Id>
62

> <Delta U+W>
-1.779

> <U+W>
9.134

> <U>
11.364

> <W>
-2.230

> <W(PB)>
-4.359

> <W(SA)>
2.129

> <Valence>
16.582

> <Coulomb>
-8.150

> <VdW>
2.933

> <VdW6>
-12.531

> <VdW12>
15.464

> <Bond>
0.439

> <Angle>
5.099

> <Pdih>
11.044

> <Idih>
0.000

> <Tether>
0.000

$$$$
VeraChem MOL file


 25 25  0  0  0  0  0  0  0  0999 V2000     
   22.0641   18.7924   22.0074 C   0  0  0  0  0  0  0  0  0  0  0  0
   21.9467   19.8636   21.8080 H   0  0  0  0  0  0  0  0  0  0  0  0
   23.0545   18.5428   21.6031 H   0  0  0  0  0  0  0  0  0  0  0  0
   21.0205   17.9759   21.2050 C   0  0  0  0  0  0  0  0  0  0  0  0
   21.1892   18.1836   20.1395 H   0  0  0  0  0  0  0  0  0  0  0  0
   21.2214   16.9038   21.3340 H   0  0  0  0  0  0  0  0  0  0  0  0
   19.5251   18.2476   21.5096 C   0  0  0  0  0  0  0  0  0  0  0  0
   19.2012   17.6763   22.3869 H   0  0  0  0  0  0  0  0  0  0  0  0
   18.9438   17.8264   20.6779 H   0  0  0  0  0  0  0  0  0  0  0  0
   19.1404   19.7437   21.6613 C   0  0  0  0  0  0  0  0  0  0  0  0
   19.8521   20.3896   21.1326 H   0  0  0  0  0  0  0  0  0  0  0  0
   18.1820   19.8859   21.1449 H   0  0  0  0  0  0  0  0  0  0  0  0
   18.9529   20.2243   23.1225 C   0  0  0  0  0  0  0  0  0  0  0  0
   18.2411   19.5489   23.6188 H   0  0  0  0  0  0  0  0  0  0  0  0
   20.2324   20.2985   23.9926 C   0  0  0  0  0  0  0  0  0  0  0  0
   20.9735   20.9622   23.5309 H   0  0  0  0  0  0  0  0  0  0  0  0
   19.9513   20.7906   24.9332 H   0  0  0  0  0  0  0  0  0  0  0  0
   20.8587   18.9257   24.3572 C   0  0  0  0  0  0  0  0  0  0  0  0
   20.1019   18.1343   24.3130 H   0  0  0  0  0  0  0  0  0  0  0  0
   21.1621   18.9569   25.4126 H   0  0  0  0  0  0  0  0  0  0  0  0
   22.1104   18.5290   23.5333 C   0  0  0  0  0  0  0  0  0  0  0  0
   22.3335   17.4685   23.7121 H   0  0  0  0  0  0  0  0  0  0  0  0
   22.9677   19.0849   23.9369 H   0  0  0  0  0  0  0  0  0  0  0  0
   18.3893   21.5292   23.0785 O   0  0  0  0  0  0  0  0  0  0  0  0
   17.5464   21.4572   22.5842 H   0  0  0  0  0  0  0  0  0  0  0  0
  1  2  1  0  0  0  0
  1  3  1  0  0  0  0
  1  4  1  0  0  0  0
  4  5  1  0  0  0  0
  4  6  1  0  0  0  0
  4  7  1  0  0  0  0
  7  8  1  0  0  0  0
  7  9  1  0  0  0  0
  7 10  1  0  0  0  0
 10 11  1  0  0  0  0
 10 12  1  0  0  0  0
 10 13  1  0  0  0  0
 13 14  1  0  0  0  0
 13 15  1  0  0  0  0
 15 16  1  0  0  0  0
 15 17  1  0  0  0  0
 15 18  1  0  0  0  0
 18 19  1  0  0  0  0
 18 20  1  0  0  0  0
  1 21  1  0  0  0  0
 18 21  1  0  0  0  0
 21 22  1  0  0  0  0
 21 23  1  0  0  0  0
 13 24  1  0  0  0  0
 24 25  1  0  0  0  0
M  END
> <VConfSearch Rank>
519

> <Conf_Id>
121

> <Delta U+W>
-1.283

> <U+W>
9.630

> <U>
11.876

> <W>
-2.246

> <W(PB)>
-4.376

> <W(SA)>
2.130

> <Valence>
17.153

> <Coulomb>
-7.966

> <VdW>
2.689

> <VdW6>
-12.458

> <VdW12>
15.147

> <Bond>
0.421

> <Angle>
5.258

> <Pdih>
11.475

> <Idih>
0.000

> <Tether>
0.000

$$$$
VeraChem MOL file


 25 25  0  0  0  0  0  0  0  0999 V2000     
   20.9518   20.7114   21.6688 C   0  0  0  0  0  0  0  0  0  0  0  0
   20.1803   20.2549   21.0383 H   0  0  0  0  0  0  0  0  0  0  0  0
   21.3012   21.5795   21.0934 H   0  0  0  0  0  0  0  0  0  0  0  0
   22.1564   19.7506   21.8290 C   0  0  0  0  0  0  0  0  0  0  0  0
   22.5561   19.5544   20.8247 H   0  0  0  0  0  0  0  0  0  0  0  0
   22.9604   20.2641   22.3735 H   0  0  0  0  0  0  0  0  0  0  0  0
   21.8842   18.3828   22.5058 C   0  0  0  0  0  0  0  0  0  0  0  0
   21.9061   18.4820   23.5969 H   0  0  0  0  0  0  0  0  0  0  0  0
   22.7368   17.7305   22.2722 H   0  0  0  0  0  0  0  0  0  0  0  0
   20.5857   17.6643   22.0505 C   0  0  0  0  0  0  0  0  0  0  0  0
   20.2802   17.9939   21.0501 H   0  0  0  0  0  0  0  0  0  0  0  0
   20.8221   16.5974   21.9427 H   0  0  0  0  0  0  0  0  0  0  0  0
   19.3994   17.7654   23.0416 C   0  0  0  0  0  0  0  0  0  0  0  0
   19.7492   17.4297   24.0285 H   0  0  0  0  0  0  0  0  0  0  0  0
   18.7556   19.1655   23.2050 C   0  0  0  0  0  0  0  0  0  0  0  0
   18.3996   19.5400   22.2374 H   0  0  0  0  0  0  0  0  0  0  0  0
   17.8526   19.0408   23.8169 H   0  0  0  0  0  0  0  0  0  0  0  0
   19.6493   20.2168   23.9160 C   0  0  0  0  0  0  0  0  0  0  0  0
   20.3947   19.7227   24.5494 H   0  0  0  0  0  0  0  0  0  0  0  0
   19.0219   20.7810   24.6197 H   0  0  0  0  0  0  0  0  0  0  0  0
   20.3285   21.2496   22.9808 C   0  0  0  0  0  0  0  0  0  0  0  0
   21.0939   21.7956   23.5489 H   0  0  0  0  0  0  0  0  0  0  0  0
   19.5741   21.9985   22.7035 H   0  0  0  0  0  0  0  0  0  0  0  0
   18.3869   16.8752   22.5889 O   0  0  0  0  0  0  0  0  0  0  0  0
   17.6715   16.8961   23.2583 H   0  0  0  0  0  0  0  0  0  0  0  0
  1  2  1  0  0  0  0
  1  3  1  0  0  0  0
  1  4  1  0  0  0  0
  4  5  1  0  0  0  0
  4  6  1  0  0  0  0
  4  7  1  0  0  0  0
  7  8  1  0  0  0  0
  7  9  1  0  0  0  0
  7 10  1  0  0  0  0
 10 11  1  0  0  0  0
 10 12  1  0  0  0  0
 10 13  1  0  0  0  0
 13 14  1  0  0  0  0
 13 15  1  0  0  0  0
 15 16  1  0  0  0  0
 15 17  1  0  0  0  0
 15 18  1  0  0  0  0
 18 19  1  0  0  0  0
 18 20  1  0  0  0  0
  1 21  1  0  0  0  0
 18 21  1  0  0  0  0
 21 22  1  0  0  0  0
 21 23  1  0  0  0  0
 13 24  1  0  0  0  0
 24 25  1  0  0  0  0
M  END
> <VConfSearch Rank>
520

> <Conf_Id>
24

> <Delta U+W>
-1.236

> <U+W>
9.678

> <U>
11.876

> <W>
-2.199

> <W(PB)>
-4.335

> <W(SA)>
2.137

> <Valence>
17.153

> <Coulomb>
-7.966

> <VdW>
2.689

> <VdW6>
-12.458

> <VdW12>
15.147

> <Bond>
0.421

> <Angle>
5.258

> <Pdih>
11.475

> <Idih>
0.000

> <Tether>
0.000

$$$$
VeraChem MOL file


 25 25  0  0  0  0  0  0  0  0999 V2000     
   20.4382   18.1903   20.7532 C   0  0  0  0  0  0  0  0  0  0  0  0
   19.5712   17.8224   20.1878 H   0  0  0  0  0  0  0  0  0  0  0  0
   21.3213   17.8774   20.1796 H   0  0  0  0  0  0  0  0  0  0  0  0
   20.4049   19.7417   20.7698 C   0  0  0  0  0  0  0  0  0  0  0  0
   21.3919   20.1468   21.0265 H   0  0  0  0  0  0  0  0  0  0  0  0
   20.2294   20.0687   19.7357 H   0  0  0  0  0  0  0  0  0  0  0  0
   19.3184   20.3887   21.6641 C   0  0  0  0  0  0  0  0  0  0  0  0
   18.4055   19.7780   21.6724 H   0  0  0  0  0  0  0  0  0  0  0  0
   19.0315   21.3342   21.1835 H   0  0  0  0  0  0  0  0  0  0  0  0
   19.7741   20.7376   23.1092 C   0  0  0  0  0  0  0  0  0  0  0  0
   20.8167   21.0803   23.1179 H   0  0  0  0  0  0  0  0  0  0  0  0
   19.1768   21.6038   23.4254 H   0  0  0  0  0  0  0  0  0  0  0  0
   19.5633   19.6122   24.1513 C   0  0  0  0  0  0  0  0  0  0  0  0
   18.7093   18.9990   23.8345 H   0  0  0  0  0  0  0  0  0  0  0  0
   20.7888   18.6957   24.3962 C   0  0  0  0  0  0  0  0  0  0  0  0
   21.5529   19.2510   24.9558 H   0  0  0  0  0  0  0  0  0  0  0  0
   20.4664   17.8786   25.0549 H   0  0  0  0  0  0  0  0  0  0  0  0
   21.4607   18.0769   23.1446 C   0  0  0  0  0  0  0  0  0  0  0  0
   22.1437   17.2851   23.4812 H   0  0  0  0  0  0  0  0  0  0  0  0
   22.1090   18.8208   22.6672 H   0  0  0  0  0  0  0  0  0  0  0  0
   20.4628   17.4723   22.1248 C   0  0  0  0  0  0  0  0  0  0  0  0
   19.4486   17.4350   22.5391 H   0  0  0  0  0  0  0  0  0  0  0  0
   20.7310   16.4211   21.9521 H   0  0  0  0  0  0  0  0  0  0  0  0
   19.2306   20.2124   25.3966 O   0  0  0  0  0  0  0  0  0  0  0  0
   19.9958   20.7690   25.6490 H   0  0  0  0  0  0  0  0  0  0  0  0
  1  2  1  0  0  0  0
  1  3  1  0  0  0  0
  1  4  1  0  0  0  0
  4  5  1  0  0  0  0
  4  6  1  0  0  0  0
  4  7  1  0  0  0  0
  7  8  1  0  0  0  0
  7  9  1  0  0  0  0
  7 10  1  0  0  0  0
 10 11  1  0  0  0  0
 10 12  1  0  0  0  0
 10 13  1  0  0  0  0
 13 14  1  0  0  0  0
 13 15  1  0  0  0  0
 15 16  1  0  0  0  0
 15 17  1  0  0  0  0
 15 18  1  0  0  0  0
 18 19  1  0  0  0  0
 18 20  1  0  0  0  0
  1 21  1  0  0  0  0
 18 21  1  0  0  0  0
 21 22  1  0  0  0  0
 21 23  1  0  0  0  0
 13 24  1  0  0  0  0
 24 25  1  0  0  0  0
M  END
> <VConfSearch Rank>
521

> <Conf_Id>
167

> <Delta U+W>
0.388

> <U+W>
11.301

> <U>
13.202

> <W>
-1.901

> <W(PB)>
-4.065

> <W(SA)>
2.163

> <Valence>
18.957

> <Coulomb>
-8.753

> <VdW>
2.998

> <VdW6>
-12.294

> <VdW12>
15.292

> <Bond>
0.419

> <Angle>
4.543

> <Pdih>
13.996

> <Idih>
0.000

> <Tether>
0.000

$$$$
VeraChem MOL file


 25 25  0  0  0  0  0  0  0  0999 V2000     
   19.8500   17.3527   21.9490 C   0  0  0  0  0  0  0  0  0  0  0  0
   19.1426   16.7001   22.4785 H   0  0  0  0  0  0  0  0  0  0  0  0
   20.1588   16.7917   21.0563 H   0  0  0  0  0  0  0  0  0  0  0  0
   21.1059   17.5561   22.8359 C   0  0  0  0  0  0  0  0  0  0  0  0
   20.8203   17.6926   23.8850 H   0  0  0  0  0  0  0  0  0  0  0  0
   21.6634   16.6095   22.8264 H   0  0  0  0  0  0  0  0  0  0  0  0
   22.0670   18.6854   22.3821 C   0  0  0  0  0  0  0  0  0  0  0  0
   21.9753   18.8723   21.3044 H   0  0  0  0  0  0  0  0  0  0  0  0
   23.0939   18.3216   22.5236 H   0  0  0  0  0  0  0  0  0  0  0  0
   21.9414   20.0098   23.1836 C   0  0  0  0  0  0  0  0  0  0  0  0
   22.0771   19.8034   24.2533 H   0  0  0  0  0  0  0  0  0  0  0  0
   22.7855   20.6508   22.8965 H   0  0  0  0  0  0  0  0  0  0  0  0
   20.6416   20.8282   22.9834 C   0  0  0  0  0  0  0  0  0  0  0  0
   20.4905   21.0054   21.9101 H   0  0  0  0  0  0  0  0  0  0  0  0
   19.3770   20.1662   23.5894 C   0  0  0  0  0  0  0  0  0  0  0  0
   19.6623   19.4539   24.3701 H   0  0  0  0  0  0  0  0  0  0  0  0
   18.7836   20.9247   24.1171 H   0  0  0  0  0  0  0  0  0  0  0  0
   18.4371   19.4852   22.5609 C   0  0  0  0  0  0  0  0  0  0  0  0
   17.8603   20.2730   22.0573 H   0  0  0  0  0  0  0  0  0  0  0  0
   17.7000   18.8756   23.1008 H   0  0  0  0  0  0  0  0  0  0  0  0
   19.1079   18.6227   21.4622 C   0  0  0  0  0  0  0  0  0  0  0  0
   19.7705   19.2364   20.8415 H   0  0  0  0  0  0  0  0  0  0  0  0
   18.3146   18.2938   20.7772 H   0  0  0  0  0  0  0  0  0  0  0  0
   20.8322   22.0873   23.6177 O   0  0  0  0  0  0  0  0  0  0  0  0
   20.0333   22.6217   23.4265 H   0  0  0  0  0  0  0  0  0  0  0  0
  1  2  1  0  0  0  0
  1  3  1  0  0  0  0
  1  4  1  0  0  0  0
  4  5  1  0  0  0  0
  4  6  1  0  0  0  0
  4  7  1  0  0  0  0
  7  8  1  0  0  0  0
  7  9  1  0  0  0  0
  7 10  1  0  0  0  0
 10 11  1  0  0  0  0
 10 12  1  0  0  0  0
 10 13  1  0  0  0  0
 13 14  1  0  0  0  0
 13 15  1  0  0  0  0
 15 16  1  0  0  0  0
 15 17  1  0  0  0  0
 15 18  1  0  0  0  0
 18 19  1  0  0  0  0
 18 20  1  0  0  0  0
  1 21  1  0  0  0  0
 18 21  1  0  0  0  0
 21 22  1  0  0  0  0
 21 23  1  0  0  0  0
 13 24  1  0  0  0  0
 24 25  1  0  0  0  0
M  END
> <VConfSearch Rank>
522

> <Conf_Id>
60

> <Delta U+W>
-1.838

> <U+W>
9.075

> <U>
11.150

> <W>
-2.074

> <W(PB)>
-4.196

> <W(SA)>
2.121

> <Valence>
16.582

> <Coulomb>
-8.361

> <VdW>
2.928

> <VdW6>
-12.539

> <VdW12>
15.467

> <Bond>
0.441

> <Angle>
5.093

> <Pdih>
11.049

> <Idih>
0.000

> <Tether>
0.000

$$$$
VeraChem MOL file


 25 25  0  0  0  0  0  0  0  0999 V2000     
   20.1285   18.6672   20.6679 C   0  0  0  0  0  0  0  0  0  0  0  0
   19.3068   18.0249   20.3234 H   0  0  0  0  0  0  0  0  0  0  0  0
   20.7317   18.8805   19.7748 H   0  0  0  0  0  0  0  0  0  0  0  0
   21.0235   17.8699   21.6498 C   0  0  0  0  0  0  0  0  0  0  0  0
   21.4250   17.0089   21.0983 H   0  0  0  0  0  0  0  0  0  0  0  0
   21.9070   18.4582   21.9229 H   0  0  0  0  0  0  0  0  0  0  0  0
   20.3236   17.3175   22.9170 C   0  0  0  0  0  0  0  0  0  0  0  0
   21.0492   16.6853   23.4470 H   0  0  0  0  0  0  0  0  0  0  0  0
   19.5074   16.6465   22.6171 H   0  0  0  0  0  0  0  0  0  0  0  0
   19.7735   18.3596   23.9251 C   0  0  0  0  0  0  0  0  0  0  0  0
   18.7999   18.7316   23.5907 H   0  0  0  0  0  0  0  0  0  0  0  0
   19.5537   17.8228   24.8576 H   0  0  0  0  0  0  0  0  0  0  0  0
   20.7244   19.5475   24.2239 C   0  0  0  0  0  0  0  0  0  0  0  0
   21.7525   19.2801   23.9452 H   0  0  0  0  0  0  0  0  0  0  0  0
   20.3329   20.8658   23.5110 C   0  0  0  0  0  0  0  0  0  0  0  0
   19.2943   21.1176   23.7623 H   0  0  0  0  0  0  0  0  0  0  0  0
   20.9446   21.6704   23.9401 H   0  0  0  0  0  0  0  0  0  0  0  0
   20.5166   20.9109   21.9694 C   0  0  0  0  0  0  0  0  0  0  0  0
   21.5588   20.7020   21.6953 H   0  0  0  0  0  0  0  0  0  0  0  0
   20.3404   21.9490   21.6562 H   0  0  0  0  0  0  0  0  0  0  0  0
   19.5388   20.0107   21.1705 C   0  0  0  0  0  0  0  0  0  0  0  0
   19.2085   20.5689   20.2838 H   0  0  0  0  0  0  0  0  0  0  0  0
   18.6195   19.8396   21.7419 H   0  0  0  0  0  0  0  0  0  0  0  0
   20.6962   19.7990   25.6240 O   0  0  0  0  0  0  0  0  0  0  0  0
   21.0116   18.9812   26.0625 H   0  0  0  0  0  0  0  0  0  0  0  0
  1  2  1  0  0  0  0
  1  3  1  0  0  0  0
  1  4  1  0  0  0  0
  4  5  1  0  0  0  0
  4  6  1  0  0  0  0
  4  7  1  0  0  0  0
  7  8  1  0  0  0  0
  7  9  1  0  0  0  0
  7 10  1  0  0  0  0
 10 11  1  0  0  0  0
 10 12  1  0  0  0  0
 10 13  1  0  0  0  0
 13 14  1  0  0  0  0
 13 15  1  0  0  0  0
 15 16  1  0  0  0  0
 15 17  1  0  0  0  0
 15 18  1  0  0  0  0
 18 19  1  0  0  0  0
 18 20  1  0  0  0  0
  1 21  1  0  0  0  0
 18 21  1  0  0  0  0
 21 22  1  0  0  0  0
 21 23  1  0  0  0  0
 13 24  1  0  0  0  0
 24 25  1  0  0  0  0
M  END
> <VConfSearch Rank>
523

> <Conf_Id>
129

> <Delta U+W>
-1.846

> <U+W>
9.067

> <U>
11.150

> <W>
-2.083

> <W(PB)>
-4.217

> <W(SA)>
2.134

> <Valence>
16.583

> <Coulomb>
-8.361

> <VdW>
2.928

> <VdW6>
-12.539

> <VdW12>
15.467

> <Bond>
0.441

> <Angle>
5.093

> <Pdih>
11.049

> <Idih>
0.000

> <Tether>
0.000

$$$$
VeraChem MOL file


 25 25  0  0  0  0  0  0  0  0999 V2000     
   21.9147   19.9121   23.6707 C   0  0  0  0  0  0  0  0  0  0  0  0
   21.9772   20.9600   23.9940 H   0  0  0  0  0  0  0  0  0  0  0  0
   22.8442   19.4396   24.0165 H   0  0  0  0  0  0  0  0  0  0  0  0
   21.9147   19.8536   22.1226 C   0  0  0  0  0  0  0  0  0  0  0  0
   22.8598   20.2967   21.7800 H   0  0  0  0  0  0  0  0  0  0  0  0
   21.9584   18.8134   21.7802 H   0  0  0  0  0  0  0  0  0  0  0  0
   20.7670   20.6126   21.4107 C   0  0  0  0  0  0  0  0  0  0  0  0
   20.9674   20.5774   20.3310 H   0  0  0  0  0  0  0  0  0  0  0  0
   20.8083   21.6750   21.6866 H   0  0  0  0  0  0  0  0  0  0  0  0
   19.3263   20.0876   21.6429 C   0  0  0  0  0  0  0  0  0  0  0  0
   18.9342   20.4677   22.5918 H   0  0  0  0  0  0  0  0  0  0  0  0
   18.6903   20.5493   20.8755 H   0  0  0  0  0  0  0  0  0  0  0  0
   19.1706   18.5462   21.5760 C   0  0  0  0  0  0  0  0  0  0  0  0
   20.0195   18.1118   21.0313 H   0  0  0  0  0  0  0  0  0  0  0  0
   19.0452   17.8582   22.9587 C   0  0  0  0  0  0  0  0  0  0  0  0
   18.2163   18.3109   23.5184 H   0  0  0  0  0  0  0  0  0  0  0  0
   18.7529   16.8137   22.7862 H   0  0  0  0  0  0  0  0  0  0  0  0
   20.3152   17.8431   23.8521 C   0  0  0  0  0  0  0  0  0  0  0  0
   21.1508   17.3561   23.3331 H   0  0  0  0  0  0  0  0  0  0  0  0
   20.0950   17.1948   24.7113 H   0  0  0  0  0  0  0  0  0  0  0  0
   20.7348   19.2282   24.4087 C   0  0  0  0  0  0  0  0  0  0  0  0
   21.0422   19.0967   25.4553 H   0  0  0  0  0  0  0  0  0  0  0  0
   19.8706   19.9000   24.4613 H   0  0  0  0  0  0  0  0  0  0  0  0
   17.9852   18.2505   20.8484 O   0  0  0  0  0  0  0  0  0  0  0  0
   17.2447   18.6433   21.3547 H   0  0  0  0  0  0  0  0  0  0  0  0
  1  2  1  0  0  0  0
  1  3  1  0  0  0  0
  1  4  1  0  0  0  0
  4  5  1  0  0  0  0
  4  6  1  0  0  0  0
  4  7  1  0  0  0  0
  7  8  1  0  0  0  0
  7  9  1  0  0  0  0
  7 10  1  0  0  0  0
 10 11  1  0  0  0  0
 10 12  1  0  0  0  0
 10 13  1  0  0  0  0
 13 14  1  0  0  0  0
 13 15  1  0  0  0  0
 15 16  1  0  0  0  0
 15 17  1  0  0  0  0
 15 18  1  0  0  0  0
 18 19  1  0  0  0  0
 18 20  1  0  0  0  0
  1 21  1  0  0  0  0
 18 21  1  0  0  0  0
 21 22  1  0  0  0  0
 21 23  1  0  0  0  0
 13 24  1  0  0  0  0
 24 25  1  0  0  0  0
M  END
> <VConfSearch Rank>
524

> <Conf_Id>
140

> <Delta U+W>
-1.702

> <U+W>
9.211

> <U>
11.181

> <W>
-1.969

> <W(PB)>
-4.093

> <W(SA)>
2.124

> <Valence>
16.954

> <Coulomb>
-8.661

> <VdW>
2.887

> <VdW6>
-12.561

> <VdW12>
15.448

> <Bond>
0.433

> <Angle>
5.120

> <Pdih>
11.401

> <Idih>
0.000

> <Tether>
0.000

$$$$
VeraChem MOL file


 25 25  0  0  0  0  0  0  0  0999 V2000     
   20.7848   17.2323   23.1097 C   0  0  0  0  0  0  0  0  0  0  0  0
   20.2012   16.6570   23.8411 H   0  0  0  0  0  0  0  0  0  0  0  0
   21.5852   16.5589   22.7741 H   0  0  0  0  0  0  0  0  0  0  0  0
   21.4498   18.4334   23.8307 C   0  0  0  0  0  0  0  0  0  0  0  0
   20.7545   18.8880   24.5454 H   0  0  0  0  0  0  0  0  0  0  0  0
   22.2568   18.0273   24.4558 H   0  0  0  0  0  0  0  0  0  0  0  0
   22.0584   19.5140   22.8999 C   0  0  0  0  0  0  0  0  0  0  0  0
   22.3257   19.0896   21.9236 H   0  0  0  0  0  0  0  0  0  0  0  0
   23.0113   19.8334   23.3438 H   0  0  0  0  0  0  0  0  0  0  0  0
   21.1891   20.7889   22.7274 C   0  0  0  0  0  0  0  0  0  0  0  0
   20.9740   21.2149   23.7160 H   0  0  0  0  0  0  0  0  0  0  0  0
   21.8029   21.5369   22.2078 H   0  0  0  0  0  0  0  0  0  0  0  0
   19.8671   20.6323   21.9344 C   0  0  0  0  0  0  0  0  0  0  0  0
   20.0824   20.1779   20.9581 H   0  0  0  0  0  0  0  0  0  0  0  0
   18.7787   19.8057   22.6670 C   0  0  0  0  0  0  0  0  0  0  0  0
   18.9629   19.8077   23.7461 H   0  0  0  0  0  0  0  0  0  0  0  0
   17.8066   20.3039   22.5509 H   0  0  0  0  0  0  0  0  0  0  0  0
   18.6042   18.3516   22.1567 C   0  0  0  0  0  0  0  0  0  0  0  0
   18.0315   18.3907   21.2199 H   0  0  0  0  0  0  0  0  0  0  0  0
   17.9758   17.7973   22.8669 H   0  0  0  0  0  0  0  0  0  0  0  0
   19.8972   17.5445   21.8789 C   0  0  0  0  0  0  0  0  0  0  0  0
   20.4903   18.0267   21.0935 H   0  0  0  0  0  0  0  0  0  0  0  0
   19.5934   16.5825   21.4441 H   0  0  0  0  0  0  0  0  0  0  0  0
   19.3543   21.9389   21.7063 O   0  0  0  0  0  0  0  0  0  0  0  0
   19.1747   22.3235   22.5888 H   0  0  0  0  0  0  0  0  0  0  0  0
  1  2  1  0  0  0  0
  1  3  1  0  0  0  0
  1  4  1  0  0  0  0
  4  5  1  0  0  0  0
  4  6  1  0  0  0  0
  4  7  1  0  0  0  0
  7  8  1  0  0  0  0
  7  9  1  0  0  0  0
  7 10  1  0  0  0  0
 10 11  1  0  0  0  0
 10 12  1  0  0  0  0
 10 13  1  0  0  0  0
 13 14  1  0  0  0  0
 13 15  1  0  0  0  0
 15 16  1  0  0  0  0
 15 17  1  0  0  0  0
 15 18  1  0  0  0  0
 18 19  1  0  0  0  0
 18 20  1  0  0  0  0
  1 21  1  0  0  0  0
 18 21  1  0  0  0  0
 21 22  1  0  0  0  0
 21 23  1  0  0  0  0
 13 24  1  0  0  0  0
 24 25  1  0  0  0  0
M  END
> <VConfSearch Rank>
525

> <Conf_Id>
68

> <Delta U+W>
-1.765

> <U+W>
9.148

> <U>
11.181

> <W>
-2.032

> <W(PB)>
-4.147

> <W(SA)>
2.114

> <Valence>
16.955

> <Coulomb>
-8.661

> <VdW>
2.887

> <VdW6>
-12.561

> <VdW12>
15.448

> <Bond>
0.433

> <Angle>
5.121

> <Pdih>
11.402

> <Idih>
0.000

> <Tether>
0.000

$$$$
VeraChem MOL file


 25 25  0  0  0  0  0  0  0  0999 V2000     
   21.2575   20.1202   23.9203 C   0  0  0  0  0  0  0  0  0  0  0  0
   21.8728   20.7497   24.5776 H   0  0  0  0  0  0  0  0  0  0  0  0
   21.2244   19.1494   24.4277 H   0  0  0  0  0  0  0  0  0  0  0  0
   21.9826   19.9976   22.5549 C   0  0  0  0  0  0  0  0  0  0  0  0
   21.6115   20.7443   21.8413 H   0  0  0  0  0  0  0  0  0  0  0  0
   23.0377   20.2573   22.7171 H   0  0  0  0  0  0  0  0  0  0  0  0
   21.9574   18.5782   21.9294 C   0  0  0  0  0  0  0  0  0  0  0  0
   22.3774   17.8574   22.6443 H   0  0  0  0  0  0  0  0  0  0  0  0
   22.6458   18.5786   21.0732 H   0  0  0  0  0  0  0  0  0  0  0  0
   20.5821   18.0617   21.4290 C   0  0  0  0  0  0  0  0  0  0  0  0
   20.1601   18.7542   20.6908 H   0  0  0  0  0  0  0  0  0  0  0  0
   20.7757   17.1330   20.8753 H   0  0  0  0  0  0  0  0  0  0  0  0
   19.5594   17.7617   22.5555 C   0  0  0  0  0  0  0  0  0  0  0  0
   20.0973   17.6360   23.5023 H   0  0  0  0  0  0  0  0  0  0  0  0
   18.4587   18.8360   22.7355 C   0  0  0  0  0  0  0  0  0  0  0  0
   17.7146   18.7095   21.9381 H   0  0  0  0  0  0  0  0  0  0  0  0
   17.9288   18.6349   23.6756 H   0  0  0  0  0  0  0  0  0  0  0  0
   18.9079   20.3199   22.7178 C   0  0  0  0  0  0  0  0  0  0  0  0
   18.0011   20.9368   22.7804 H   0  0  0  0  0  0  0  0  0  0  0  0
   19.3493   20.5754   21.7476 H   0  0  0  0  0  0  0  0  0  0  0  0
   19.8462   20.7611   23.8689 C   0  0  0  0  0  0  0  0  0  0  0  0
   19.3438   20.5946   24.8314 H   0  0  0  0  0  0  0  0  0  0  0  0
   19.9759   21.8490   23.7871 H   0  0  0  0  0  0  0  0  0  0  0  0
   18.9109   16.5304   22.2623 O   0  0  0  0  0  0  0  0  0  0  0  0
   18.4516   16.6561   21.4066 H   0  0  0  0  0  0  0  0  0  0  0  0
  1  2  1  0  0  0  0
  1  3  1  0  0  0  0
  1  4  1  0  0  0  0
  4  5  1  0  0  0  0
  4  6  1  0  0  0  0
  4  7  1  0  0  0  0
  7  8  1  0  0  0  0
  7  9  1  0  0  0  0
  7 10  1  0  0  0  0
 10 11  1  0  0  0  0
 10 12  1  0  0  0  0
 10 13  1  0  0  0  0
 13 14  1  0  0  0  0
 13 15  1  0  0  0  0
 15 16  1  0  0  0  0
 15 17  1  0  0  0  0
 15 18  1  0  0  0  0
 18 19  1  0  0  0  0
 18 20  1  0  0  0  0
  1 21  1  0  0  0  0
 18 21  1  0  0  0  0
 21 22  1  0  0  0  0
 21 23  1  0  0  0  0
 13 24  1  0  0  0  0
 24 25  1  0  0  0  0
M  END
> <VConfSearch Rank>
526

> <Conf_Id>
165

> <Delta U+W>
-1.999

> <U+W>
8.915

> <U>
10.935

> <W>
-2.020

> <W(PB)>
-4.135

> <W(SA)>
2.115

> <Valence>
16.757

> <Coulomb>
-8.731

> <VdW>
2.908

> <VdW6>
-12.597

> <VdW12>
15.506

> <Bond>
0.434

> <Angle>
5.069

> <Pdih>
11.254

> <Idih>
0.000

> <Tether>
0.000

$$$$
VeraChem MOL file


 25 25  0  0  0  0  0  0  0  0999 V2000     
   22.1153   18.9634   22.8965 C   0  0  0  0  0  0  0  0  0  0  0  0
   23.1779   18.7704   23.0982 H   0  0  0  0  0  0  0  0  0  0  0  0
   22.1222   19.6584   22.0493 H   0  0  0  0  0  0  0  0  0  0  0  0
   21.5297   19.6442   24.1610 C   0  0  0  0  0  0  0  0  0  0  0  0
   21.9395   19.1265   25.0391 H   0  0  0  0  0  0  0  0  0  0  0  0
   21.9095   20.6732   24.2204 H   0  0  0  0  0  0  0  0  0  0  0  0
   19.9878   19.6570   24.3109 C   0  0  0  0  0  0  0  0  0  0  0  0
   19.7582   20.0847   25.2964 H   0  0  0  0  0  0  0  0  0  0  0  0
   19.6011   18.6326   24.3576 H   0  0  0  0  0  0  0  0  0  0  0  0
   19.2074   20.4833   23.2563 C   0  0  0  0  0  0  0  0  0  0  0  0
   18.1508   20.4855   23.5565 H   0  0  0  0  0  0  0  0  0  0  0  0
   19.5391   21.5283   23.3084 H   0  0  0  0  0  0  0  0  0  0  0  0
   19.2908   20.0097   21.7844 C   0  0  0  0  0  0  0  0  0  0  0  0
   20.2518   20.3208   21.3582 H   0  0  0  0  0  0  0  0  0  0  0  0
   19.1240   18.4808   21.5870 C   0  0  0  0  0  0  0  0  0  0  0  0
   18.5896   18.0339   22.4337 H   0  0  0  0  0  0  0  0  0  0  0  0
   18.4738   18.3123   20.7179 H   0  0  0  0  0  0  0  0  0  0  0  0
   20.4477   17.7173   21.3154 C   0  0  0  0  0  0  0  0  0  0  0  0
   20.9504   18.1610   20.4451 H   0  0  0  0  0  0  0  0  0  0  0  0
   20.1870   16.6935   21.0143 H   0  0  0  0  0  0  0  0  0  0  0  0
   21.4506   17.6208   22.4951 C   0  0  0  0  0  0  0  0  0  0  0  0
   22.2510   16.9375   22.1798 H   0  0  0  0  0  0  0  0  0  0  0  0
   20.9857   17.1347   23.3624 H   0  0  0  0  0  0  0  0  0  0  0  0
   18.2584   20.6736   21.0641 O   0  0  0  0  0  0  0  0  0  0  0  0
   18.4144   21.6354   21.1693 H   0  0  0  0  0  0  0  0  0  0  0  0
  1  2  1  0  0  0  0
  1  3  1  0  0  0  0
  1  4  1  0  0  0  0
  4  5  1  0  0  0  0
  4  6  1  0  0  0  0
  4  7  1  0  0  0  0
  7  8  1  0  0  0  0
  7  9  1  0  0  0  0
  7 10  1  0  0  0  0
 10 11  1  0  0  0  0
 10 12  1  0  0  0  0
 10 13  1  0  0  0  0
 13 14  1  0  0  0  0
 13 15  1  0  0  0  0
 15 16  1  0  0  0  0
 15 17  1  0  0  0  0
 15 18  1  0  0  0  0
 18 19  1  0  0  0  0
 18 20  1  0  0  0  0
  1 21  1  0  0  0  0
 18 21  1  0  0  0  0
 21 22  1  0  0  0  0
 21 23  1  0  0  0  0
 13 24  1  0  0  0  0
 24 25  1  0  0  0  0
M  END
> <VConfSearch Rank>
527

> <Conf_Id>
133

> <Delta U+W>
-2.139

> <U+W>
8.774

> <U>
10.905

> <W>
-2.131

> <W(PB)>
-4.281

> <W(SA)>
2.150

> <Valence>
16.378

> <Coulomb>
-8.448

> <VdW>
2.976

> <VdW6>
-12.570

> <VdW12>
15.545

> <Bond>
0.439

> <Angle>
5.049

> <Pdih>
10.889

> <Idih>
0.000

> <Tether>
0.000

$$$$
VeraChem MOL file


 25 25  0  0  0  0  0  0  0  0999 V2000     
   19.3853   18.3144   21.3549 C   0  0  0  0  0  0  0  0  0  0  0  0
   18.7942   17.8367   20.5616 H   0  0  0  0  0  0  0  0  0  0  0  0
   19.9957   17.5018   21.7647 H   0  0  0  0  0  0  0  0  0  0  0  0
   18.4035   18.8533   22.4278 C   0  0  0  0  0  0  0  0  0  0  0  0
   18.1664   19.9104   22.2517 H   0  0  0  0  0  0  0  0  0  0  0  0
   17.4505   18.3218   22.2998 H   0  0  0  0  0  0  0  0  0  0  0  0
   18.8536   18.6274   23.8952 C   0  0  0  0  0  0  0  0  0  0  0  0
   19.0367   17.5567   24.0595 H   0  0  0  0  0  0  0  0  0  0  0  0
   18.0078   18.8848   24.5472 H   0  0  0  0  0  0  0  0  0  0  0  0
   20.0857   19.4382   24.3786 C   0  0  0  0  0  0  0  0  0  0  0  0
   19.9115   20.5133   24.2526 H   0  0  0  0  0  0  0  0  0  0  0  0
   20.1623   19.2865   25.4638 H   0  0  0  0  0  0  0  0  0  0  0  0
   21.4293   19.0169   23.7293 C   0  0  0  0  0  0  0  0  0  0  0  0
   21.3227   18.0083   23.3131 H   0  0  0  0  0  0  0  0  0  0  0  0
   21.9405   19.9741   22.6247 C   0  0  0  0  0  0  0  0  0  0  0  0
   22.3687   20.8611   23.1108 H   0  0  0  0  0  0  0  0  0  0  0  0
   22.7704   19.4885   22.0955 H   0  0  0  0  0  0  0  0  0  0  0  0
   20.9045   20.4704   21.5833 C   0  0  0  0  0  0  0  0  0  0  0  0
   21.4169   21.1893   20.9295 H   0  0  0  0  0  0  0  0  0  0  0  0
   20.1180   21.0551   22.0740 H   0  0  0  0  0  0  0  0  0  0  0  0
   20.2791   19.3833   20.6737 C   0  0  0  0  0  0  0  0  0  0  0  0
   21.0755   18.8768   20.1118 H   0  0  0  0  0  0  0  0  0  0  0  0
   19.6678   19.8990   19.9204 H   0  0  0  0  0  0  0  0  0  0  0  0
   22.4257   18.9671   24.7444 O   0  0  0  0  0  0  0  0  0  0  0  0
   23.2501   18.6558   24.3156 H   0  0  0  0  0  0  0  0  0  0  0  0
  1  2  1  0  0  0  0
  1  3  1  0  0  0  0
  1  4  1  0  0  0  0
  4  5  1  0  0  0  0
  4  6  1  0  0  0  0
  4  7  1  0  0  0  0
  7  8  1  0  0  0  0
  7  9  1  0  0  0  0
  7 10  1  0  0  0  0
 10 11  1  0  0  0  0
 10 12  1  0  0  0  0
 10 13  1  0  0  0  0
 13 14  1  0  0  0  0
 13 15  1  0  0  0  0
 15 16  1  0  0  0  0
 15 17  1  0  0  0  0
 15 18  1  0  0  0  0
 18 19  1  0  0  0  0
 18 20  1  0  0  0  0
  1 21  1  0  0  0  0
 18 21  1  0  0  0  0
 21 22  1  0  0  0  0
 21 23  1  0  0  0  0
 13 24  1  0  0  0  0
 24 25  1  0  0  0  0
M  END
> <VConfSearch Rank>
528

> <Conf_Id>
95

> <Delta U+W>
-2.190

> <U+W>
8.723

> <U>
10.905

> <W>
-2.182

> <W(PB)>
-4.296

> <W(SA)>
2.114

> <Valence>
16.377

> <Coulomb>
-8.448

> <VdW>
2.976

> <VdW6>
-12.570

> <VdW12>
15.546

> <Bond>
0.439

> <Angle>
5.049

> <Pdih>
10.889

> <Idih>
0.000

> <Tether>
0.000

$$$$
VeraChem MOL file


 25 25  0  0  0  0  0  0  0  0999 V2000     
   19.3853   18.9416   24.2274 C   0  0  0  0  0  0  0  0  0  0  0  0
   18.9297   18.8611   25.2239 H   0  0  0  0  0  0  0  0  0  0  0  0
   18.8752   18.1630   23.6514 H   0  0  0  0  0  0  0  0  0  0  0  0
   20.8984   18.6128   24.3908 C   0  0  0  0  0  0  0  0  0  0  0  0
   21.2145   19.0013   25.3686 H   0  0  0  0  0  0  0  0  0  0  0  0
   21.0213   17.5233   24.4562 H   0  0  0  0  0  0  0  0  0  0  0  0
   21.8893   19.1781   23.3395 C   0  0  0  0  0  0  0  0  0  0  0  0
   22.9066   18.9460   23.6831 H   0  0  0  0  0  0  0  0  0  0  0  0
   21.8550   20.2718   23.3620 H   0  0  0  0  0  0  0  0  0  0  0  0
   21.7659   18.6489   21.8796 C   0  0  0  0  0  0  0  0  0  0  0  0
   22.2446   19.3666   21.2005 H   0  0  0  0  0  0  0  0  0  0  0  0
   22.3692   17.7338   21.8177 H   0  0  0  0  0  0  0  0  0  0  0  0
   20.3541   18.3057   21.3405 C   0  0  0  0  0  0  0  0  0  0  0  0
   19.9108   17.5557   22.0037 H   0  0  0  0  0  0  0  0  0  0  0  0
   19.3620   19.4902   21.1581 C   0  0  0  0  0  0  0  0  0  0  0  0
   19.5398   19.9303   20.1676 H   0  0  0  0  0  0  0  0  0  0  0  0
   18.3433   19.0838   21.1217 H   0  0  0  0  0  0  0  0  0  0  0  0
   19.4034   20.6558   22.1831 C   0  0  0  0  0  0  0  0  0  0  0  0
   18.7146   21.4344   21.8280 H   0  0  0  0  0  0  0  0  0  0  0  0
   20.3832   21.1417   22.1387 H   0  0  0  0  0  0  0  0  0  0  0  0
   19.0108   20.3341   23.6548 C   0  0  0  0  0  0  0  0  0  0  0  0
   17.9190   20.4287   23.7318 H   0  0  0  0  0  0  0  0  0  0  0  0
   19.4187   21.1156   24.3100 H   0  0  0  0  0  0  0  0  0  0  0  0
   20.5226   17.6954   20.0662 O   0  0  0  0  0  0  0  0  0  0  0  0
   21.0959   16.9124   20.2011 H   0  0  0  0  0  0  0  0  0  0  0  0
  1  2  1  0  0  0  0
  1  3  1  0  0  0  0
  1  4  1  0  0  0  0
  4  5  1  0  0  0  0
  4  6  1  0  0  0  0
  4  7  1  0  0  0  0
  7  8  1  0  0  0  0
  7  9  1  0  0  0  0
  7 10  1  0  0  0  0
 10 11  1  0  0  0  0
 10 12  1  0  0  0  0
 10 13  1  0  0  0  0
 13 14  1  0  0  0  0
 13 15  1  0  0  0  0
 15 16  1  0  0  0  0
 15 17  1  0  0  0  0
 15 18  1  0  0  0  0
 18 19  1  0  0  0  0
 18 20  1  0  0  0  0
  1 21  1  0  0  0  0
 18 21  1  0  0  0  0
 21 22  1  0  0  0  0
 21 23  1  0  0  0  0
 13 24  1  0  0  0  0
 24 25  1  0  0  0  0
M  END
> <VConfSearch Rank>
529

> <Conf_Id>
161

> <Delta U+W>
2.120

> <U+W>
13.033

> <U>
15.076

> <W>
-2.043

> <W(PB)>
-4.186

> <W(SA)>
2.143

> <Valence>
18.884

> <Coulomb>
-8.074

> <VdW>
4.266

> <VdW6>
-13.486

> <VdW12>
17.752

> <Bond>
0.713

> <Angle>
8.955

> <Pdih>
9.215

> <Idih>
0.000

> <Tether>
0.000

$$$$
VeraChem MOL file


 25 25  0  0  0  0  0  0  0  0999 V2000     
   20.3869   21.0075   23.4422 C   0  0  0  0  0  0  0  0  0  0  0  0
   20.2972   21.8895   24.0910 H   0  0  0  0  0  0  0  0  0  0  0  0
   20.7122   21.4056   22.4727 H   0  0  0  0  0  0  0  0  0  0  0  0
   18.9822   20.3685   23.3066 C   0  0  0  0  0  0  0  0  0  0  0  0
   18.7909   19.6678   24.1304 H   0  0  0  0  0  0  0  0  0  0  0  0
   18.2506   21.1776   23.4380 H   0  0  0  0  0  0  0  0  0  0  0  0
   18.6843   19.7123   21.9296 C   0  0  0  0  0  0  0  0  0  0  0  0
   19.1296   20.2917   21.1097 H   0  0  0  0  0  0  0  0  0  0  0  0
   17.5985   19.7784   21.7752 H   0  0  0  0  0  0  0  0  0  0  0  0
   19.0632   18.2131   21.8143 C   0  0  0  0  0  0  0  0  0  0  0  0
   18.9094   17.7150   22.7793 H   0  0  0  0  0  0  0  0  0  0  0  0
   18.3440   17.7389   21.1335 H   0  0  0  0  0  0  0  0  0  0  0  0
   20.4731   17.9044   21.2497 C   0  0  0  0  0  0  0  0  0  0  0  0
   20.4726   18.1627   20.1810 H   0  0  0  0  0  0  0  0  0  0  0  0
   21.6564   18.6524   21.9064 C   0  0  0  0  0  0  0  0  0  0  0  0
   22.5897   18.1766   21.5768 H   0  0  0  0  0  0  0  0  0  0  0  0
   21.7078   19.6667   21.4961 H   0  0  0  0  0  0  0  0  0  0  0  0
   21.6306   18.6828   23.4580 C   0  0  0  0  0  0  0  0  0  0  0  0
   22.5647   18.2447   23.8355 H   0  0  0  0  0  0  0  0  0  0  0  0
   20.8373   18.0392   23.8549 H   0  0  0  0  0  0  0  0  0  0  0  0
   21.4861   20.1018   24.0580 C   0  0  0  0  0  0  0  0  0  0  0  0
   22.4489   20.6230   23.9672 H   0  0  0  0  0  0  0  0  0  0  0  0
   21.3010   20.0022   25.1362 H   0  0  0  0  0  0  0  0  0  0  0  0
   20.7025   16.5087   21.3828 O   0  0  0  0  0  0  0  0  0  0  0  0
   20.8334   16.3487   22.3394 H   0  0  0  0  0  0  0  0  0  0  0  0
  1  2  1  0  0  0  0
  1  3  1  0  0  0  0
  1  4  1  0  0  0  0
  4  5  1  0  0  0  0
  4  6  1  0  0  0  0
  4  7  1  0  0  0  0
  7  8  1  0  0  0  0
  7  9  1  0  0  0  0
  7 10  1  0  0  0  0
 10 11  1  0  0  0  0
 10 12  1  0  0  0  0
 10 13  1  0  0  0  0
 13 14  1  0  0  0  0
 13 15  1  0  0  0  0
 15 16  1  0  0  0  0
 15 17  1  0  0  0  0
 15 18  1  0  0  0  0
 18 19  1  0  0  0  0
 18 20  1  0  0  0  0
  1 21  1  0  0  0  0
 18 21  1  0  0  0  0
 21 22  1  0  0  0  0
 21 23  1  0  0  0  0
 13 24  1  0  0  0  0
 24 25  1  0  0  0  0
M  END
> <VConfSearch Rank>
530

> <Conf_Id>
164

> <Delta U+W>
0.008

> <U+W>
10.922

> <U>
12.433

> <W>
-1.511

> <W(PB)>
-3.669

> <W(SA)>
2.157

> <Valence>
19.007

> <Coulomb>
-9.373

> <VdW>
2.799

> <VdW6>
-12.597

> <VdW12>
15.396

> <Bond>
0.425

> <Angle>
4.784

> <Pdih>
13.799

> <Idih>
0.000

> <Tether>
0.000

$$$$
VeraChem MOL file


 25 25  0  0  0  0  0  0  0  0999 V2000     
   22.0790   19.5735   22.4039 C   0  0  0  0  0  0  0  0  0  0  0  0
   22.0503   18.5968   22.8999 H   0  0  0  0  0  0  0  0  0  0  0  0
   23.1487   19.7829   22.2678 H   0  0  0  0  0  0  0  0  0  0  0  0
   21.5109   20.6711   23.3378 C   0  0  0  0  0  0  0  0  0  0  0  0
   22.1341   20.6880   24.2424 H   0  0  0  0  0  0  0  0  0  0  0  0
   21.6455   21.6540   22.8664 H   0  0  0  0  0  0  0  0  0  0  0  0
   20.0334   20.5250   23.7832 C   0  0  0  0  0  0  0  0  0  0  0  0
   19.3590   20.9225   23.0163 H   0  0  0  0  0  0  0  0  0  0  0  0
   19.8884   21.1883   24.6469 H   0  0  0  0  0  0  0  0  0  0  0  0
   19.6042   19.0916   24.1955 C   0  0  0  0  0  0  0  0  0  0  0  0
   20.4694   18.5006   24.5196 H   0  0  0  0  0  0  0  0  0  0  0  0
   18.9670   19.1851   25.0852 H   0  0  0  0  0  0  0  0  0  0  0  0
   18.7822   18.3251   23.1291 C   0  0  0  0  0  0  0  0  0  0  0  0
   17.9325   18.9566   22.8327 H   0  0  0  0  0  0  0  0  0  0  0  0
   19.5385   17.9000   21.8455 C   0  0  0  0  0  0  0  0  0  0  0  0
   20.4015   17.2698   22.0922 H   0  0  0  0  0  0  0  0  0  0  0  0
   18.8604   17.2524   21.2735 H   0  0  0  0  0  0  0  0  0  0  0  0
   19.9531   19.0701   20.9140 C   0  0  0  0  0  0  0  0  0  0  0  0
   19.3047   19.9387   21.0760 H   0  0  0  0  0  0  0  0  0  0  0  0
   19.7549   18.7692   19.8762 H   0  0  0  0  0  0  0  0  0  0  0  0
   21.4453   19.4823   20.9933 C   0  0  0  0  0  0  0  0  0  0  0  0
   21.5785   20.4404   20.4730 H   0  0  0  0  0  0  0  0  0  0  0  0
   22.0271   18.7489   20.4183 H   0  0  0  0  0  0  0  0  0  0  0  0
   18.2755   17.1468   23.7408 O   0  0  0  0  0  0  0  0  0  0  0  0
   19.0544   16.6091   23.9918 H   0  0  0  0  0  0  0  0  0  0  0  0
  1  2  1  0  0  0  0
  1  3  1  0  0  0  0
  1  4  1  0  0  0  0
  4  5  1  0  0  0  0
  4  6  1  0  0  0  0
  4  7  1  0  0  0  0
  7  8  1  0  0  0  0
  7  9  1  0  0  0  0
  7 10  1  0  0  0  0
 10 11  1  0  0  0  0
 10 12  1  0  0  0  0
 10 13  1  0  0  0  0
 13 14  1  0  0  0  0
 13 15  1  0  0  0  0
 15 16  1  0  0  0  0
 15 17  1  0  0  0  0
 15 18  1  0  0  0  0
 18 19  1  0  0  0  0
 18 20  1  0  0  0  0
  1 21  1  0  0  0  0
 18 21  1  0  0  0  0
 21 22  1  0  0  0  0
 21 23  1  0  0  0  0
 13 24  1  0  0  0  0
 24 25  1  0  0  0  0
M  END
> <VConfSearch Rank>
531

> <Conf_Id>
15

> <Delta U+W>
-1.271

> <U+W>
9.643

> <U>
11.413

> <W>
-1.770

> <W(PB)>
-3.908

> <W(SA)>
2.138

> <Valence>
17.496

> <Coulomb>
-8.736

> <VdW>
2.653

> <VdW6>
-12.485

> <VdW12>
15.138

> <Bond>
0.414

> <Angle>
5.295

> <Pdih>
11.787

> <Idih>
0.000

> <Tether>
0.000

$$$$
VeraChem MOL file


 25 25  0  0  0  0  0  0  0  0999 V2000     
   18.9223   20.2710   23.4018 C   0  0  0  0  0  0  0  0  0  0  0  0
   18.0102   20.8229   23.6674 H   0  0  0  0  0  0  0  0  0  0  0  0
   19.7320   20.8064   23.9135 H   0  0  0  0  0  0  0  0  0  0  0  0
   18.7672   18.8374   23.9741 C   0  0  0  0  0  0  0  0  0  0  0  0
   18.7723   18.9057   25.0705 H   0  0  0  0  0  0  0  0  0  0  0  0
   17.7746   18.4523   23.7037 H   0  0  0  0  0  0  0  0  0  0  0  0
   19.8268   17.7972   23.5374 C   0  0  0  0  0  0  0  0  0  0  0  0
   19.5942   17.4383   22.5281 H   0  0  0  0  0  0  0  0  0  0  0  0
   19.7215   16.9129   24.1807 H   0  0  0  0  0  0  0  0  0  0  0  0
   21.2891   18.3064   23.6256 C   0  0  0  0  0  0  0  0  0  0  0  0
   21.3362   19.2738   24.1378 H   0  0  0  0  0  0  0  0  0  0  0  0
   21.8574   17.6199   24.2666 H   0  0  0  0  0  0  0  0  0  0  0  0
   22.0221   18.3895   22.2669 C   0  0  0  0  0  0  0  0  0  0  0  0
   22.2600   17.3626   21.9543 H   0  0  0  0  0  0  0  0  0  0  0  0
   21.2458   19.0531   21.1000 C   0  0  0  0  0  0  0  0  0  0  0  0
   21.9583   19.1839   20.2745 H   0  0  0  0  0  0  0  0  0  0  0  0
   20.4952   18.3577   20.7055 H   0  0  0  0  0  0  0  0  0  0  0  0
   20.5862   20.4286   21.3863 C   0  0  0  0  0  0  0  0  0  0  0  0
   20.5873   20.9834   20.4380 H   0  0  0  0  0  0  0  0  0  0  0  0
   21.1994   21.0278   22.0717 H   0  0  0  0  0  0  0  0  0  0  0  0
   19.1102   20.3683   21.8676 C   0  0  0  0  0  0  0  0  0  0  0  0
   18.5573   19.5696   21.3551 H   0  0  0  0  0  0  0  0  0  0  0  0
   18.6325   21.3043   21.5467 H   0  0  0  0  0  0  0  0  0  0  0  0
   23.2370   19.0998   22.4611 O   0  0  0  0  0  0  0  0  0  0  0  0
   22.9796   20.0259   22.6429 H   0  0  0  0  0  0  0  0  0  0  0  0
  1  2  1  0  0  0  0
  1  3  1  0  0  0  0
  1  4  1  0  0  0  0
  4  5  1  0  0  0  0
  4  6  1  0  0  0  0
  4  7  1  0  0  0  0
  7  8  1  0  0  0  0
  7  9  1  0  0  0  0
  7 10  1  0  0  0  0
 10 11  1  0  0  0  0
 10 12  1  0  0  0  0
 10 13  1  0  0  0  0
 13 14  1  0  0  0  0
 13 15  1  0  0  0  0
 15 16  1  0  0  0  0
 15 17  1  0  0  0  0
 15 18  1  0  0  0  0
 18 19  1  0  0  0  0
 18 20  1  0  0  0  0
  1 21  1  0  0  0  0
 18 21  1  0  0  0  0
 21 22  1  0  0  0  0
 21 23  1  0  0  0  0
 13 24  1  0  0  0  0
 24 25  1  0  0  0  0
M  END
> <VConfSearch Rank>
532

> <Conf_Id>
115

> <Delta U+W>
0.038

> <U+W>
10.952

> <U>
12.526

> <W>
-1.575

> <W(PB)>
-3.698

> <W(SA)>
2.123

> <Valence>
19.016

> <Coulomb>
-9.226

> <VdW>
2.737

> <VdW6>
-12.612

> <VdW12>
15.349

> <Bond>
0.421

> <Angle>
4.883

> <Pdih>
13.711

> <Idih>
0.000

> <Tether>
0.000

$$$$
VeraChem MOL file


 25 25  0  0  0  0  0  0  0  0999 V2000     
   21.6776   18.8980   24.2862 C   0  0  0  0  0  0  0  0  0  0  0  0
   22.1015   18.2930   25.0993 H   0  0  0  0  0  0  0  0  0  0  0  0
   22.3763   19.7339   24.1465 H   0  0  0  0  0  0  0  0  0  0  0  0
   20.3076   19.4266   24.7714 C   0  0  0  0  0  0  0  0  0  0  0  0
   19.6485   18.5861   25.0279 H   0  0  0  0  0  0  0  0  0  0  0  0
   20.4785   19.9655   25.7134 H   0  0  0  0  0  0  0  0  0  0  0  0
   19.5912   20.3888   23.7958 C   0  0  0  0  0  0  0  0  0  0  0  0
   20.3112   21.0917   23.3560 H   0  0  0  0  0  0  0  0  0  0  0  0
   18.9050   21.0081   24.3898 H   0  0  0  0  0  0  0  0  0  0  0  0
   18.7494   19.6791   22.7014 C   0  0  0  0  0  0  0  0  0  0  0  0
   18.6051   18.6169   22.9355 H   0  0  0  0  0  0  0  0  0  0  0  0
   17.7445   20.1222   22.7228 H   0  0  0  0  0  0  0  0  0  0  0  0
   19.3052   19.8331   21.2678 C   0  0  0  0  0  0  0  0  0  0  0  0
   19.7442   20.8355   21.1622 H   0  0  0  0  0  0  0  0  0  0  0  0
   20.3611   18.7783   20.8693 C   0  0  0  0  0  0  0  0  0  0  0  0
   19.9204   17.7734   20.9097 H   0  0  0  0  0  0  0  0  0  0  0  0
   20.6187   18.9493   19.8159 H   0  0  0  0  0  0  0  0  0  0  0  0
   21.6774   18.8156   21.6834 C   0  0  0  0  0  0  0  0  0  0  0  0
   21.9964   19.8535   21.8478 H   0  0  0  0  0  0  0  0  0  0  0  0
   22.4612   18.3664   21.0581 H   0  0  0  0  0  0  0  0  0  0  0  0
   21.6333   18.0194   23.0139 C   0  0  0  0  0  0  0  0  0  0  0  0
   22.5180   17.3682   23.0362 H   0  0  0  0  0  0  0  0  0  0  0  0
   20.7717   17.3394   23.0476 H   0  0  0  0  0  0  0  0  0  0  0  0
   18.2176   19.7134   20.3588 O   0  0  0  0  0  0  0  0  0  0  0  0
   18.5801   19.8672   19.4614 H   0  0  0  0  0  0  0  0  0  0  0  0
  1  2  1  0  0  0  0
  1  3  1  0  0  0  0
  1  4  1  0  0  0  0
  4  5  1  0  0  0  0
  4  6  1  0  0  0  0
  4  7  1  0  0  0  0
  7  8  1  0  0  0  0
  7  9  1  0  0  0  0
  7 10  1  0  0  0  0
 10 11  1  0  0  0  0
 10 12  1  0  0  0  0
 10 13  1  0  0  0  0
 13 14  1  0  0  0  0
 13 15  1  0  0  0  0
 15 16  1  0  0  0  0
 15 17  1  0  0  0  0
 15 18  1  0  0  0  0
 18 19  1  0  0  0  0
 18 20  1  0  0  0  0
  1 21  1  0  0  0  0
 18 21  1  0  0  0  0
 21 22  1  0  0  0  0
 21 23  1  0  0  0  0
 13 24  1  0  0  0  0
 24 25  1  0  0  0  0
M  END
> <VConfSearch Rank>
533

> <Conf_Id>
30

> <Delta U+W>
0.000

> <U+W>
10.913

> <U>
13.140

> <W>
-2.227

> <W(PB)>
-4.367

> <W(SA)>
2.140

> <Valence>
19.155

> <Coulomb>
-8.157

> <VdW>
2.142

> <VdW6>
-11.576

> <VdW12>
13.718

> <Bond>
0.294

> <Angle>
3.547

> <Pdih>
15.314

> <Idih>
0.000

> <Tether>
0.000

$$$$
VeraChem MOL file


 25 25  0  0  0  0  0  0  0  0999 V2000     
   18.5303   20.2275   23.3489 C   0  0  0  0  0  0  0  0  0  0  0  0
   18.1106   21.2279   23.1756 H   0  0  0  0  0  0  0  0  0  0  0  0
   17.8612   19.7468   24.0755 H   0  0  0  0  0  0  0  0  0  0  0  0
   19.9241   20.3867   24.0047 C   0  0  0  0  0  0  0  0  0  0  0  0
   19.8457   21.1581   24.7829 H   0  0  0  0  0  0  0  0  0  0  0  0
   20.1821   19.4705   24.5483 H   0  0  0  0  0  0  0  0  0  0  0  0
   21.0526   20.7889   23.0215 C   0  0  0  0  0  0  0  0  0  0  0  0
   21.5297   21.7076   23.3888 H   0  0  0  0  0  0  0  0  0  0  0  0
   20.6428   21.0592   22.0414 H   0  0  0  0  0  0  0  0  0  0  0  0
   22.1536   19.7121   22.8484 C   0  0  0  0  0  0  0  0  0  0  0  0
   22.7939   20.0035   22.0052 H   0  0  0  0  0  0  0  0  0  0  0  0
   22.7987   19.7291   23.7365 H   0  0  0  0  0  0  0  0  0  0  0  0
   21.6784   18.2523   22.6409 C   0  0  0  0  0  0  0  0  0  0  0  0
   21.2617   17.8704   23.5825 H   0  0  0  0  0  0  0  0  0  0  0  0
   20.6288   18.0556   21.5197 C   0  0  0  0  0  0  0  0  0  0  0  0
   20.7814   18.7925   20.7208 H   0  0  0  0  0  0  0  0  0  0  0  0
   20.8087   17.0787   21.0513 H   0  0  0  0  0  0  0  0  0  0  0  0
   19.1496   18.0559   21.9990 C   0  0  0  0  0  0  0  0  0  0  0  0
   19.0476   17.5626   22.9750 H   0  0  0  0  0  0  0  0  0  0  0  0
   18.5862   17.4281   21.2950 H   0  0  0  0  0  0  0  0  0  0  0  0
   18.4635   19.4444   22.0107 C   0  0  0  0  0  0  0  0  0  0  0  0
   17.3996   19.2967   21.7799 H   0  0  0  0  0  0  0  0  0  0  0  0
   18.8452   20.0580   21.1847 H   0  0  0  0  0  0  0  0  0  0  0  0
   22.8281   17.4778   22.3208 O   0  0  0  0  0  0  0  0  0  0  0  0
   22.5344   16.5442   22.2698 H   0  0  0  0  0  0  0  0  0  0  0  0
  1  2  1  0  0  0  0
  1  3  1  0  0  0  0
  1  4  1  0  0  0  0
  4  5  1  0  0  0  0
  4  6  1  0  0  0  0
  4  7  1  0  0  0  0
  7  8  1  0  0  0  0
  7  9  1  0  0  0  0
  7 10  1  0  0  0  0
 10 11  1  0  0  0  0
 10 12  1  0  0  0  0
 10 13  1  0  0  0  0
 13 14  1  0  0  0  0
 13 15  1  0  0  0  0
 15 16  1  0  0  0  0
 15 17  1  0  0  0  0
 15 18  1  0  0  0  0
 18 19  1  0  0  0  0
 18 20  1  0  0  0  0
  1 21  1  0  0  0  0
 18 21  1  0  0  0  0
 21 22  1  0  0  0  0
 21 23  1  0  0  0  0
 13 24  1  0  0  0  0
 24 25  1  0  0  0  0
M  END
> <VConfSearch Rank>
534

> <Conf_Id>
162

> <Delta U+W>
0.219

> <U+W>
11.132

> <U>
13.296

> <W>
-2.164

> <W(PB)>
-4.311

> <W(SA)>
2.148

> <Valence>
18.607

> <Coulomb>
-8.339

> <VdW>
3.028

> <VdW6>
-12.271

> <VdW12>
15.299

> <Bond>
0.423

> <Angle>
4.488

> <Pdih>
13.696

> <Idih>
0.000

> <Tether>
0.000

$$$$
VeraChem MOL file


 25 25  0  0  0  0  0  0  0  0999 V2000     
   20.6165   21.1626   22.2049 C   0  0  0  0  0  0  0  0  0  0  0  0
   20.3074   21.4046   23.2296 H   0  0  0  0  0  0  0  0  0  0  0  0
   20.8663   22.1318   21.7519 H   0  0  0  0  0  0  0  0  0  0  0  0
   21.9036   20.3010   22.2305 C   0  0  0  0  0  0  0  0  0  0  0  0
   22.0299   19.7605   21.2828 H   0  0  0  0  0  0  0  0  0  0  0  0
   22.7519   20.9973   22.2831 H   0  0  0  0  0  0  0  0  0  0  0  0
   22.0334   19.3411   23.4460 C   0  0  0  0  0  0  0  0  0  0  0  0
   21.6344   19.8016   24.3598 H   0  0  0  0  0  0  0  0  0  0  0  0
   23.1080   19.2095   23.6329 H   0  0  0  0  0  0  0  0  0  0  0  0
   21.4379   17.9245   23.2368 C   0  0  0  0  0  0  0  0  0  0  0  0
   21.5602   17.6179   22.1907 H   0  0  0  0  0  0  0  0  0  0  0  0
   22.0480   17.2160   23.8121 H   0  0  0  0  0  0  0  0  0  0  0  0
   19.9724   17.7194   23.6967 C   0  0  0  0  0  0  0  0  0  0  0  0
   19.9583   17.7418   24.7960 H   0  0  0  0  0  0  0  0  0  0  0  0
   18.9462   18.7666   23.2024 C   0  0  0  0  0  0  0  0  0  0  0  0
   17.9360   18.3939   23.4158 H   0  0  0  0  0  0  0  0  0  0  0  0
   19.0379   19.6705   23.8141 H   0  0  0  0  0  0  0  0  0  0  0  0
   19.0427   19.1084   21.6920 C   0  0  0  0  0  0  0  0  0  0  0  0
   18.0712   18.9057   21.2212 H   0  0  0  0  0  0  0  0  0  0  0  0
   19.7447   18.4374   21.1828 H   0  0  0  0  0  0  0  0  0  0  0  0
   19.4264   20.5788   21.3981 C   0  0  0  0  0  0  0  0  0  0  0  0
   18.5483   21.2143   21.5768 H   0  0  0  0  0  0  0  0  0  0  0  0
   19.6466   20.6685   20.3256 H   0  0  0  0  0  0  0  0  0  0  0  0
   19.5547   16.4327   23.2561 O   0  0  0  0  0  0  0  0  0  0  0  0
   18.6279   16.3207   23.5522 H   0  0  0  0  0  0  0  0  0  0  0  0
  1  2  1  0  0  0  0
  1  3  1  0  0  0  0
  1  4  1  0  0  0  0
  4  5  1  0  0  0  0
  4  6  1  0  0  0  0
  4  7  1  0  0  0  0
  7  8  1  0  0  0  0
  7  9  1  0  0  0  0
  7 10  1  0  0  0  0
 10 11  1  0  0  0  0
 10 12  1  0  0  0  0
 10 13  1  0  0  0  0
 13 14  1  0  0  0  0
 13 15  1  0  0  0  0
 15 16  1  0  0  0  0
 15 17  1  0  0  0  0
 15 18  1  0  0  0  0
 18 19  1  0  0  0  0
 18 20  1  0  0  0  0
  1 21  1  0  0  0  0
 18 21  1  0  0  0  0
 21 22  1  0  0  0  0
 21 23  1  0  0  0  0
 13 24  1  0  0  0  0
 24 25  1  0  0  0  0
M  END
> <VConfSearch Rank>
535

> <Conf_Id>
155

> <Delta U+W>
0.339

> <U+W>
11.252

> <U>
13.420

> <W>
-2.167

> <W(PB)>
-4.325

> <W(SA)>
2.157

> <Valence>
18.609

> <Coulomb>
-8.052

> <VdW>
2.863

> <VdW6>
-12.524

> <VdW12>
15.387

> <Bond>
0.430

> <Angle>
4.724

> <Pdih>
13.455

> <Idih>
0.000

> <Tether>
0.000

$$$$
VeraChem MOL file


 25 25  0  0  0  0  0  0  0  0999 V2000     
   20.2673   17.5433   21.5767 C   0  0  0  0  0  0  0  0  0  0  0  0
   21.1516   17.3647   20.9503 H   0  0  0  0  0  0  0  0  0  0  0  0
   19.6021   16.6884   21.3938 H   0  0  0  0  0  0  0  0  0  0  0  0
   20.6789   17.4825   23.0713 C   0  0  0  0  0  0  0  0  0  0  0  0
   19.7822   17.5432   23.6960 H   0  0  0  0  0  0  0  0  0  0  0  0
   21.0617   16.4720   23.2691 H   0  0  0  0  0  0  0  0  0  0  0  0
   21.7636   18.4861   23.5607 C   0  0  0  0  0  0  0  0  0  0  0  0
   22.7443   18.0316   23.3654 H   0  0  0  0  0  0  0  0  0  0  0  0
   21.6954   18.5792   24.6531 H   0  0  0  0  0  0  0  0  0  0  0  0
   21.7873   19.9050   22.9299 C   0  0  0  0  0  0  0  0  0  0  0  0
   22.6934   20.4092   23.2906 H   0  0  0  0  0  0  0  0  0  0  0  0
   21.9636   19.8172   21.8543 H   0  0  0  0  0  0  0  0  0  0  0  0
   20.5775   20.8462   23.2039 C   0  0  0  0  0  0  0  0  0  0  0  0
   20.5410   21.5890   22.3942 H   0  0  0  0  0  0  0  0  0  0  0  0
   19.1743   20.1997   23.3202 C   0  0  0  0  0  0  0  0  0  0  0  0
   19.1712   19.5016   24.1623 H   0  0  0  0  0  0  0  0  0  0  0  0
   18.4740   20.9855   23.6328 H   0  0  0  0  0  0  0  0  0  0  0  0
   18.5706   19.5347   22.0467 C   0  0  0  0  0  0  0  0  0  0  0  0
   18.0589   20.3217   21.4760 H   0  0  0  0  0  0  0  0  0  0  0  0
   17.7812   18.8347   22.3521 H   0  0  0  0  0  0  0  0  0  0  0  0
   19.5357   18.8190   21.0654 C   0  0  0  0  0  0  0  0  0  0  0  0
   20.2512   19.5444   20.6656 H   0  0  0  0  0  0  0  0  0  0  0  0
   18.9515   18.5231   20.1834 H   0  0  0  0  0  0  0  0  0  0  0  0
   20.8229   21.5260   24.4302 O   0  0  0  0  0  0  0  0  0  0  0  0
   21.6872   21.9769   24.3357 H   0  0  0  0  0  0  0  0  0  0  0  0
  1  2  1  0  0  0  0
  1  3  1  0  0  0  0
  1  4  1  0  0  0  0
  4  5  1  0  0  0  0
  4  6  1  0  0  0  0
  4  7  1  0  0  0  0
  7  8  1  0  0  0  0
  7  9  1  0  0  0  0
  7 10  1  0  0  0  0
 10 11  1  0  0  0  0
 10 12  1  0  0  0  0
 10 13  1  0  0  0  0
 13 14  1  0  0  0  0
 13 15  1  0  0  0  0
 15 16  1  0  0  0  0
 15 17  1  0  0  0  0
 15 18  1  0  0  0  0
 18 19  1  0  0  0  0
 18 20  1  0  0  0  0
  1 21  1  0  0  0  0
 18 21  1  0  0  0  0
 21 22  1  0  0  0  0
 21 23  1  0  0  0  0
 13 24  1  0  0  0  0
 24 25  1  0  0  0  0
M  END
> <VConfSearch Rank>
536

> <Conf_Id>
146

> <Delta U+W>
2.553

> <U+W>
13.466

> <U>
15.643

> <W>
-2.176

> <W(PB)>
-4.307

> <W(SA)>
2.131

> <Valence>
18.916

> <Coulomb>
-7.506

> <VdW>
4.232

> <VdW6>
-13.632

> <VdW12>
17.864

> <Bond>
0.735

> <Angle>
9.140

> <Pdih>
9.042

> <Idih>
0.000

> <Tether>
0.000

$$$$
VeraChem MOL file


 25 25  0  0  0  0  0  0  0  0999 V2000     
   19.3944   20.7659   23.7345 C   0  0  0  0  0  0  0  0  0  0  0  0
   18.3045   20.9013   23.7507 H   0  0  0  0  0  0  0  0  0  0  0  0
   19.8016   21.5653   24.3686 H   0  0  0  0  0  0  0  0  0  0  0  0
   19.9180   21.0049   22.2961 C   0  0  0  0  0  0  0  0  0  0  0  0
   19.6623   22.0380   22.0238 H   0  0  0  0  0  0  0  0  0  0  0  0
   21.0135   20.9788   22.2799 H   0  0  0  0  0  0  0  0  0  0  0  0
   19.3357   20.0823   21.1960 C   0  0  0  0  0  0  0  0  0  0  0  0
   19.7075   20.4462   20.2284 H   0  0  0  0  0  0  0  0  0  0  0  0
   18.2446   20.2034   21.1604 H   0  0  0  0  0  0  0  0  0  0  0  0
   19.6717   18.5713   21.2952 C   0  0  0  0  0  0  0  0  0  0  0  0
   18.9993   18.0779   22.0041 H   0  0  0  0  0  0  0  0  0  0  0  0
   19.4243   18.1214   20.3242 H   0  0  0  0  0  0  0  0  0  0  0  0
   21.1475   18.2465   21.6424 C   0  0  0  0  0  0  0  0  0  0  0  0
   21.7795   19.1150   21.4131 H   0  0  0  0  0  0  0  0  0  0  0  0
   21.3734   17.8221   23.1157 C   0  0  0  0  0  0  0  0  0  0  0  0
   20.7161   16.9747   23.3516 H   0  0  0  0  0  0  0  0  0  0  0  0
   22.3975   17.4366   23.2042 H   0  0  0  0  0  0  0  0  0  0  0  0
   21.1998   18.9226   24.1976 C   0  0  0  0  0  0  0  0  0  0  0  0
   21.8754   19.7664   24.0073 H   0  0  0  0  0  0  0  0  0  0  0  0
   21.5400   18.4924   25.1496 H   0  0  0  0  0  0  0  0  0  0  0  0
   19.7421   19.4103   24.4021 C   0  0  0  0  0  0  0  0  0  0  0  0
   19.5697   19.5286   25.4806 H   0  0  0  0  0  0  0  0  0  0  0  0
   19.0304   18.6352   24.0962 H   0  0  0  0  0  0  0  0  0  0  0  0
   21.5666   17.1626   20.8209 O   0  0  0  0  0  0  0  0  0  0  0  0
   22.5156   17.0121   21.0129 H   0  0  0  0  0  0  0  0  0  0  0  0
  1  2  1  0  0  0  0
  1  3  1  0  0  0  0
  1  4  1  0  0  0  0
  4  5  1  0  0  0  0
  4  6  1  0  0  0  0
  4  7  1  0  0  0  0
  7  8  1  0  0  0  0
  7  9  1  0  0  0  0
  7 10  1  0  0  0  0
 10 11  1  0  0  0  0
 10 12  1  0  0  0  0
 10 13  1  0  0  0  0
 13 14  1  0  0  0  0
 13 15  1  0  0  0  0
 15 16  1  0  0  0  0
 15 17  1  0  0  0  0
 15 18  1  0  0  0  0
 18 19  1  0  0  0  0
 18 20  1  0  0  0  0
  1 21  1  0  0  0  0
 18 21  1  0  0  0  0
 21 22  1  0  0  0  0
 21 23  1  0  0  0  0
 13 24  1  0  0  0  0
 24 25  1  0  0  0  0
M  END
> <VConfSearch Rank>
537

> <Conf_Id>
62

> <Delta U+W>
-1.779

> <U+W>
9.134

> <U>
11.364

> <W>
-2.230

> <W(PB)>
-4.359

> <W(SA)>
2.129

> <Valence>
16.582

> <Coulomb>
-8.150

> <VdW>
2.933

> <VdW6>
-12.531

> <VdW12>
15.464

> <Bond>
0.439

> <Angle>
5.099

> <Pdih>
11.044

> <Idih>
0.000

> <Tether>
0.000

$$$$
VeraChem MOL file


 25 25  0  0  0  0  0  0  0  0999 V2000     
   18.7765   18.8613   23.5877 C   0  0  0  0  0  0  0  0  0  0  0  0
   18.8089   19.9531   23.4976 H   0  0  0  0  0  0  0  0  0  0  0  0
   17.8516   18.6572   24.1441 H   0  0  0  0  0  0  0  0  0  0  0  0
   19.9563   18.3555   24.4548 C   0  0  0  0  0  0  0  0  0  0  0  0
   19.8593   18.8203   25.4454 H   0  0  0  0  0  0  0  0  0  0  0  0
   19.8470   17.2754   24.6216 H   0  0  0  0  0  0  0  0  0  0  0  0
   21.3884   18.6419   23.9354 C   0  0  0  0  0  0  0  0  0  0  0  0
   21.6895   17.8864   23.2008 H   0  0  0  0  0  0  0  0  0  0  0  0
   22.0749   18.4923   24.7800 H   0  0  0  0  0  0  0  0  0  0  0  0
   21.6164   20.0703   23.3724 C   0  0  0  0  0  0  0  0  0  0  0  0
   20.8941   20.7803   23.7937 H   0  0  0  0  0  0  0  0  0  0  0  0
   22.5972   20.4077   23.7321 H   0  0  0  0  0  0  0  0  0  0  0  0
   21.6339   20.1670   21.8259 C   0  0  0  0  0  0  0  0  0  0  0  0
   22.3617   19.4371   21.4431 H   0  0  0  0  0  0  0  0  0  0  0  0
   20.2842   19.9240   21.1053 C   0  0  0  0  0  0  0  0  0  0  0  0
   19.5256   20.6316   21.4609 H   0  0  0  0  0  0  0  0  0  0  0  0
   20.4374   20.1734   20.0470 H   0  0  0  0  0  0  0  0  0  0  0  0
   19.7615   18.4636   21.1662 C   0  0  0  0  0  0  0  0  0  0  0  0
   20.5904   17.7653   21.3278 H   0  0  0  0  0  0  0  0  0  0  0  0
   19.3685   18.1986   20.1751 H   0  0  0  0  0  0  0  0  0  0  0  0
   18.6267   18.2085   22.1909 C   0  0  0  0  0  0  0  0  0  0  0  0
   18.4901   17.1250   22.3093 H   0  0  0  0  0  0  0  0  0  0  0  0
   17.6899   18.5798   21.7534 H   0  0  0  0  0  0  0  0  0  0  0  0
   22.0738   21.4745   21.4803 O   0  0  0  0  0  0  0  0  0  0  0  0
   22.9584   21.5918   21.8850 H   0  0  0  0  0  0  0  0  0  0  0  0
  1  2  1  0  0  0  0
  1  3  1  0  0  0  0
  1  4  1  0  0  0  0
  4  5  1  0  0  0  0
  4  6  1  0  0  0  0
  4  7  1  0  0  0  0
  7  8  1  0  0  0  0
  7  9  1  0  0  0  0
  7 10  1  0  0  0  0
 10 11  1  0  0  0  0
 10 12  1  0  0  0  0
 10 13  1  0  0  0  0
 13 14  1  0  0  0  0
 13 15  1  0  0  0  0
 15 16  1  0  0  0  0
 15 17  1  0  0  0  0
 15 18  1  0  0  0  0
 18 19  1  0  0  0  0
 18 20  1  0  0  0  0
  1 21  1  0  0  0  0
 18 21  1  0  0  0  0
 21 22  1  0  0  0  0
 21 23  1  0  0  0  0
 13 24  1  0  0  0  0
 24 25  1  0  0  0  0
M  END
> <VConfSearch Rank>
538

> <Conf_Id>
121

> <Delta U+W>
-1.283

> <U+W>
9.630

> <U>
11.876

> <W>
-2.246

> <W(PB)>
-4.376

> <W(SA)>
2.130

> <Valence>
17.153

> <Coulomb>
-7.966

> <VdW>
2.689

> <VdW6>
-12.458

> <VdW12>
15.147

> <Bond>
0.421

> <Angle>
5.258

> <Pdih>
11.475

> <Idih>
0.000

> <Tether>
0.000

$$$$
VeraChem MOL file


 25 25  0  0  0  0  0  0  0  0999 V2000     
   22.0865   19.9126   22.5320 C   0  0  0  0  0  0  0  0  0  0  0  0
   22.0169   19.5487   23.5634 H   0  0  0  0  0  0  0  0  0  0  0  0
   23.1165   20.2827   22.4383 H   0  0  0  0  0  0  0  0  0  0  0  0
   21.1420   21.1222   22.3213 C   0  0  0  0  0  0  0  0  0  0  0  0
   21.4542   21.9089   23.0217 H   0  0  0  0  0  0  0  0  0  0  0  0
   21.3026   21.5377   21.3173 H   0  0  0  0  0  0  0  0  0  0  0  0
   19.6251   20.8788   22.5284 C   0  0  0  0  0  0  0  0  0  0  0  0
   19.1755   20.4575   21.6221 H   0  0  0  0  0  0  0  0  0  0  0  0
   19.1510   21.8638   22.6376 H   0  0  0  0  0  0  0  0  0  0  0  0
   19.2540   20.0224   23.7687 C   0  0  0  0  0  0  0  0  0  0  0  0
   20.0394   20.0702   24.5327 H   0  0  0  0  0  0  0  0  0  0  0  0
   18.3719   20.4831   24.2330 H   0  0  0  0  0  0  0  0  0  0  0  0
   18.8844   18.5498   23.4610 C   0  0  0  0  0  0  0  0  0  0  0  0
   18.0993   18.5484   22.6912 H   0  0  0  0  0  0  0  0  0  0  0  0
   20.0393   17.6361   22.9785 C   0  0  0  0  0  0  0  0  0  0  0  0
   20.8489   17.6170   23.7185 H   0  0  0  0  0  0  0  0  0  0  0  0
   19.6522   16.6092   22.9468 H   0  0  0  0  0  0  0  0  0  0  0  0
   20.5845   17.9643   21.5628 C   0  0  0  0  0  0  0  0  0  0  0  0
   19.8253   18.4869   20.9699 H   0  0  0  0  0  0  0  0  0  0  0  0
   20.7458   17.0176   21.0291 H   0  0  0  0  0  0  0  0  0  0  0  0
   21.9266   18.7393   21.5333 C   0  0  0  0  0  0  0  0  0  0  0  0
   22.1049   19.1046   20.5128 H   0  0  0  0  0  0  0  0  0  0  0  0
   22.7332   18.0218   21.7370 H   0  0  0  0  0  0  0  0  0  0  0  0
   18.3557   17.9835   24.6535 O   0  0  0  0  0  0  0  0  0  0  0  0
   18.0627   17.0755   24.4301 H   0  0  0  0  0  0  0  0  0  0  0  0
  1  2  1  0  0  0  0
  1  3  1  0  0  0  0
  1  4  1  0  0  0  0
  4  5  1  0  0  0  0
  4  6  1  0  0  0  0
  4  7  1  0  0  0  0
  7  8  1  0  0  0  0
  7  9  1  0  0  0  0
  7 10  1  0  0  0  0
 10 11  1  0  0  0  0
 10 12  1  0  0  0  0
 10 13  1  0  0  0  0
 13 14  1  0  0  0  0
 13 15  1  0  0  0  0
 15 16  1  0  0  0  0
 15 17  1  0  0  0  0
 15 18  1  0  0  0  0
 18 19  1  0  0  0  0
 18 20  1  0  0  0  0
  1 21  1  0  0  0  0
 18 21  1  0  0  0  0
 21 22  1  0  0  0  0
 21 23  1  0  0  0  0
 13 24  1  0  0  0  0
 24 25  1  0  0  0  0
M  END
> <VConfSearch Rank>
539

> <Conf_Id>
24

> <Delta U+W>
-1.236

> <U+W>
9.678

> <U>
11.876

> <W>
-2.199

> <W(PB)>
-4.335

> <W(SA)>
2.137

> <Valence>
17.153

> <Coulomb>
-7.966

> <VdW>
2.689

> <VdW6>
-12.458

> <VdW12>
15.147

> <Bond>
0.421

> <Angle>
5.258

> <Pdih>
11.475

> <Idih>
0.000

> <Tether>
0.000

$$$$
VeraChem MOL file


 25 25  0  0  0  0  0  0  0  0999 V2000     
   19.0617   18.3775   21.0608 C   0  0  0  0  0  0  0  0  0  0  0  0
   17.9636   18.4093   21.0654 H   0  0  0  0  0  0  0  0  0  0  0  0
   19.3389   17.8167   20.1577 H   0  0  0  0  0  0  0  0  0  0  0  0
   19.6049   19.8233   20.9104 C   0  0  0  0  0  0  0  0  0  0  0  0
   20.6505   19.8107   20.5773 H   0  0  0  0  0  0  0  0  0  0  0  0
   19.0534   20.2872   20.0810 H   0  0  0  0  0  0  0  0  0  0  0  0
   19.4559   20.7380   22.1513 C   0  0  0  0  0  0  0  0  0  0  0  0
   18.5304   20.5083   22.6963 H   0  0  0  0  0  0  0  0  0  0  0  0
   19.3268   21.7632   21.7779 H   0  0  0  0  0  0  0  0  0  0  0  0
   20.6813   20.7577   23.1083 C   0  0  0  0  0  0  0  0  0  0  0  0
   21.6195   20.6900   22.5429 H   0  0  0  0  0  0  0  0  0  0  0  0
   20.6934   21.7492   23.5813 H   0  0  0  0  0  0  0  0  0  0  0  0
   20.6483   19.6966   24.2353 C   0  0  0  0  0  0  0  0  0  0  0  0
   19.5999   19.4733   24.4736 H   0  0  0  0  0  0  0  0  0  0  0  0
   21.3955   18.3747   23.9249 C   0  0  0  0  0  0  0  0  0  0  0  0
   22.4783   18.5547   23.9461 H   0  0  0  0  0  0  0  0  0  0  0  0
   21.1895   17.6758   24.7463 H   0  0  0  0  0  0  0  0  0  0  0  0
   21.0483   17.6722   22.5883 C   0  0  0  0  0  0  0  0  0  0  0  0
   21.4664   16.6568   22.6186 H   0  0  0  0  0  0  0  0  0  0  0  0
   21.5745   18.1664   21.7633 H   0  0  0  0  0  0  0  0  0  0  0  0
   19.5287   17.5758   22.3004 C   0  0  0  0  0  0  0  0  0  0  0  0
   18.9410   17.8758   23.1758 H   0  0  0  0  0  0  0  0  0  0  0  0
   19.2682   16.5208   22.1394 H   0  0  0  0  0  0  0  0  0  0  0  0
   21.2490   20.2577   25.3955 O   0  0  0  0  0  0  0  0  0  0  0  0
   22.1747   20.4673   25.1543 H   0  0  0  0  0  0  0  0  0  0  0  0
  1  2  1  0  0  0  0
  1  3  1  0  0  0  0
  1  4  1  0  0  0  0
  4  5  1  0  0  0  0
  4  6  1  0  0  0  0
  4  7  1  0  0  0  0
  7  8  1  0  0  0  0
  7  9  1  0  0  0  0
  7 10  1  0  0  0  0
 10 11  1  0  0  0  0
 10 12  1  0  0  0  0
 10 13  1  0  0  0  0
 13 14  1  0  0  0  0
 13 15  1  0  0  0  0
 15 16  1  0  0  0  0
 15 17  1  0  0  0  0
 15 18  1  0  0  0  0
 18 19  1  0  0  0  0
 18 20  1  0  0  0  0
  1 21  1  0  0  0  0
 18 21  1  0  0  0  0
 21 22  1  0  0  0  0
 21 23  1  0  0  0  0
 13 24  1  0  0  0  0
 24 25  1  0  0  0  0
M  END
> <VConfSearch Rank>
540

> <Conf_Id>
167

> <Delta U+W>
0.388

> <U+W>
11.301

> <U>
13.202

> <W>
-1.901

> <W(PB)>
-4.065

> <W(SA)>
2.163

> <Valence>
18.957

> <Coulomb>
-8.753

> <VdW>
2.998

> <VdW6>
-12.294

> <VdW12>
15.292

> <Bond>
0.419

> <Angle>
4.543

> <Pdih>
13.996

> <Idih>
0.000

> <Tether>
0.000

$$$$
VeraChem MOL file


 25 25  0  0  0  0  0  0  0  0999 V2000     
   22.3259   19.0618   23.0489 C   0  0  0  0  0  0  0  0  0  0  0  0
   22.8483   19.7860   23.6886 H   0  0  0  0  0  0  0  0  0  0  0  0
   23.0840   18.3207   22.7608 H   0  0  0  0  0  0  0  0  0  0  0  0
   21.8546   19.7806   21.7579 C   0  0  0  0  0  0  0  0  0  0  0  0
   21.4657   20.7782   21.9910 H   0  0  0  0  0  0  0  0  0  0  0  0
   22.7501   19.9722   21.1510 H   0  0  0  0  0  0  0  0  0  0  0  0
   20.8426   18.9918   20.8870 C   0  0  0  0  0  0  0  0  0  0  0  0
   20.9408   17.9107   21.0493 H   0  0  0  0  0  0  0  0  0  0  0  0
   21.1185   19.1500   19.8354 H   0  0  0  0  0  0  0  0  0  0  0  0
   19.3633   19.4396   21.0393 C   0  0  0  0  0  0  0  0  0  0  0  0
   19.2842   20.5148   20.8324 H   0  0  0  0  0  0  0  0  0  0  0  0
   18.7849   18.9429   20.2489 H   0  0  0  0  0  0  0  0  0  0  0  0
   18.6738   19.1286   22.3910 C   0  0  0  0  0  0  0  0  0  0  0  0
   18.7825   18.0583   22.6119 H   0  0  0  0  0  0  0  0  0  0  0  0
   19.2071   19.9671   23.5815 C   0  0  0  0  0  0  0  0  0  0  0  0
   19.6848   20.8810   23.2141 H   0  0  0  0  0  0  0  0  0  0  0  0
   18.3623   20.3256   24.1846 H   0  0  0  0  0  0  0  0  0  0  0  0
   20.1637   19.2107   24.5392 C   0  0  0  0  0  0  0  0  0  0  0  0
   19.5535   18.5651   25.1856 H   0  0  0  0  0  0  0  0  0  0  0  0
   20.6431   19.9361   25.2104 H   0  0  0  0  0  0  0  0  0  0  0  0
   21.2518   18.3221   23.8854 C   0  0  0  0  0  0  0  0  0  0  0  0
   20.7920   17.5227   23.2933 H   0  0  0  0  0  0  0  0  0  0  0  0
   21.7751   17.7982   24.6969 H   0  0  0  0  0  0  0  0  0  0  0  0
   17.2880   19.4100   22.2339 O   0  0  0  0  0  0  0  0  0  0  0  0
   16.8512   19.1451   23.0703 H   0  0  0  0  0  0  0  0  0  0  0  0
  1  2  1  0  0  0  0
  1  3  1  0  0  0  0
  1  4  1  0  0  0  0
  4  5  1  0  0  0  0
  4  6  1  0  0  0  0
  4  7  1  0  0  0  0
  7  8  1  0  0  0  0
  7  9  1  0  0  0  0
  7 10  1  0  0  0  0
 10 11  1  0  0  0  0
 10 12  1  0  0  0  0
 10 13  1  0  0  0  0
 13 14  1  0  0  0  0
 13 15  1  0  0  0  0
 15 16  1  0  0  0  0
 15 17  1  0  0  0  0
 15 18  1  0  0  0  0
 18 19  1  0  0  0  0
 18 20  1  0  0  0  0
  1 21  1  0  0  0  0
 18 21  1  0  0  0  0
 21 22  1  0  0  0  0
 21 23  1  0  0  0  0
 13 24  1  0  0  0  0
 24 25  1  0  0  0  0
M  END
> <VConfSearch Rank>
541

> <Conf_Id>
60

> <Delta U+W>
-1.838

> <U+W>
9.075

> <U>
11.150

> <W>
-2.074

> <W(PB)>
-4.196

> <W(SA)>
2.121

> <Valence>
16.582

> <Coulomb>
-8.361

> <VdW>
2.928

> <VdW6>
-12.539

> <VdW12>
15.467

> <Bond>
0.441

> <Angle>
5.093

> <Pdih>
11.049

> <Idih>
0.000

> <Tether>
0.000

$$$$
VeraChem MOL file


 25 25  0  0  0  0  0  0  0  0999 V2000     
   18.2786   19.1963   22.3726 C   0  0  0  0  0  0  0  0  0  0  0  0
   17.8380   19.0220   21.3816 H   0  0  0  0  0  0  0  0  0  0  0  0
   17.4298   19.3787   23.0458 H   0  0  0  0  0  0  0  0  0  0  0  0
   19.1248   20.4937   22.3349 C   0  0  0  0  0  0  0  0  0  0  0  0
   18.4463   21.3175   22.0748 H   0  0  0  0  0  0  0  0  0  0  0  0
   19.4864   20.7416   23.3393 H   0  0  0  0  0  0  0  0  0  0  0  0
   20.2905   20.5195   21.3144 C   0  0  0  0  0  0  0  0  0  0  0  0
   20.7160   21.5323   21.3232 H   0  0  0  0  0  0  0  0  0  0  0  0
   19.8895   20.3739   20.3022 H   0  0  0  0  0  0  0  0  0  0  0  0
   21.4482   19.5141   21.5463 C   0  0  0  0  0  0  0  0  0  0  0  0
   21.1753   18.5274   21.1586 H   0  0  0  0  0  0  0  0  0  0  0  0
   22.2857   19.8333   20.9118 H   0  0  0  0  0  0  0  0  0  0  0  0
   21.9285   19.3956   23.0160 C   0  0  0  0  0  0  0  0  0  0  0  0
   21.6120   20.2811   23.5832 H   0  0  0  0  0  0  0  0  0  0  0  0
   21.4291   18.1227   23.7438 C   0  0  0  0  0  0  0  0  0  0  0  0
   21.7161   17.2375   23.1613 H   0  0  0  0  0  0  0  0  0  0  0  0
   21.9784   18.0442   24.6914 H   0  0  0  0  0  0  0  0  0  0  0  0
   19.9133   18.0533   24.0755 C   0  0  0  0  0  0  0  0  0  0  0  0
   19.6105   18.9086   24.6932 H   0  0  0  0  0  0  0  0  0  0  0  0
   19.7653   17.1718   24.7142 H   0  0  0  0  0  0  0  0  0  0  0  0
   18.9838   17.8979   22.8440 C   0  0  0  0  0  0  0  0  0  0  0  0
   18.1945   17.1782   23.1011 H   0  0  0  0  0  0  0  0  0  0  0  0
   19.5212   17.4266   22.0135 H   0  0  0  0  0  0  0  0  0  0  0  0
   23.3506   19.3535   23.0175 O   0  0  0  0  0  0  0  0  0  0  0  0
   23.6566   20.1943   22.6174 H   0  0  0  0  0  0  0  0  0  0  0  0
  1  2  1  0  0  0  0
  1  3  1  0  0  0  0
  1  4  1  0  0  0  0
  4  5  1  0  0  0  0
  4  6  1  0  0  0  0
  4  7  1  0  0  0  0
  7  8  1  0  0  0  0
  7  9  1  0  0  0  0
  7 10  1  0  0  0  0
 10 11  1  0  0  0  0
 10 12  1  0  0  0  0
 10 13  1  0  0  0  0
 13 14  1  0  0  0  0
 13 15  1  0  0  0  0
 15 16  1  0  0  0  0
 15 17  1  0  0  0  0
 15 18  1  0  0  0  0
 18 19  1  0  0  0  0
 18 20  1  0  0  0  0
  1 21  1  0  0  0  0
 18 21  1  0  0  0  0
 21 22  1  0  0  0  0
 21 23  1  0  0  0  0
 13 24  1  0  0  0  0
 24 25  1  0  0  0  0
M  END
> <VConfSearch Rank>
542

> <Conf_Id>
129

> <Delta U+W>
-1.846

> <U+W>
9.067

> <U>
11.150

> <W>
-2.083

> <W(PB)>
-4.217

> <W(SA)>
2.134

> <Valence>
16.583

> <Coulomb>
-8.361

> <VdW>
2.928

> <VdW6>
-12.539

> <VdW12>
15.467

> <Bond>
0.441

> <Angle>
5.093

> <Pdih>
11.049

> <Idih>
0.000

> <Tether>
0.000

$$$$
VeraChem MOL file


 25 25  0  0  0  0  0  0  0  0999 V2000     
   18.2628   19.0982   23.1329 C   0  0  0  0  0  0  0  0  0  0  0  0
   17.9419   18.9642   24.1748 H   0  0  0  0  0  0  0  0  0  0  0  0
   17.3378   19.1503   22.5426 H   0  0  0  0  0  0  0  0  0  0  0  0
   19.0361   17.8382   22.6698 C   0  0  0  0  0  0  0  0  0  0  0  0
   18.3458   16.9869   22.7438 H   0  0  0  0  0  0  0  0  0  0  0  0
   19.2742   17.9077   21.6023 H   0  0  0  0  0  0  0  0  0  0  0  0
   20.3017   17.4754   23.4865 C   0  0  0  0  0  0  0  0  0  0  0  0
   20.6676   16.5078   23.1164 H   0  0  0  0  0  0  0  0  0  0  0  0
   20.0210   17.3062   24.5349 H   0  0  0  0  0  0  0  0  0  0  0  0
   21.4826   18.4795   23.4370 C   0  0  0  0  0  0  0  0  0  0  0  0
   21.3117   19.2986   24.1429 H   0  0  0  0  0  0  0  0  0  0  0  0
   22.3646   17.9551   23.8292 H   0  0  0  0  0  0  0  0  0  0  0  0
   21.8070   19.0423   22.0289 C   0  0  0  0  0  0  0  0  0  0  0  0
   21.3891   18.3790   21.2600 H   0  0  0  0  0  0  0  0  0  0  0  0
   21.2998   20.4865   21.7881 C   0  0  0  0  0  0  0  0  0  0  0  0
   21.6911   21.1470   22.5728 H   0  0  0  0  0  0  0  0  0  0  0  0
   21.7438   20.8436   20.8492 H   0  0  0  0  0  0  0  0  0  0  0  0
   19.7632   20.6807   21.6779 C   0  0  0  0  0  0  0  0  0  0  0  0
   19.3493   20.0631   20.8704 H   0  0  0  0  0  0  0  0  0  0  0  0
   19.5931   21.7186   21.3606 H   0  0  0  0  0  0  0  0  0  0  0  0
   18.9842   20.4645   23.0012 C   0  0  0  0  0  0  0  0  0  0  0  0
   18.2137   21.2441   23.0752 H   0  0  0  0  0  0  0  0  0  0  0  0
   19.6351   20.6424   23.8647 H   0  0  0  0  0  0  0  0  0  0  0  0
   23.2202   19.0596   21.8721 O   0  0  0  0  0  0  0  0  0  0  0  0
   23.5680   19.6591   22.5640 H   0  0  0  0  0  0  0  0  0  0  0  0
  1  2  1  0  0  0  0
  1  3  1  0  0  0  0
  1  4  1  0  0  0  0
  4  5  1  0  0  0  0
  4  6  1  0  0  0  0
  4  7  1  0  0  0  0
  7  8  1  0  0  0  0
  7  9  1  0  0  0  0
  7 10  1  0  0  0  0
 10 11  1  0  0  0  0
 10 12  1  0  0  0  0
 10 13  1  0  0  0  0
 13 14  1  0  0  0  0
 13 15  1  0  0  0  0
 15 16  1  0  0  0  0
 15 17  1  0  0  0  0
 15 18  1  0  0  0  0
 18 19  1  0  0  0  0
 18 20  1  0  0  0  0
  1 21  1  0  0  0  0
 18 21  1  0  0  0  0
 21 22  1  0  0  0  0
 21 23  1  0  0  0  0
 13 24  1  0  0  0  0
 24 25  1  0  0  0  0
M  END
> <VConfSearch Rank>
543

> <Conf_Id>
140

> <Delta U+W>
-1.702

> <U+W>
9.211

> <U>
11.181

> <W>
-1.969

> <W(PB)>
-4.093

> <W(SA)>
2.124

> <Valence>
16.954

> <Coulomb>
-8.661

> <VdW>
2.887

> <VdW6>
-12.561

> <VdW12>
15.448

> <Bond>
0.433

> <Angle>
5.120

> <Pdih>
11.401

> <Idih>
0.000

> <Tether>
0.000

$$$$
VeraChem MOL file


 25 25  0  0  0  0  0  0  0  0999 V2000     
   19.8152   17.1700   22.7190 C   0  0  0  0  0  0  0  0  0  0  0  0
   20.5962   16.4058   22.6078 H   0  0  0  0  0  0  0  0  0  0  0  0
   18.8750   16.6162   22.8467 H   0  0  0  0  0  0  0  0  0  0  0  0
   19.7114   17.9780   21.3995 C   0  0  0  0  0  0  0  0  0  0  0  0
   20.7080   18.1831   20.9928 H   0  0  0  0  0  0  0  0  0  0  0  0
   19.2430   17.3200   20.6548 H   0  0  0  0  0  0  0  0  0  0  0  0
   18.8775   19.2827   21.4822 C   0  0  0  0  0  0  0  0  0  0  0  0
   18.1390   19.2291   22.2925 H   0  0  0  0  0  0  0  0  0  0  0  0
   18.2854   19.3551   20.5596 H   0  0  0  0  0  0  0  0  0  0  0  0
   19.7159   20.5855   21.5859 C   0  0  0  0  0  0  0  0  0  0  0  0
   20.4144   20.6328   20.7403 H   0  0  0  0  0  0  0  0  0  0  0  0
   19.0273   21.4305   21.4512 H   0  0  0  0  0  0  0  0  0  0  0  0
   20.4901   20.8158   22.9082 C   0  0  0  0  0  0  0  0  0  0  0  0
   19.7937   20.7377   23.7537 H   0  0  0  0  0  0  0  0  0  0  0  0
   21.6843   19.8505   23.1239 C   0  0  0  0  0  0  0  0  0  0  0  0
   22.0226   19.4453   22.1648 H   0  0  0  0  0  0  0  0  0  0  0  0
   22.5446   20.4182   23.5037 H   0  0  0  0  0  0  0  0  0  0  0  0
   21.4242   18.6988   24.1294 C   0  0  0  0  0  0  0  0  0  0  0  0
   21.4979   19.1152   25.1435 H   0  0  0  0  0  0  0  0  0  0  0  0
   22.2374   17.9648   24.0492 H   0  0  0  0  0  0  0  0  0  0  0  0
   20.0623   17.9679   24.0238 C   0  0  0  0  0  0  0  0  0  0  0  0
   19.2365   18.6649   24.2068 H   0  0  0  0  0  0  0  0  0  0  0  0
   20.0105   17.2538   24.8569 H   0  0  0  0  0  0  0  0  0  0  0  0
   20.9936   22.1453   22.8764 O   0  0  0  0  0  0  0  0  0  0  0  0
   21.6068   22.1908   22.1142 H   0  0  0  0  0  0  0  0  0  0  0  0
  1  2  1  0  0  0  0
  1  3  1  0  0  0  0
  1  4  1  0  0  0  0
  4  5  1  0  0  0  0
  4  6  1  0  0  0  0
  4  7  1  0  0  0  0
  7  8  1  0  0  0  0
  7  9  1  0  0  0  0
  7 10  1  0  0  0  0
 10 11  1  0  0  0  0
 10 12  1  0  0  0  0
 10 13  1  0  0  0  0
 13 14  1  0  0  0  0
 13 15  1  0  0  0  0
 15 16  1  0  0  0  0
 15 17  1  0  0  0  0
 15 18  1  0  0  0  0
 18 19  1  0  0  0  0
 18 20  1  0  0  0  0
  1 21  1  0  0  0  0
 18 21  1  0  0  0  0
 21 22  1  0  0  0  0
 21 23  1  0  0  0  0
 13 24  1  0  0  0  0
 24 25  1  0  0  0  0
M  END
> <VConfSearch Rank>
544

> <Conf_Id>
68

> <Delta U+W>
-1.765

> <U+W>
9.148

> <U>
11.181

> <W>
-2.032

> <W(PB)>
-4.147

> <W(SA)>
2.114

> <Valence>
16.955

> <Coulomb>
-8.661

> <VdW>
2.887

> <VdW6>
-12.561

> <VdW12>
15.448

> <Bond>
0.433

> <Angle>
5.121

> <Pdih>
11.402

> <Idih>
0.000

> <Tether>
0.000

$$$$
VeraChem MOL file


 25 25  0  0  0  0  0  0  0  0999 V2000     
   22.0955   19.0141   22.5366 C   0  0  0  0  0  0  0  0  0  0  0  0
   23.1917   19.0295   22.4640 H   0  0  0  0  0  0  0  0  0  0  0  0
   21.8202   17.9885   22.2662 H   0  0  0  0  0  0  0  0  0  0  0  0
   21.5308   20.0214   21.5013 C   0  0  0  0  0  0  0  0  0  0  0  0
   21.3402   20.9986   21.9633 H   0  0  0  0  0  0  0  0  0  0  0  0
   22.3177   20.2059   20.7572 H   0  0  0  0  0  0  0  0  0  0  0  0
   20.2819   19.5264   20.7256 C   0  0  0  0  0  0  0  0  0  0  0  0
   20.5133   18.5716   20.2337 H   0  0  0  0  0  0  0  0  0  0  0  0
   20.0913   20.2384   19.9110 H   0  0  0  0  0  0  0  0  0  0  0  0
   18.9691   19.3786   21.5401 C   0  0  0  0  0  0  0  0  0  0  0  0
   18.7054   20.3312   22.0149 H   0  0  0  0  0  0  0  0  0  0  0  0
   18.1671   19.1862   20.8146 H   0  0  0  0  0  0  0  0  0  0  0  0
   18.9831   18.2269   22.5785 C   0  0  0  0  0  0  0  0  0  0  0  0
   19.7730   17.5151   22.3121 H   0  0  0  0  0  0  0  0  0  0  0  0
   19.1810   18.6792   24.0463 C   0  0  0  0  0  0  0  0  0  0  0  0
   18.2312   19.0874   24.4162 H   0  0  0  0  0  0  0  0  0  0  0  0
   19.3847   17.7907   24.6581 H   0  0  0  0  0  0  0  0  0  0  0  0
   20.2779   19.7407   24.3184 C   0  0  0  0  0  0  0  0  0  0  0  0
   20.2278   19.9965   25.3856 H   0  0  0  0  0  0  0  0  0  0  0  0
   20.0431   20.6766   23.7986 H   0  0  0  0  0  0  0  0  0  0  0  0
   21.7344   19.3078   24.0159 C   0  0  0  0  0  0  0  0  0  0  0  0
   21.9865   18.4294   24.6255 H   0  0  0  0  0  0  0  0  0  0  0  0
   22.3949   20.1119   24.3680 H   0  0  0  0  0  0  0  0  0  0  0  0
   17.7410   17.5378   22.5075 O   0  0  0  0  0  0  0  0  0  0  0  0
   17.0479   18.1925   22.7306 H   0  0  0  0  0  0  0  0  0  0  0  0
  1  2  1  0  0  0  0
  1  3  1  0  0  0  0
  1  4  1  0  0  0  0
  4  5  1  0  0  0  0
  4  6  1  0  0  0  0
  4  7  1  0  0  0  0
  7  8  1  0  0  0  0
  7  9  1  0  0  0  0
  7 10  1  0  0  0  0
 10 11  1  0  0  0  0
 10 12  1  0  0  0  0
 10 13  1  0  0  0  0
 13 14  1  0  0  0  0
 13 15  1  0  0  0  0
 15 16  1  0  0  0  0
 15 17  1  0  0  0  0
 15 18  1  0  0  0  0
 18 19  1  0  0  0  0
 18 20  1  0  0  0  0
  1 21  1  0  0  0  0
 18 21  1  0  0  0  0
 21 22  1  0  0  0  0
 21 23  1  0  0  0  0
 13 24  1  0  0  0  0
 24 25  1  0  0  0  0
M  END
> <VConfSearch Rank>
545

> <Conf_Id>
165

> <Delta U+W>
-1.999

> <U+W>
8.915

> <U>
10.935

> <W>
-2.020

> <W(PB)>
-4.135

> <W(SA)>
2.115

> <Valence>
16.757

> <Coulomb>
-8.731

> <VdW>
2.908

> <VdW6>
-12.597

> <VdW12>
15.506

> <Bond>
0.434

> <Angle>
5.069

> <Pdih>
11.254

> <Idih>
0.000

> <Tether>
0.000

$$$$
VeraChem MOL file


 25 25  0  0  0  0  0  0  0  0999 V2000     
   19.8159   17.4210   22.8546 C   0  0  0  0  0  0  0  0  0  0  0  0
   19.4966   16.3892   23.0561 H   0  0  0  0  0  0  0  0  0  0  0  0
   20.0275   17.4341   21.7795 H   0  0  0  0  0  0  0  0  0  0  0  0
   21.1111   17.6631   23.6726 C   0  0  0  0  0  0  0  0  0  0  0  0
   20.9701   17.2096   24.6633 H   0  0  0  0  0  0  0  0  0  0  0  0
   21.9361   17.1067   23.2074 H   0  0  0  0  0  0  0  0  0  0  0  0
   21.5455   19.1334   23.8958 C   0  0  0  0  0  0  0  0  0  0  0  0
   22.4140   19.1197   24.5683 H   0  0  0  0  0  0  0  0  0  0  0  0
   20.7741   19.6782   24.4522 H   0  0  0  0  0  0  0  0  0  0  0  0
   21.9572   19.9226   22.6263 C   0  0  0  0  0  0  0  0  0  0  0  0
   22.3388   20.8986   22.9553 H   0  0  0  0  0  0  0  0  0  0  0  0
   22.8037   19.4113   22.1501 H   0  0  0  0  0  0  0  0  0  0  0  0
   20.8617   20.1665   21.5594 C   0  0  0  0  0  0  0  0  0  0  0  0
   20.7145   19.2500   20.9761 H   0  0  0  0  0  0  0  0  0  0  0  0
   19.4948   20.6252   22.1297 C   0  0  0  0  0  0  0  0  0  0  0  0
   19.6180   21.0815   23.1191 H   0  0  0  0  0  0  0  0  0  0  0  0
   19.1048   21.4292   21.4910 H   0  0  0  0  0  0  0  0  0  0  0  0
   18.4094   19.5166   22.1735 C   0  0  0  0  0  0  0  0  0  0  0  0
   18.2802   19.0955   21.1671 H   0  0  0  0  0  0  0  0  0  0  0  0
   17.4517   19.9964   22.4171 H   0  0  0  0  0  0  0  0  0  0  0  0
   18.6312   18.3646   23.1887 C   0  0  0  0  0  0  0  0  0  0  0  0
   17.7156   17.7575   23.1892 H   0  0  0  0  0  0  0  0  0  0  0  0
   18.7140   18.7568   24.2105 H   0  0  0  0  0  0  0  0  0  0  0  0
   21.3438   21.1732   20.6764 O   0  0  0  0  0  0  0  0  0  0  0  0
   22.1833   20.8381   20.2977 H   0  0  0  0  0  0  0  0  0  0  0  0
  1  2  1  0  0  0  0
  1  3  1  0  0  0  0
  1  4  1  0  0  0  0
  4  5  1  0  0  0  0
  4  6  1  0  0  0  0
  4  7  1  0  0  0  0
  7  8  1  0  0  0  0
  7  9  1  0  0  0  0
  7 10  1  0  0  0  0
 10 11  1  0  0  0  0
 10 12  1  0  0  0  0
 10 13  1  0  0  0  0
 13 14  1  0  0  0  0
 13 15  1  0  0  0  0
 15 16  1  0  0  0  0
 15 17  1  0  0  0  0
 15 18  1  0  0  0  0
 18 19  1  0  0  0  0
 18 20  1  0  0  0  0
  1 21  1  0  0  0  0
 18 21  1  0  0  0  0
 21 22  1  0  0  0  0
 21 23  1  0  0  0  0
 13 24  1  0  0  0  0
 24 25  1  0  0  0  0
M  END
> <VConfSearch Rank>
546

> <Conf_Id>
133

> <Delta U+W>
-2.139

> <U+W>
8.774

> <U>
10.905

> <W>
-2.131

> <W(PB)>
-4.281

> <W(SA)>
2.150

> <Valence>
16.378

> <Coulomb>
-8.448

> <VdW>
2.976

> <VdW6>
-12.570

> <VdW12>
15.545

> <Bond>
0.439

> <Angle>
5.049

> <Pdih>
10.889

> <Idih>
0.000

> <Tether>
0.000

$$$$
VeraChem MOL file


 25 25  0  0  0  0  0  0  0  0999 V2000     
   20.6721   20.1931   21.1418 C   0  0  0  0  0  0  0  0  0  0  0  0
   20.8539   20.8344   20.2684 H   0  0  0  0  0  0  0  0  0  0  0  0
   21.0679   19.2148   20.8468 H   0  0  0  0  0  0  0  0  0  0  0  0
   19.1401   20.1153   21.3705 C   0  0  0  0  0  0  0  0  0  0  0  0
   18.8117   20.8602   22.1067 H   0  0  0  0  0  0  0  0  0  0  0  0
   18.6509   20.4074   20.4312 H   0  0  0  0  0  0  0  0  0  0  0  0
   18.6070   18.7057   21.7387 C   0  0  0  0  0  0  0  0  0  0  0  0
   18.9064   17.9886   20.9621 H   0  0  0  0  0  0  0  0  0  0  0  0
   17.5098   18.7425   21.6979 H   0  0  0  0  0  0  0  0  0  0  0  0
   19.0090   18.1506   23.1312 C   0  0  0  0  0  0  0  0  0  0  0  0
   18.6910   18.8371   23.9247 H   0  0  0  0  0  0  0  0  0  0  0  0
   18.4220   17.2363   23.2924 H   0  0  0  0  0  0  0  0  0  0  0  0
   20.5123   17.7990   23.2752 C   0  0  0  0  0  0  0  0  0  0  0  0
   20.9472   17.6793   22.2760 H   0  0  0  0  0  0  0  0  0  0  0  0
   21.3434   18.8331   24.0736 C   0  0  0  0  0  0  0  0  0  0  0  0
   21.1322   18.6915   25.1422 H   0  0  0  0  0  0  0  0  0  0  0  0
   22.4088   18.6041   23.9426 H   0  0  0  0  0  0  0  0  0  0  0  0
   21.1097   20.3312   23.7491 C   0  0  0  0  0  0  0  0  0  0  0  0
   21.7182   20.9167   24.4517 H   0  0  0  0  0  0  0  0  0  0  0  0
   20.0758   20.6155   23.9758 H   0  0  0  0  0  0  0  0  0  0  0  0
   21.4915   20.7855   22.3179 C   0  0  0  0  0  0  0  0  0  0  0  0
   22.5579   20.5865   22.1455 H   0  0  0  0  0  0  0  0  0  0  0  0
   21.3850   21.8783   22.2822 H   0  0  0  0  0  0  0  0  0  0  0  0
   20.6218   16.5513   23.9512 O   0  0  0  0  0  0  0  0  0  0  0  0
   21.5765   16.3331   23.9879 H   0  0  0  0  0  0  0  0  0  0  0  0
  1  2  1  0  0  0  0
  1  3  1  0  0  0  0
  1  4  1  0  0  0  0
  4  5  1  0  0  0  0
  4  6  1  0  0  0  0
  4  7  1  0  0  0  0
  7  8  1  0  0  0  0
  7  9  1  0  0  0  0
  7 10  1  0  0  0  0
 10 11  1  0  0  0  0
 10 12  1  0  0  0  0
 10 13  1  0  0  0  0
 13 14  1  0  0  0  0
 13 15  1  0  0  0  0
 15 16  1  0  0  0  0
 15 17  1  0  0  0  0
 15 18  1  0  0  0  0
 18 19  1  0  0  0  0
 18 20  1  0  0  0  0
  1 21  1  0  0  0  0
 18 21  1  0  0  0  0
 21 22  1  0  0  0  0
 21 23  1  0  0  0  0
 13 24  1  0  0  0  0
 24 25  1  0  0  0  0
M  END
> <VConfSearch Rank>
547

> <Conf_Id>
95

> <Delta U+W>
-2.190

> <U+W>
8.723

> <U>
10.905

> <W>
-2.182

> <W(PB)>
-4.296

> <W(SA)>
2.114

> <Valence>
16.377

> <Coulomb>
-8.448

> <VdW>
2.976

> <VdW6>
-12.570

> <VdW12>
15.546

> <Bond>
0.439

> <Angle>
5.049

> <Pdih>
10.889

> <Idih>
0.000

> <Tether>
0.000

$$$$
VeraChem MOL file


 25 25  0  0  0  0  0  0  0  0999 V2000     
   20.2369   17.3529   22.7913 C   0  0  0  0  0  0  0  0  0  0  0  0
   20.0859   16.2659   22.8419 H   0  0  0  0  0  0  0  0  0  0  0  0
   21.1623   17.5071   23.3553 H   0  0  0  0  0  0  0  0  0  0  0  0
   19.0269   18.0146   23.5140 C   0  0  0  0  0  0  0  0  0  0  0  0
   18.1442   17.3928   23.3116 H   0  0  0  0  0  0  0  0  0  0  0  0
   19.1837   17.9543   24.5995 H   0  0  0  0  0  0  0  0  0  0  0  0
   18.6505   19.4700   23.1308 C   0  0  0  0  0  0  0  0  0  0  0  0
   17.7140   19.7184   23.6487 H   0  0  0  0  0  0  0  0  0  0  0  0
   18.3744   19.5051   22.0722 H   0  0  0  0  0  0  0  0  0  0  0  0
   19.6763   20.5908   23.4742 C   0  0  0  0  0  0  0  0  0  0  0  0
   19.4682   21.4668   22.8459 H   0  0  0  0  0  0  0  0  0  0  0  0
   19.4711   20.9091   24.5047 H   0  0  0  0  0  0  0  0  0  0  0  0
   21.1866   20.2542   23.3896 C   0  0  0  0  0  0  0  0  0  0  0  0
   21.3836   19.4086   24.0567 H   0  0  0  0  0  0  0  0  0  0  0  0
   21.7624   19.9476   21.9771 C   0  0  0  0  0  0  0  0  0  0  0  0
   22.0364   20.9027   21.5093 H   0  0  0  0  0  0  0  0  0  0  0  0
   22.7046   19.3987   22.1009 H   0  0  0  0  0  0  0  0  0  0  0  0
   20.8668   19.1887   20.9607 C   0  0  0  0  0  0  0  0  0  0  0  0
   21.4012   19.1643   20.0013 H   0  0  0  0  0  0  0  0  0  0  0  0
   19.9780   19.7893   20.7430 H   0  0  0  0  0  0  0  0  0  0  0  0
   20.4737   17.7218   21.3030 C   0  0  0  0  0  0  0  0  0  0  0  0
   21.2798   17.0716   20.9365 H   0  0  0  0  0  0  0  0  0  0  0  0
   19.5866   17.4459   20.7170 H   0  0  0  0  0  0  0  0  0  0  0  0
   21.9008   21.3724   23.9035 O   0  0  0  0  0  0  0  0  0  0  0  0
   21.5784   21.5184   24.8172 H   0  0  0  0  0  0  0  0  0  0  0  0
  1  2  1  0  0  0  0
  1  3  1  0  0  0  0
  1  4  1  0  0  0  0
  4  5  1  0  0  0  0
  4  6  1  0  0  0  0
  4  7  1  0  0  0  0
  7  8  1  0  0  0  0
  7  9  1  0  0  0  0
  7 10  1  0  0  0  0
 10 11  1  0  0  0  0
 10 12  1  0  0  0  0
 10 13  1  0  0  0  0
 13 14  1  0  0  0  0
 13 15  1  0  0  0  0
 15 16  1  0  0  0  0
 15 17  1  0  0  0  0
 15 18  1  0  0  0  0
 18 19  1  0  0  0  0
 18 20  1  0  0  0  0
  1 21  1  0  0  0  0
 18 21  1  0  0  0  0
 21 22  1  0  0  0  0
 21 23  1  0  0  0  0
 13 24  1  0  0  0  0
 24 25  1  0  0  0  0
M  END
> <VConfSearch Rank>
548

> <Conf_Id>
161

> <Delta U+W>
2.120

> <U+W>
13.033

> <U>
15.076

> <W>
-2.043

> <W(PB)>
-4.186

> <W(SA)>
2.143

> <Valence>
18.884

> <Coulomb>
-8.074

> <VdW>
4.266

> <VdW6>
-13.486

> <VdW12>
17.752

> <Bond>
0.713

> <Angle>
8.955

> <Pdih>
9.215

> <Idih>
0.000

> <Tether>
0.000

$$$$
VeraChem MOL file


 25 25  0  0  0  0  0  0  0  0999 V2000     
   18.7812   18.0479   22.1569 C   0  0  0  0  0  0  0  0  0  0  0  0
   18.0504   17.4004   21.6532 H   0  0  0  0  0  0  0  0  0  0  0  0
   18.2944   18.3409   23.0958 H   0  0  0  0  0  0  0  0  0  0  0  0
   19.0081   19.2956   21.2674 C   0  0  0  0  0  0  0  0  0  0  0  0
   19.7865   19.1036   20.5168 H   0  0  0  0  0  0  0  0  0  0  0  0
   18.0837   19.4499   20.6939 H   0  0  0  0  0  0  0  0  0  0  0  0
   19.2843   20.6163   22.0386 C   0  0  0  0  0  0  0  0  0  0  0  0
   18.6853   20.6714   22.9576 H   0  0  0  0  0  0  0  0  0  0  0  0
   18.9191   21.4360   21.4047 H   0  0  0  0  0  0  0  0  0  0  0  0
   20.7776   20.9102   22.3357 C   0  0  0  0  0  0  0  0  0  0  0  0
   21.4011   20.5351   21.5151 H   0  0  0  0  0  0  0  0  0  0  0  0
   20.9128   21.9997   22.3184 H   0  0  0  0  0  0  0  0  0  0  0  0
   21.3123   20.4221   23.7060 C   0  0  0  0  0  0  0  0  0  0  0  0
   20.8569   21.0467   24.4878 H   0  0  0  0  0  0  0  0  0  0  0  0
   21.0292   18.9460   24.0691 C   0  0  0  0  0  0  0  0  0  0  0  0
   21.6492   18.6798   24.9356 H   0  0  0  0  0  0  0  0  0  0  0  0
   19.9999   18.8604   24.4338 H   0  0  0  0  0  0  0  0  0  0  0  0
   21.2995   17.9285   22.9285 C   0  0  0  0  0  0  0  0  0  0  0  0
   22.0231   17.1826   23.2846 H   0  0  0  0  0  0  0  0  0  0  0  0
   21.7888   18.4100   22.0742 H   0  0  0  0  0  0  0  0  0  0  0  0
   20.0363   17.1804   22.4393 C   0  0  0  0  0  0  0  0  0  0  0  0
   19.7658   16.4201   23.1847 H   0  0  0  0  0  0  0  0  0  0  0  0
   20.2967   16.6254   21.5277 H   0  0  0  0  0  0  0  0  0  0  0  0
   22.7190   20.6207   23.7235 O   0  0  0  0  0  0  0  0  0  0  0  0
   23.0918   19.9503   23.1157 H   0  0  0  0  0  0  0  0  0  0  0  0
  1  2  1  0  0  0  0
  1  3  1  0  0  0  0
  1  4  1  0  0  0  0
  4  5  1  0  0  0  0
  4  6  1  0  0  0  0
  4  7  1  0  0  0  0
  7  8  1  0  0  0  0
  7  9  1  0  0  0  0
  7 10  1  0  0  0  0
 10 11  1  0  0  0  0
 10 12  1  0  0  0  0
 10 13  1  0  0  0  0
 13 14  1  0  0  0  0
 13 15  1  0  0  0  0
 15 16  1  0  0  0  0
 15 17  1  0  0  0  0
 15 18  1  0  0  0  0
 18 19  1  0  0  0  0
 18 20  1  0  0  0  0
  1 21  1  0  0  0  0
 18 21  1  0  0  0  0
 21 22  1  0  0  0  0
 21 23  1  0  0  0  0
 13 24  1  0  0  0  0
 24 25  1  0  0  0  0
M  END
> <VConfSearch Rank>
549

> <Conf_Id>
164

> <Delta U+W>
0.008

> <U+W>
10.922

> <U>
12.433

> <W>
-1.511

> <W(PB)>
-3.669

> <W(SA)>
2.157

> <Valence>
19.007

> <Coulomb>
-9.373

> <VdW>
2.799

> <VdW6>
-12.597

> <VdW12>
15.396

> <Bond>
0.425

> <Angle>
4.784

> <Pdih>
13.799

> <Idih>
0.000

> <Tether>
0.000

$$$$
VeraChem MOL file


 25 25  0  0  0  0  0  0  0  0999 V2000     
   19.9140   18.6702   20.9468 C   0  0  0  0  0  0  0  0  0  0  0  0
   20.9893   18.4906   21.0587 H   0  0  0  0  0  0  0  0  0  0  0  0
   19.6839   18.3406   19.9245 H   0  0  0  0  0  0  0  0  0  0  0  0
   19.6087   20.1871   21.0204 C   0  0  0  0  0  0  0  0  0  0  0  0
   20.1603   20.6735   20.2043 H   0  0  0  0  0  0  0  0  0  0  0  0
   18.5455   20.3544   20.8010 H   0  0  0  0  0  0  0  0  0  0  0  0
   19.9713   20.9179   22.3385 C   0  0  0  0  0  0  0  0  0  0  0  0
   19.1756   20.7897   23.0811 H   0  0  0  0  0  0  0  0  0  0  0  0
   19.9735   21.9949   22.1216 H   0  0  0  0  0  0  0  0  0  0  0  0
   21.3491   20.5431   22.9467 C   0  0  0  0  0  0  0  0  0  0  0  0
   22.0297   20.1655   22.1740 H   0  0  0  0  0  0  0  0  0  0  0  0
   21.8089   21.4721   23.3096 H   0  0  0  0  0  0  0  0  0  0  0  0
   21.2873   19.5690   24.1499 C   0  0  0  0  0  0  0  0  0  0  0  0
   20.5919   19.9856   24.8924 H   0  0  0  0  0  0  0  0  0  0  0  0
   20.8503   18.1148   23.8419 C   0  0  0  0  0  0  0  0  0  0  0  0
   21.5144   17.6573   23.0987 H   0  0  0  0  0  0  0  0  0  0  0  0
   20.9999   17.5336   24.7617 H   0  0  0  0  0  0  0  0  0  0  0  0
   19.3623   17.9532   23.4315 C   0  0  0  0  0  0  0  0  0  0  0  0
   18.7637   18.7849   23.8203 H   0  0  0  0  0  0  0  0  0  0  0  0
   18.9609   17.0653   23.9390 H   0  0  0  0  0  0  0  0  0  0  0  0
   19.1111   17.7645   21.9136 C   0  0  0  0  0  0  0  0  0  0  0  0
   18.0375   17.8813   21.7127 H   0  0  0  0  0  0  0  0  0  0  0  0
   19.3486   16.7220   21.6611 H   0  0  0  0  0  0  0  0  0  0  0  0
   22.5843   19.5157   24.7280 O   0  0  0  0  0  0  0  0  0  0  0  0
   23.1765   19.1419   24.0437 H   0  0  0  0  0  0  0  0  0  0  0  0
  1  2  1  0  0  0  0
  1  3  1  0  0  0  0
  1  4  1  0  0  0  0
  4  5  1  0  0  0  0
  4  6  1  0  0  0  0
  4  7  1  0  0  0  0
  7  8  1  0  0  0  0
  7  9  1  0  0  0  0
  7 10  1  0  0  0  0
 10 11  1  0  0  0  0
 10 12  1  0  0  0  0
 10 13  1  0  0  0  0
 13 14  1  0  0  0  0
 13 15  1  0  0  0  0
 15 16  1  0  0  0  0
 15 17  1  0  0  0  0
 15 18  1  0  0  0  0
 18 19  1  0  0  0  0
 18 20  1  0  0  0  0
  1 21  1  0  0  0  0
 18 21  1  0  0  0  0
 21 22  1  0  0  0  0
 21 23  1  0  0  0  0
 13 24  1  0  0  0  0
 24 25  1  0  0  0  0
M  END
> <VConfSearch Rank>
550

> <Conf_Id>
15

> <Delta U+W>
-1.271

> <U+W>
9.643

> <U>
11.413

> <W>
-1.770

> <W(PB)>
-3.908

> <W(SA)>
2.138

> <Valence>
17.496

> <Coulomb>
-8.736

> <VdW>
2.653

> <VdW6>
-12.485

> <VdW12>
15.138

> <Bond>
0.414

> <Angle>
5.295

> <Pdih>
11.787

> <Idih>
0.000

> <Tether>
0.000

$$$$
VeraChem MOL file


 25 25  0  0  0  0  0  0  0  0999 V2000     
   21.5039   17.9452   21.8144 C   0  0  0  0  0  0  0  0  0  0  0  0
   22.1492   17.3278   21.1746 H   0  0  0  0  0  0  0  0  0  0  0  0
   21.0945   17.2470   22.5554 H   0  0  0  0  0  0  0  0  0  0  0  0
   22.4171   18.9960   22.4991 C   0  0  0  0  0  0  0  0  0  0  0  0
   23.0922   18.4659   23.1846 H   0  0  0  0  0  0  0  0  0  0  0  0
   23.0638   19.4543   21.7384 H   0  0  0  0  0  0  0  0  0  0  0  0
   21.7079   20.1290   23.2793 C   0  0  0  0  0  0  0  0  0  0  0  0
   21.3380   20.8834   22.5752 H   0  0  0  0  0  0  0  0  0  0  0  0
   22.4631   20.6531   23.8808 H   0  0  0  0  0  0  0  0  0  0  0  0
   20.5750   19.6391   24.2185 C   0  0  0  0  0  0  0  0  0  0  0  0
   20.5727   18.5459   24.2913 H   0  0  0  0  0  0  0  0  0  0  0  0
   20.7923   19.9891   25.2361 H   0  0  0  0  0  0  0  0  0  0  0  0
   19.1648   20.1485   23.8418 C   0  0  0  0  0  0  0  0  0  0  0  0
   19.1112   21.2118   24.1163 H   0  0  0  0  0  0  0  0  0  0  0  0
   18.7659   20.0427   22.3471 C   0  0  0  0  0  0  0  0  0  0  0  0
   17.6957   20.2811   22.2834 H   0  0  0  0  0  0  0  0  0  0  0  0
   19.2572   20.8358   21.7707 H   0  0  0  0  0  0  0  0  0  0  0  0
   18.9941   18.6731   21.6535 C   0  0  0  0  0  0  0  0  0  0  0  0
   18.2185   18.5766   20.8812 H   0  0  0  0  0  0  0  0  0  0  0  0
   18.8147   17.8420   22.3476 H   0  0  0  0  0  0  0  0  0  0  0  0
   20.3626   18.5138   20.9355 C   0  0  0  0  0  0  0  0  0  0  0  0
   20.6705   19.4517   20.4542 H   0  0  0  0  0  0  0  0  0  0  0  0
   20.2092   17.8020   20.1127 H   0  0  0  0  0  0  0  0  0  0  0  0
   18.2128   19.4301   24.6140 O   0  0  0  0  0  0  0  0  0  0  0  0
   18.2276   18.5136   24.2720 H   0  0  0  0  0  0  0  0  0  0  0  0
  1  2  1  0  0  0  0
  1  3  1  0  0  0  0
  1  4  1  0  0  0  0
  4  5  1  0  0  0  0
  4  6  1  0  0  0  0
  4  7  1  0  0  0  0
  7  8  1  0  0  0  0
  7  9  1  0  0  0  0
  7 10  1  0  0  0  0
 10 11  1  0  0  0  0
 10 12  1  0  0  0  0
 10 13  1  0  0  0  0
 13 14  1  0  0  0  0
 13 15  1  0  0  0  0
 15 16  1  0  0  0  0
 15 17  1  0  0  0  0
 15 18  1  0  0  0  0
 18 19  1  0  0  0  0
 18 20  1  0  0  0  0
  1 21  1  0  0  0  0
 18 21  1  0  0  0  0
 21 22  1  0  0  0  0
 21 23  1  0  0  0  0
 13 24  1  0  0  0  0
 24 25  1  0  0  0  0
M  END
> <VConfSearch Rank>
551

> <Conf_Id>
115

> <Delta U+W>
0.038

> <U+W>
10.952

> <U>
12.526

> <W>
-1.575

> <W(PB)>
-3.698

> <W(SA)>
2.123

> <Valence>
19.016

> <Coulomb>
-9.226

> <VdW>
2.737

> <VdW6>
-12.612

> <VdW12>
15.349

> <Bond>
0.421

> <Angle>
4.883

> <Pdih>
13.711

> <Idih>
0.000

> <Tether>
0.000

$$$$
VeraChem MOL file


 25 25  0  0  0  0  0  0  0  0999 V2000     
   20.1495   17.2459   21.9365 C   0  0  0  0  0  0  0  0  0  0  0  0
   20.2800   16.1575   22.0092 H   0  0  0  0  0  0  0  0  0  0  0  0
   19.4615   17.4041   21.0949 H   0  0  0  0  0  0  0  0  0  0  0  0
   21.5335   17.8551   21.6126 C   0  0  0  0  0  0  0  0  0  0  0  0
   22.2547   17.5919   22.3983 H   0  0  0  0  0  0  0  0  0  0  0  0
   21.9013   17.3676   20.6994 H   0  0  0  0  0  0  0  0  0  0  0  0
   21.5395   19.3826   21.3721 C   0  0  0  0  0  0  0  0  0  0  0  0
   20.6703   19.6770   20.7689 H   0  0  0  0  0  0  0  0  0  0  0  0
   22.4164   19.6141   20.7519 H   0  0  0  0  0  0  0  0  0  0  0  0
   21.6466   20.2328   22.6665 C   0  0  0  0  0  0  0  0  0  0  0  0
   21.9385   19.6160   23.5257 H   0  0  0  0  0  0  0  0  0  0  0  0
   22.4715   20.9439   22.5237 H   0  0  0  0  0  0  0  0  0  0  0  0
   20.3753   21.0432   23.0056 C   0  0  0  0  0  0  0  0  0  0  0  0
   19.9146   21.3906   22.0698 H   0  0  0  0  0  0  0  0  0  0  0  0
   19.3198   20.2715   23.8284 C   0  0  0  0  0  0  0  0  0  0  0  0
   19.7453   19.9700   24.7946 H   0  0  0  0  0  0  0  0  0  0  0  0
   18.5079   20.9717   24.0651 H   0  0  0  0  0  0  0  0  0  0  0  0
   18.6890   19.0484   23.1193 C   0  0  0  0  0  0  0  0  0  0  0  0
   18.4780   19.2828   22.0673 H   0  0  0  0  0  0  0  0  0  0  0  0
   17.7073   18.8737   23.5806 H   0  0  0  0  0  0  0  0  0  0  0  0
   19.5045   17.7359   23.2542 C   0  0  0  0  0  0  0  0  0  0  0  0
   18.8114   16.9519   23.5894 H   0  0  0  0  0  0  0  0  0  0  0  0
   20.2612   17.8119   24.0462 H   0  0  0  0  0  0  0  0  0  0  0  0
   20.7671   22.1773   23.7698 O   0  0  0  0  0  0  0  0  0  0  0  0
   19.9570   22.7054   23.9285 H   0  0  0  0  0  0  0  0  0  0  0  0
  1  2  1  0  0  0  0
  1  3  1  0  0  0  0
  1  4  1  0  0  0  0
  4  5  1  0  0  0  0
  4  6  1  0  0  0  0
  4  7  1  0  0  0  0
  7  8  1  0  0  0  0
  7  9  1  0  0  0  0
  7 10  1  0  0  0  0
 10 11  1  0  0  0  0
 10 12  1  0  0  0  0
 10 13  1  0  0  0  0
 13 14  1  0  0  0  0
 13 15  1  0  0  0  0
 15 16  1  0  0  0  0
 15 17  1  0  0  0  0
 15 18  1  0  0  0  0
 18 19  1  0  0  0  0
 18 20  1  0  0  0  0
  1 21  1  0  0  0  0
 18 21  1  0  0  0  0
 21 22  1  0  0  0  0
 21 23  1  0  0  0  0
 13 24  1  0  0  0  0
 24 25  1  0  0  0  0
M  END
> <VConfSearch Rank>
552

> <Conf_Id>
30

> <Delta U+W>
0.000

> <U+W>
10.913

> <U>
13.140

> <W>
-2.227

> <W(PB)>
-4.367

> <W(SA)>
2.140

> <Valence>
19.155

> <Coulomb>
-8.157

> <VdW>
2.142

> <VdW6>
-11.576

> <VdW12>
13.718

> <Bond>
0.294

> <Angle>
3.547

> <Pdih>
15.314

> <Idih>
0.000

> <Tether>
0.000

$$$$
VeraChem MOL file


 25 25  0  0  0  0  0  0  0  0999 V2000     
   19.0327   20.9615   22.8173 C   0  0  0  0  0  0  0  0  0  0  0  0
   18.8577   21.6901   23.6207 H   0  0  0  0  0  0  0  0  0  0  0  0
   18.3322   21.2305   22.0150 H   0  0  0  0  0  0  0  0  0  0  0  0
   18.6538   19.5539   23.3399 C   0  0  0  0  0  0  0  0  0  0  0  0
   17.7059   19.6405   23.8885 H   0  0  0  0  0  0  0  0  0  0  0  0
   18.4245   18.8962   22.4935 H   0  0  0  0  0  0  0  0  0  0  0  0
   19.7098   18.9121   24.2753 C   0  0  0  0  0  0  0  0  0  0  0  0
   19.2255   18.6476   25.2251 H   0  0  0  0  0  0  0  0  0  0  0  0
   20.4852   19.6369   24.5491 H   0  0  0  0  0  0  0  0  0  0  0  0
   20.3696   17.6332   23.7003 C   0  0  0  0  0  0  0  0  0  0  0  0
   21.2225   17.3663   24.3383 H   0  0  0  0  0  0  0  0  0  0  0  0
   19.6557   16.8040   23.7893 H   0  0  0  0  0  0  0  0  0  0  0  0
   20.8406   17.6912   22.2255 C   0  0  0  0  0  0  0  0  0  0  0  0
   19.9627   17.6997   21.5657 H   0  0  0  0  0  0  0  0  0  0  0  0
   21.7388   18.9011   21.8693 C   0  0  0  0  0  0  0  0  0  0  0  0
   22.3381   19.2002   22.7387 H   0  0  0  0  0  0  0  0  0  0  0  0
   22.4662   18.5753   21.1139 H   0  0  0  0  0  0  0  0  0  0  0  0
   20.9863   20.1217   21.2681 C   0  0  0  0  0  0  0  0  0  0  0  0
   20.1678   19.7999   20.6101 H   0  0  0  0  0  0  0  0  0  0  0  0
   21.6977   20.6442   20.6138 H   0  0  0  0  0  0  0  0  0  0  0  0
   20.4838   21.1583   22.3035 C   0  0  0  0  0  0  0  0  0  0  0  0
   20.5245   22.1507   21.8340 H   0  0  0  0  0  0  0  0  0  0  0  0
   21.1863   21.2189   23.1444 H   0  0  0  0  0  0  0  0  0  0  0  0
   21.5725   16.4980   21.9711 O   0  0  0  0  0  0  0  0  0  0  0  0
   21.7984   16.5033   21.0175 H   0  0  0  0  0  0  0  0  0  0  0  0
  1  2  1  0  0  0  0
  1  3  1  0  0  0  0
  1  4  1  0  0  0  0
  4  5  1  0  0  0  0
  4  6  1  0  0  0  0
  4  7  1  0  0  0  0
  7  8  1  0  0  0  0
  7  9  1  0  0  0  0
  7 10  1  0  0  0  0
 10 11  1  0  0  0  0
 10 12  1  0  0  0  0
 10 13  1  0  0  0  0
 13 14  1  0  0  0  0
 13 15  1  0  0  0  0
 15 16  1  0  0  0  0
 15 17  1  0  0  0  0
 15 18  1  0  0  0  0
 18 19  1  0  0  0  0
 18 20  1  0  0  0  0
  1 21  1  0  0  0  0
 18 21  1  0  0  0  0
 21 22  1  0  0  0  0
 21 23  1  0  0  0  0
 13 24  1  0  0  0  0
 24 25  1  0  0  0  0
M  END
> <VConfSearch Rank>
553

> <Conf_Id>
162

> <Delta U+W>
0.219

> <U+W>
11.132

> <U>
13.296

> <W>
-2.164

> <W(PB)>
-4.311

> <W(SA)>
2.148

> <Valence>
18.607

> <Coulomb>
-8.339

> <VdW>
3.028

> <VdW6>
-12.271

> <VdW12>
15.299

> <Bond>
0.423

> <Angle>
4.488

> <Pdih>
13.696

> <Idih>
0.000

> <Tether>
0.000

$$$$
VeraChem MOL file


 25 25  0  0  0  0  0  0  0  0999 V2000     
   19.1481   20.6127   21.8611 C   0  0  0  0  0  0  0  0  0  0  0  0
   19.5785   21.3351   22.5660 H   0  0  0  0  0  0  0  0  0  0  0  0
   18.4496   21.2004   21.2498 H   0  0  0  0  0  0  0  0  0  0  0  0
   20.2544   20.0622   20.9269 C   0  0  0  0  0  0  0  0  0  0  0  0
   19.9433   19.1122   20.4719 H   0  0  0  0  0  0  0  0  0  0  0  0
   20.3455   20.7687   20.0905 H   0  0  0  0  0  0  0  0  0  0  0  0
   21.6642   19.9419   21.5699 C   0  0  0  0  0  0  0  0  0  0  0  0
   21.8587   20.7749   22.2587 H   0  0  0  0  0  0  0  0  0  0  0  0
   22.3944   20.0604   20.7576 H   0  0  0  0  0  0  0  0  0  0  0  0
   21.9672   18.5814   22.2500 C   0  0  0  0  0  0  0  0  0  0  0  0
   21.4634   17.7716   21.7080 H   0  0  0  0  0  0  0  0  0  0  0  0
   23.0392   18.3778   22.1296 H   0  0  0  0  0  0  0  0  0  0  0  0
   21.6684   18.4892   23.7677 C   0  0  0  0  0  0  0  0  0  0  0  0
   22.4116   19.1046   24.2950 H   0  0  0  0  0  0  0  0  0  0  0  0
   20.2690   18.9694   24.2209 C   0  0  0  0  0  0  0  0  0  0  0  0
   20.1125   18.6573   25.2616 H   0  0  0  0  0  0  0  0  0  0  0  0
   20.2645   20.0639   24.2611 H   0  0  0  0  0  0  0  0  0  0  0  0
   19.0908   18.4423   23.3599 C   0  0  0  0  0  0  0  0  0  0  0  0
   18.3901   17.9037   24.0120 H   0  0  0  0  0  0  0  0  0  0  0  0
   19.4370   17.6904   22.6410 H   0  0  0  0  0  0  0  0  0  0  0  0
   18.3061   19.5488   22.6143 C   0  0  0  0  0  0  0  0  0  0  0  0
   17.6624   20.0708   23.3354 H   0  0  0  0  0  0  0  0  0  0  0  0
   17.6247   19.0653   21.9011 H   0  0  0  0  0  0  0  0  0  0  0  0
   21.8309   17.1316   24.1610 O   0  0  0  0  0  0  0  0  0  0  0  0
   21.6363   17.0909   25.1199 H   0  0  0  0  0  0  0  0  0  0  0  0
  1  2  1  0  0  0  0
  1  3  1  0  0  0  0
  1  4  1  0  0  0  0
  4  5  1  0  0  0  0
  4  6  1  0  0  0  0
  4  7  1  0  0  0  0
  7  8  1  0  0  0  0
  7  9  1  0  0  0  0
  7 10  1  0  0  0  0
 10 11  1  0  0  0  0
 10 12  1  0  0  0  0
 10 13  1  0  0  0  0
 13 14  1  0  0  0  0
 13 15  1  0  0  0  0
 15 16  1  0  0  0  0
 15 17  1  0  0  0  0
 15 18  1  0  0  0  0
 18 19  1  0  0  0  0
 18 20  1  0  0  0  0
  1 21  1  0  0  0  0
 18 21  1  0  0  0  0
 21 22  1  0  0  0  0
 21 23  1  0  0  0  0
 13 24  1  0  0  0  0
 24 25  1  0  0  0  0
M  END
> <VConfSearch Rank>
554

> <Conf_Id>
155

> <Delta U+W>
0.339

> <U+W>
11.252

> <U>
13.420

> <W>
-2.167

> <W(PB)>
-4.325

> <W(SA)>
2.157

> <Valence>
18.609

> <Coulomb>
-8.052

> <VdW>
2.863

> <VdW6>
-12.524

> <VdW12>
15.387

> <Bond>
0.430

> <Angle>
4.724

> <Pdih>
13.455

> <Idih>
0.000

> <Tether>
0.000

$$$$
VeraChem MOL file


 25 25  0  0  0  0  0  0  0  0999 V2000     
   21.1505   17.6050   21.7928 C   0  0  0  0  0  0  0  0  0  0  0  0
   21.2679   17.6923   20.7043 H   0  0  0  0  0  0  0  0  0  0  0  0
   21.5458   16.6130   22.0508 H   0  0  0  0  0  0  0  0  0  0  0  0
   22.0618   18.6488   22.4905 C   0  0  0  0  0  0  0  0  0  0  0  0
   22.0354   18.4859   23.5726 H   0  0  0  0  0  0  0  0  0  0  0  0
   23.1008   18.4151   22.2209 H   0  0  0  0  0  0  0  0  0  0  0  0
   21.8282   20.1499   22.1508 C   0  0  0  0  0  0  0  0  0  0  0  0
   22.4113   20.3776   21.2483 H   0  0  0  0  0  0  0  0  0  0  0  0
   22.2659   20.7674   22.9469 H   0  0  0  0  0  0  0  0  0  0  0  0
   20.3734   20.6228   21.8824 C   0  0  0  0  0  0  0  0  0  0  0  0
   20.4263   21.6597   21.5255 H   0  0  0  0  0  0  0  0  0  0  0  0
   19.9737   20.0833   21.0194 H   0  0  0  0  0  0  0  0  0  0  0  0
   19.3609   20.5771   23.0644 C   0  0  0  0  0  0  0  0  0  0  0  0
   18.3491   20.5292   22.6370 H   0  0  0  0  0  0  0  0  0  0  0  0
   19.5005   19.4221   24.0877 C   0  0  0  0  0  0  0  0  0  0  0  0
   20.4793   19.4896   24.5712 H   0  0  0  0  0  0  0  0  0  0  0  0
   18.7940   19.6183   24.9049 H   0  0  0  0  0  0  0  0  0  0  0  0
   19.2268   17.9709   23.5903 C   0  0  0  0  0  0  0  0  0  0  0  0
   18.1462   17.7924   23.6757 H   0  0  0  0  0  0  0  0  0  0  0  0
   19.6961   17.2626   24.2862 H   0  0  0  0  0  0  0  0  0  0  0  0
   19.6324   17.6044   22.1384 C   0  0  0  0  0  0  0  0  0  0  0  0
   19.0728   18.2300   21.4359 H   0  0  0  0  0  0  0  0  0  0  0  0
   19.2565   16.5924   21.9352 H   0  0  0  0  0  0  0  0  0  0  0  0
   19.4865   21.7932   23.7933 O   0  0  0  0  0  0  0  0  0  0  0  0
   19.3465   22.5220   23.1542 H   0  0  0  0  0  0  0  0  0  0  0  0
  1  2  1  0  0  0  0
  1  3  1  0  0  0  0
  1  4  1  0  0  0  0
  4  5  1  0  0  0  0
  4  6  1  0  0  0  0
  4  7  1  0  0  0  0
  7  8  1  0  0  0  0
  7  9  1  0  0  0  0
  7 10  1  0  0  0  0
 10 11  1  0  0  0  0
 10 12  1  0  0  0  0
 10 13  1  0  0  0  0
 13 14  1  0  0  0  0
 13 15  1  0  0  0  0
 15 16  1  0  0  0  0
 15 17  1  0  0  0  0
 15 18  1  0  0  0  0
 18 19  1  0  0  0  0
 18 20  1  0  0  0  0
  1 21  1  0  0  0  0
 18 21  1  0  0  0  0
 21 22  1  0  0  0  0
 21 23  1  0  0  0  0
 13 24  1  0  0  0  0
 24 25  1  0  0  0  0
M  END
> <VConfSearch Rank>
555

> <Conf_Id>
146

> <Delta U+W>
2.553

> <U+W>
13.466

> <U>
15.643

> <W>
-2.176

> <W(PB)>
-4.307

> <W(SA)>
2.131

> <Valence>
18.916

> <Coulomb>
-7.506

> <VdW>
4.232

> <VdW6>
-13.632

> <VdW12>
17.864

> <Bond>
0.735

> <Angle>
9.140

> <Pdih>
9.042

> <Idih>
0.000

> <Tether>
0.000

$$$$
VeraChem MOL file


 25 25  0  0  0  0  0  0  0  0999 V2000     
   22.2184   19.3405   23.4828 C   0  0  0  0  0  0  0  0  0  0  0  0
   23.1210   19.0711   22.9177 H   0  0  0  0  0  0  0  0  0  0  0  0
   22.5703   19.6316   24.4819 H   0  0  0  0  0  0  0  0  0  0  0  0
   21.3284   18.0840   23.6540 C   0  0  0  0  0  0  0  0  0  0  0  0
   21.9156   17.3425   24.2127 H   0  0  0  0  0  0  0  0  0  0  0  0
   20.4753   18.3069   24.3050 H   0  0  0  0  0  0  0  0  0  0  0  0
   20.8516   17.4022   22.3470 C   0  0  0  0  0  0  0  0  0  0  0  0
   20.3379   16.4725   22.6274 H   0  0  0  0  0  0  0  0  0  0  0  0
   21.7261   17.0934   21.7585 H   0  0  0  0  0  0  0  0  0  0  0  0
   19.8949   18.2168   21.4377 C   0  0  0  0  0  0  0  0  0  0  0  0
   20.4640   18.9144   20.8151 H   0  0  0  0  0  0  0  0  0  0  0  0
   19.4505   17.5112   20.7228 H   0  0  0  0  0  0  0  0  0  0  0  0
   18.7595   18.9667   22.1811 C   0  0  0  0  0  0  0  0  0  0  0  0
   18.6088   18.5176   23.1720 H   0  0  0  0  0  0  0  0  0  0  0  0
   19.0030   20.4890   22.3394 C   0  0  0  0  0  0  0  0  0  0  0  0
   19.1861   20.9295   21.3504 H   0  0  0  0  0  0  0  0  0  0  0  0
   18.0718   20.9456   22.6995 H   0  0  0  0  0  0  0  0  0  0  0  0
   20.1345   20.9216   23.3111 C   0  0  0  0  0  0  0  0  0  0  0  0
   19.9550   20.5263   24.3192 H   0  0  0  0  0  0  0  0  0  0  0  0
   20.0673   22.0132   23.4154 H   0  0  0  0  0  0  0  0  0  0  0  0
   21.5699   20.5878   22.8286 C   0  0  0  0  0  0  0  0  0  0  0  0
   22.2161   21.4457   23.0599 H   0  0  0  0  0  0  0  0  0  0  0  0
   21.6005   20.5109   21.7359 H   0  0  0  0  0  0  0  0  0  0  0  0
   17.5597   18.8057   21.4330 O   0  0  0  0  0  0  0  0  0  0  0  0
   16.8450   19.2351   21.9478 H   0  0  0  0  0  0  0  0  0  0  0  0
  1  2  1  0  0  0  0
  1  3  1  0  0  0  0
  1  4  1  0  0  0  0
  4  5  1  0  0  0  0
  4  6  1  0  0  0  0
  4  7  1  0  0  0  0
  7  8  1  0  0  0  0
  7  9  1  0  0  0  0
  7 10  1  0  0  0  0
 10 11  1  0  0  0  0
 10 12  1  0  0  0  0
 10 13  1  0  0  0  0
 13 14  1  0  0  0  0
 13 15  1  0  0  0  0
 15 16  1  0  0  0  0
 15 17  1  0  0  0  0
 15 18  1  0  0  0  0
 18 19  1  0  0  0  0
 18 20  1  0  0  0  0
  1 21  1  0  0  0  0
 18 21  1  0  0  0  0
 21 22  1  0  0  0  0
 21 23  1  0  0  0  0
 13 24  1  0  0  0  0
 24 25  1  0  0  0  0
M  END
> <VConfSearch Rank>
556

> <Conf_Id>
62

> <Delta U+W>
-1.779

> <U+W>
9.134

> <U>
11.364

> <W>
-2.230

> <W(PB)>
-4.359

> <W(SA)>
2.129

> <Valence>
16.582

> <Coulomb>
-8.150

> <VdW>
2.933

> <VdW6>
-12.531

> <VdW12>
15.464

> <Bond>
0.439

> <Angle>
5.099

> <Pdih>
11.044

> <Idih>
0.000

> <Tether>
0.000

$$$$
VeraChem MOL file


 25 25  0  0  0  0  0  0  0  0999 V2000     
   20.7394   17.3692   22.6218 C   0  0  0  0  0  0  0  0  0  0  0  0
   20.5572   17.5788   23.6820 H   0  0  0  0  0  0  0  0  0  0  0  0
   20.9781   16.2975   22.5888 H   0  0  0  0  0  0  0  0  0  0  0  0
   21.9918   18.1350   22.1272 C   0  0  0  0  0  0  0  0  0  0  0  0
   22.8442   17.7967   22.7320 H   0  0  0  0  0  0  0  0  0  0  0  0
   22.2196   17.8308   21.0966 H   0  0  0  0  0  0  0  0  0  0  0  0
   21.9466   19.6829   22.1963 C   0  0  0  0  0  0  0  0  0  0  0  0
   21.4306   20.0922   21.3204 H   0  0  0  0  0  0  0  0  0  0  0  0
   22.9804   20.0415   22.0983 H   0  0  0  0  0  0  0  0  0  0  0  0
   21.3512   20.2711   23.5036 C   0  0  0  0  0  0  0  0  0  0  0  0
   21.4390   19.5584   24.3328 H   0  0  0  0  0  0  0  0  0  0  0  0
   21.9782   21.1259   23.7893 H   0  0  0  0  0  0  0  0  0  0  0  0
   19.8950   20.7870   23.3830 C   0  0  0  0  0  0  0  0  0  0  0  0
   19.8472   21.4901   22.5390 H   0  0  0  0  0  0  0  0  0  0  0  0
   18.7985   19.7123   23.1767 C   0  0  0  0  0  0  0  0  0  0  0  0
   18.8129   18.9857   23.9980 H   0  0  0  0  0  0  0  0  0  0  0  0
   17.8302   20.2232   23.2608 H   0  0  0  0  0  0  0  0  0  0  0  0
   18.8285   19.0006   21.7975 C   0  0  0  0  0  0  0  0  0  0  0  0
   19.3221   19.6319   21.0500 H   0  0  0  0  0  0  0  0  0  0  0  0
   17.7947   18.9064   21.4378 H   0  0  0  0  0  0  0  0  0  0  0  0
   19.4429   17.5774   21.7997 C   0  0  0  0  0  0  0  0  0  0  0  0
   19.6166   17.2624   20.7619 H   0  0  0  0  0  0  0  0  0  0  0  0
   18.6872   16.8863   22.1974 H   0  0  0  0  0  0  0  0  0  0  0  0
   19.5855   21.4893   24.5803 O   0  0  0  0  0  0  0  0  0  0  0  0
   20.2448   22.2092   24.6648 H   0  0  0  0  0  0  0  0  0  0  0  0
  1  2  1  0  0  0  0
  1  3  1  0  0  0  0
  1  4  1  0  0  0  0
  4  5  1  0  0  0  0
  4  6  1  0  0  0  0
  4  7  1  0  0  0  0
  7  8  1  0  0  0  0
  7  9  1  0  0  0  0
  7 10  1  0  0  0  0
 10 11  1  0  0  0  0
 10 12  1  0  0  0  0
 10 13  1  0  0  0  0
 13 14  1  0  0  0  0
 13 15  1  0  0  0  0
 15 16  1  0  0  0  0
 15 17  1  0  0  0  0
 15 18  1  0  0  0  0
 18 19  1  0  0  0  0
 18 20  1  0  0  0  0
  1 21  1  0  0  0  0
 18 21  1  0  0  0  0
 21 22  1  0  0  0  0
 21 23  1  0  0  0  0
 13 24  1  0  0  0  0
 24 25  1  0  0  0  0
M  END
> <VConfSearch Rank>
557

> <Conf_Id>
121

> <Delta U+W>
-1.283

> <U+W>
9.630

> <U>
11.876

> <W>
-2.246

> <W(PB)>
-4.376

> <W(SA)>
2.130

> <Valence>
17.153

> <Coulomb>
-7.966

> <VdW>
2.689

> <VdW6>
-12.458

> <VdW12>
15.147

> <Bond>
0.421

> <Angle>
5.258

> <Pdih>
11.475

> <Idih>
0.000

> <Tether>
0.000

$$$$
VeraChem MOL file


 25 25  0  0  0  0  0  0  0  0999 V2000     
   21.2642   20.4799   21.6001 C   0  0  0  0  0  0  0  0  0  0  0  0
   20.4949   21.0827   22.0960 H   0  0  0  0  0  0  0  0  0  0  0  0
   21.8220   21.1970   20.9827 H   0  0  0  0  0  0  0  0  0  0  0  0
   20.6111   19.4556   20.6389 C   0  0  0  0  0  0  0  0  0  0  0  0
   20.0373   20.0235   19.8939 H   0  0  0  0  0  0  0  0  0  0  0  0
   21.3968   18.9351   20.0747 H   0  0  0  0  0  0  0  0  0  0  0  0
   19.6613   18.4035   21.2665 C   0  0  0  0  0  0  0  0  0  0  0  0
   20.2332   17.5591   21.6675 H   0  0  0  0  0  0  0  0  0  0  0  0
   19.0708   17.9708   20.4473 H   0  0  0  0  0  0  0  0  0  0  0  0
   18.6781   18.9515   22.3353 C   0  0  0  0  0  0  0  0  0  0  0  0
   18.4970   20.0239   22.1946 H   0  0  0  0  0  0  0  0  0  0  0  0
   17.7061   18.4702   22.1639 H   0  0  0  0  0  0  0  0  0  0  0  0
   19.0751   18.6557   23.8033 C   0  0  0  0  0  0  0  0  0  0  0  0
   19.2495   17.5743   23.8986 H   0  0  0  0  0  0  0  0  0  0  0  0
   20.3237   19.3986   24.3422 C   0  0  0  0  0  0  0  0  0  0  0  0
   20.1916   20.4842   24.2570 H   0  0  0  0  0  0  0  0  0  0  0  0
   20.3833   19.1982   25.4200 H   0  0  0  0  0  0  0  0  0  0  0  0
   21.6717   18.9494   23.7174 C   0  0  0  0  0  0  0  0  0  0  0  0
   21.5926   17.9295   23.3244 H   0  0  0  0  0  0  0  0  0  0  0  0
   22.4158   18.8764   24.5225 H   0  0  0  0  0  0  0  0  0  0  0  0
   22.2539   19.9030   22.6429 C   0  0  0  0  0  0  0  0  0  0  0  0
   23.0746   19.3929   22.1207 H   0  0  0  0  0  0  0  0  0  0  0  0
   22.7159   20.7531   23.1632 H   0  0  0  0  0  0  0  0  0  0  0  0
   17.9714   19.0144   24.6253 O   0  0  0  0  0  0  0  0  0  0  0  0
   18.2067   18.7603   25.5419 H   0  0  0  0  0  0  0  0  0  0  0  0
  1  2  1  0  0  0  0
  1  3  1  0  0  0  0
  1  4  1  0  0  0  0
  4  5  1  0  0  0  0
  4  6  1  0  0  0  0
  4  7  1  0  0  0  0
  7  8  1  0  0  0  0
  7  9  1  0  0  0  0
  7 10  1  0  0  0  0
 10 11  1  0  0  0  0
 10 12  1  0  0  0  0
 10 13  1  0  0  0  0
 13 14  1  0  0  0  0
 13 15  1  0  0  0  0
 15 16  1  0  0  0  0
 15 17  1  0  0  0  0
 15 18  1  0  0  0  0
 18 19  1  0  0  0  0
 18 20  1  0  0  0  0
  1 21  1  0  0  0  0
 18 21  1  0  0  0  0
 21 22  1  0  0  0  0
 21 23  1  0  0  0  0
 13 24  1  0  0  0  0
 24 25  1  0  0  0  0
M  END
> <VConfSearch Rank>
558

> <Conf_Id>
24

> <Delta U+W>
-1.236

> <U+W>
9.678

> <U>
11.876

> <W>
-2.199

> <W(PB)>
-4.335

> <W(SA)>
2.137

> <Valence>
17.153

> <Coulomb>
-7.966

> <VdW>
2.689

> <VdW6>
-12.458

> <VdW12>
15.147

> <Bond>
0.421

> <Angle>
5.258

> <Pdih>
11.475

> <Idih>
0.000

> <Tether>
0.000

$$$$
VeraChem MOL file


 25 25  0  0  0  0  0  0  0  0999 V2000     
   22.1498   19.0720   23.6638 C   0  0  0  0  0  0  0  0  0  0  0  0
   22.9167   18.3248   23.4180 H   0  0  0  0  0  0  0  0  0  0  0  0
   22.5446   19.6312   24.5230 H   0  0  0  0  0  0  0  0  0  0  0  0
   22.0116   20.0591   22.4745 C   0  0  0  0  0  0  0  0  0  0  0  0
   21.5162   20.9842   22.7956 H   0  0  0  0  0  0  0  0  0  0  0  0
   23.0283   20.3691   22.1966 H   0  0  0  0  0  0  0  0  0  0  0  0
   21.3205   19.5019   21.2054 C   0  0  0  0  0  0  0  0  0  0  0  0
   21.5592   18.4388   21.0662 H   0  0  0  0  0  0  0  0  0  0  0  0
   21.7710   20.0162   20.3453 H   0  0  0  0  0  0  0  0  0  0  0  0
   19.7873   19.7485   21.1258 C   0  0  0  0  0  0  0  0  0  0  0  0
   19.5266   20.7265   21.5501 H   0  0  0  0  0  0  0  0  0  0  0  0
   19.5356   19.8140   20.0584 H   0  0  0  0  0  0  0  0  0  0  0  0
   18.9122   18.6345   21.7505 C   0  0  0  0  0  0  0  0  0  0  0  0
   19.4548   17.6827   21.6777 H   0  0  0  0  0  0  0  0  0  0  0  0
   18.4873   18.8705   23.2221 C   0  0  0  0  0  0  0  0  0  0  0  0
   17.7325   19.6668   23.2601 H   0  0  0  0  0  0  0  0  0  0  0  0
   17.9835   17.9600   23.5726 H   0  0  0  0  0  0  0  0  0  0  0  0
   19.6126   19.2227   24.2272 C   0  0  0  0  0  0  0  0  0  0  0  0
   19.2046   19.1272   25.2426 H   0  0  0  0  0  0  0  0  0  0  0  0
   19.8762   20.2824   24.1306 H   0  0  0  0  0  0  0  0  0  0  0  0
   20.8696   18.3240   24.1099 C   0  0  0  0  0  0  0  0  0  0  0  0
   20.6872   17.4750   23.4409 H   0  0  0  0  0  0  0  0  0  0  0  0
   21.0677   17.8680   25.0896 H   0  0  0  0  0  0  0  0  0  0  0  0
   17.7217   18.5173   20.9819 O   0  0  0  0  0  0  0  0  0  0  0  0
   17.2655   19.3816   21.0442 H   0  0  0  0  0  0  0  0  0  0  0  0
  1  2  1  0  0  0  0
  1  3  1  0  0  0  0
  1  4  1  0  0  0  0
  4  5  1  0  0  0  0
  4  6  1  0  0  0  0
  4  7  1  0  0  0  0
  7  8  1  0  0  0  0
  7  9  1  0  0  0  0
  7 10  1  0  0  0  0
 10 11  1  0  0  0  0
 10 12  1  0  0  0  0
 10 13  1  0  0  0  0
 13 14  1  0  0  0  0
 13 15  1  0  0  0  0
 15 16  1  0  0  0  0
 15 17  1  0  0  0  0
 15 18  1  0  0  0  0
 18 19  1  0  0  0  0
 18 20  1  0  0  0  0
  1 21  1  0  0  0  0
 18 21  1  0  0  0  0
 21 22  1  0  0  0  0
 21 23  1  0  0  0  0
 13 24  1  0  0  0  0
 24 25  1  0  0  0  0
M  END
> <VConfSearch Rank>
559

> <Conf_Id>
167

> <Delta U+W>
0.388

> <U+W>
11.301

> <U>
13.202

> <W>
-1.901

> <W(PB)>
-4.065

> <W(SA)>
2.163

> <Valence>
18.957

> <Coulomb>
-8.753

> <VdW>
2.998

> <VdW6>
-12.294

> <VdW12>
15.292

> <Bond>
0.419

> <Angle>
4.543

> <Pdih>
13.996

> <Idih>
0.000

> <Tether>
0.000

$$$$
VeraChem MOL file


 25 25  0  0  0  0  0  0  0  0999 V2000     
   21.0737   21.0232   21.9622 C   0  0  0  0  0  0  0  0  0  0  0  0
   21.6902   21.6677   22.6033 H   0  0  0  0  0  0  0  0  0  0  0  0
   21.0296   21.5298   20.9884 H   0  0  0  0  0  0  0  0  0  0  0  0
   19.6331   20.9760   22.5349 C   0  0  0  0  0  0  0  0  0  0  0  0
   19.6539   20.9057   23.6282 H   0  0  0  0  0  0  0  0  0  0  0  0
   19.1745   21.9538   22.3335 H   0  0  0  0  0  0  0  0  0  0  0  0
   18.7131   19.8804   21.9364 C   0  0  0  0  0  0  0  0  0  0  0  0
   19.0375   19.6016   20.9256 H   0  0  0  0  0  0  0  0  0  0  0  0
   17.7157   20.3220   21.8059 H   0  0  0  0  0  0  0  0  0  0  0  0
   18.5370   18.6194   22.8259 C   0  0  0  0  0  0  0  0  0  0  0  0
   18.1735   18.9199   23.8173 H   0  0  0  0  0  0  0  0  0  0  0  0
   17.7324   18.0151   22.3864 H   0  0  0  0  0  0  0  0  0  0  0  0
   19.7744   17.7028   22.9931 C   0  0  0  0  0  0  0  0  0  0  0  0
   20.1561   17.4300   22.0001 H   0  0  0  0  0  0  0  0  0  0  0  0
   20.9139   18.3257   23.8406 C   0  0  0  0  0  0  0  0  0  0  0  0
   20.5152   19.1160   24.4847 H   0  0  0  0  0  0  0  0  0  0  0  0
   21.3022   17.5743   24.5410 H   0  0  0  0  0  0  0  0  0  0  0  0
   22.1212   18.8575   23.0256 C   0  0  0  0  0  0  0  0  0  0  0  0
   22.7314   17.9950   22.7243 H   0  0  0  0  0  0  0  0  0  0  0  0
   22.7606   19.4582   23.6865 H   0  0  0  0  0  0  0  0  0  0  0  0
   21.7997   19.6714   21.7469 C   0  0  0  0  0  0  0  0  0  0  0  0
   21.2509   19.0552   21.0256 H   0  0  0  0  0  0  0  0  0  0  0  0
   22.7555   19.8906   21.2517 H   0  0  0  0  0  0  0  0  0  0  0  0
   19.3364   16.5144   23.6411 O   0  0  0  0  0  0  0  0  0  0  0  0
   20.1102   15.9142   23.6797 H   0  0  0  0  0  0  0  0  0  0  0  0
  1  2  1  0  0  0  0
  1  3  1  0  0  0  0
  1  4  1  0  0  0  0
  4  5  1  0  0  0  0
  4  6  1  0  0  0  0
  4  7  1  0  0  0  0
  7  8  1  0  0  0  0
  7  9  1  0  0  0  0
  7 10  1  0  0  0  0
 10 11  1  0  0  0  0
 10 12  1  0  0  0  0
 10 13  1  0  0  0  0
 13 14  1  0  0  0  0
 13 15  1  0  0  0  0
 15 16  1  0  0  0  0
 15 17  1  0  0  0  0
 15 18  1  0  0  0  0
 18 19  1  0  0  0  0
 18 20  1  0  0  0  0
  1 21  1  0  0  0  0
 18 21  1  0  0  0  0
 21 22  1  0  0  0  0
 21 23  1  0  0  0  0
 13 24  1  0  0  0  0
 24 25  1  0  0  0  0
M  END
> <VConfSearch Rank>
560

> <Conf_Id>
60

> <Delta U+W>
-1.838

> <U+W>
9.075

> <U>
11.150

> <W>
-2.074

> <W(PB)>
-4.196

> <W(SA)>
2.121

> <Valence>
16.582

> <Coulomb>
-8.361

> <VdW>
2.928

> <VdW6>
-12.539

> <VdW12>
15.467

> <Bond>
0.441

> <Angle>
5.093

> <Pdih>
11.049

> <Idih>
0.000

> <Tether>
0.000

$$$$
VeraChem MOL file


 25 25  0  0  0  0  0  0  0  0999 V2000     
   20.0306   17.2770   23.3753 C   0  0  0  0  0  0  0  0  0  0  0  0
   20.8777   16.6360   23.6549 H   0  0  0  0  0  0  0  0  0  0  0  0
   19.1315   16.6679   23.5410 H   0  0  0  0  0  0  0  0  0  0  0  0
   20.1040   17.5888   21.8594 C   0  0  0  0  0  0  0  0  0  0  0  0
   20.0422   16.6301   21.3265 H   0  0  0  0  0  0  0  0  0  0  0  0
   19.2115   18.1390   21.5403 H   0  0  0  0  0  0  0  0  0  0  0  0
   21.3887   18.3038   21.3704 C   0  0  0  0  0  0  0  0  0  0  0  0
   21.3452   18.3494   20.2736 H   0  0  0  0  0  0  0  0  0  0  0  0
   22.2625   17.6820   21.6081 H   0  0  0  0  0  0  0  0  0  0  0  0
   21.6355   19.7410   21.8978 C   0  0  0  0  0  0  0  0  0  0  0  0
   22.0768   19.7056   22.8990 H   0  0  0  0  0  0  0  0  0  0  0  0
   22.4198   20.1855   21.2707 H   0  0  0  0  0  0  0  0  0  0  0  0
   20.3883   20.6625   21.8969 C   0  0  0  0  0  0  0  0  0  0  0  0
   19.6303   20.2616   21.2107 H   0  0  0  0  0  0  0  0  0  0  0  0
   19.7505   20.8649   23.2939 C   0  0  0  0  0  0  0  0  0  0  0  0
   20.5150   21.2347   23.9898 H   0  0  0  0  0  0  0  0  0  0  0  0
   19.0123   21.6733   23.2085 H   0  0  0  0  0  0  0  0  0  0  0  0
   19.0310   19.6396   23.9208 C   0  0  0  0  0  0  0  0  0  0  0  0
   18.2333   19.2765   23.2600 H   0  0  0  0  0  0  0  0  0  0  0  0
   18.5155   19.9976   24.8225 H   0  0  0  0  0  0  0  0  0  0  0  0
   19.9699   18.4822   24.3495 C   0  0  0  0  0  0  0  0  0  0  0  0
   19.6173   18.0972   25.3162 H   0  0  0  0  0  0  0  0  0  0  0  0
   20.9766   18.8611   24.5588 H   0  0  0  0  0  0  0  0  0  0  0  0
   20.7823   21.9443   21.4218 O   0  0  0  0  0  0  0  0  0  0  0  0
   21.1204   21.8144   20.5111 H   0  0  0  0  0  0  0  0  0  0  0  0
  1  2  1  0  0  0  0
  1  3  1  0  0  0  0
  1  4  1  0  0  0  0
  4  5  1  0  0  0  0
  4  6  1  0  0  0  0
  4  7  1  0  0  0  0
  7  8  1  0  0  0  0
  7  9  1  0  0  0  0
  7 10  1  0  0  0  0
 10 11  1  0  0  0  0
 10 12  1  0  0  0  0
 10 13  1  0  0  0  0
 13 14  1  0  0  0  0
 13 15  1  0  0  0  0
 15 16  1  0  0  0  0
 15 17  1  0  0  0  0
 15 18  1  0  0  0  0
 18 19  1  0  0  0  0
 18 20  1  0  0  0  0
  1 21  1  0  0  0  0
 18 21  1  0  0  0  0
 21 22  1  0  0  0  0
 21 23  1  0  0  0  0
 13 24  1  0  0  0  0
 24 25  1  0  0  0  0
M  END
> <VConfSearch Rank>
561

> <Conf_Id>
129

> <Delta U+W>
-1.846

> <U+W>
9.067

> <U>
11.150

> <W>
-2.083

> <W(PB)>
-4.217

> <W(SA)>
2.134

> <Valence>
16.583

> <Coulomb>
-8.361

> <VdW>
2.928

> <VdW6>
-12.539

> <VdW12>
15.467

> <Bond>
0.441

> <Angle>
5.093

> <Pdih>
11.049

> <Idih>
0.000

> <Tether>
0.000

$$$$
VeraChem MOL file


 25 25  0  0  0  0  0  0  0  0999 V2000     
   18.6899   19.5611   21.3606 C   0  0  0  0  0  0  0  0  0  0  0  0
   18.8114   19.4395   20.2757 H   0  0  0  0  0  0  0  0  0  0  0  0
   17.6437   19.8615   21.5096 H   0  0  0  0  0  0  0  0  0  0  0  0
   19.5805   20.7318   21.8470 C   0  0  0  0  0  0  0  0  0  0  0  0
   19.2402   21.6377   21.3270 H   0  0  0  0  0  0  0  0  0  0  0  0
   19.3950   20.9370   22.9075 H   0  0  0  0  0  0  0  0  0  0  0  0
   21.0997   20.5913   21.5781 C   0  0  0  0  0  0  0  0  0  0  0  0
   21.5757   21.5376   21.8695 H   0  0  0  0  0  0  0  0  0  0  0  0
   21.2695   20.4931   20.4973 H   0  0  0  0  0  0  0  0  0  0  0  0
   21.8404   19.4424   22.3107 C   0  0  0  0  0  0  0  0  0  0  0  0
   21.6996   18.4991   21.7733 H   0  0  0  0  0  0  0  0  0  0  0  0
   22.9157   19.6510   22.2271 H   0  0  0  0  0  0  0  0  0  0  0  0
   21.4681   19.2699   23.8061 C   0  0  0  0  0  0  0  0  0  0  0  0
   21.0178   20.1971   24.1847 H   0  0  0  0  0  0  0  0  0  0  0  0
   20.5121   18.0843   24.0915 C   0  0  0  0  0  0  0  0  0  0  0  0
   20.9451   17.1600   23.6873 H   0  0  0  0  0  0  0  0  0  0  0  0
   20.4716   17.9433   25.1800 H   0  0  0  0  0  0  0  0  0  0  0  0
   19.0503   18.2253   23.5873 C   0  0  0  0  0  0  0  0  0  0  0  0
   18.5767   19.1204   24.0108 H   0  0  0  0  0  0  0  0  0  0  0  0
   18.4852   17.3792   24.0016 H   0  0  0  0  0  0  0  0  0  0  0  0
   18.8877   18.1842   22.0457 C   0  0  0  0  0  0  0  0  0  0  0  0
   18.0019   17.5777   21.8119 H   0  0  0  0  0  0  0  0  0  0  0  0
   19.7196   17.6396   21.5852 H   0  0  0  0  0  0  0  0  0  0  0  0
   22.6644   19.0329   24.5373 O   0  0  0  0  0  0  0  0  0  0  0  0
   23.0436   18.2015   24.1854 H   0  0  0  0  0  0  0  0  0  0  0  0
  1  2  1  0  0  0  0
  1  3  1  0  0  0  0
  1  4  1  0  0  0  0
  4  5  1  0  0  0  0
  4  6  1  0  0  0  0
  4  7  1  0  0  0  0
  7  8  1  0  0  0  0
  7  9  1  0  0  0  0
  7 10  1  0  0  0  0
 10 11  1  0  0  0  0
 10 12  1  0  0  0  0
 10 13  1  0  0  0  0
 13 14  1  0  0  0  0
 13 15  1  0  0  0  0
 15 16  1  0  0  0  0
 15 17  1  0  0  0  0
 15 18  1  0  0  0  0
 18 19  1  0  0  0  0
 18 20  1  0  0  0  0
  1 21  1  0  0  0  0
 18 21  1  0  0  0  0
 21 22  1  0  0  0  0
 21 23  1  0  0  0  0
 13 24  1  0  0  0  0
 24 25  1  0  0  0  0
M  END
> <VConfSearch Rank>
562

> <Conf_Id>
140

> <Delta U+W>
-1.702

> <U+W>
9.211

> <U>
11.181

> <W>
-1.969

> <W(PB)>
-4.093

> <W(SA)>
2.124

> <Valence>
16.954

> <Coulomb>
-8.661

> <VdW>
2.887

> <VdW6>
-12.561

> <VdW12>
15.448

> <Bond>
0.433

> <Angle>
5.120

> <Pdih>
11.401

> <Idih>
0.000

> <Tether>
0.000

$$$$
VeraChem MOL file


 25 25  0  0  0  0  0  0  0  0999 V2000     
   21.8162   20.4079   23.2675 C   0  0  0  0  0  0  0  0  0  0  0  0
   21.7484   21.4979   23.1500 H   0  0  0  0  0  0  0  0  0  0  0  0
   22.7953   20.2202   23.7291 H   0  0  0  0  0  0  0  0  0  0  0  0
   21.8229   19.7508   21.8630 C   0  0  0  0  0  0  0  0  0  0  0  0
   21.1039   20.2466   21.2012 H   0  0  0  0  0  0  0  0  0  0  0  0
   22.8015   19.9647   21.4118 H   0  0  0  0  0  0  0  0  0  0  0  0
   21.6098   18.2149   21.8461 C   0  0  0  0  0  0  0  0  0  0  0  0
   21.9199   17.7625   22.7968 H   0  0  0  0  0  0  0  0  0  0  0  0
   22.2914   17.7953   21.0935 H   0  0  0  0  0  0  0  0  0  0  0  0
   20.1755   17.7610   21.4616 C   0  0  0  0  0  0  0  0  0  0  0  0
   19.9096   18.1933   20.4881 H   0  0  0  0  0  0  0  0  0  0  0  0
   20.2057   16.6741   21.3068 H   0  0  0  0  0  0  0  0  0  0  0  0
   19.0497   18.0595   22.4835 C   0  0  0  0  0  0  0  0  0  0  0  0
   19.3329   17.6522   23.4632 H   0  0  0  0  0  0  0  0  0  0  0  0
   18.6992   19.5635   22.6243 C   0  0  0  0  0  0  0  0  0  0  0  0
   19.0064   20.1103   21.7270 H   0  0  0  0  0  0  0  0  0  0  0  0
   17.6073   19.6790   22.6589 H   0  0  0  0  0  0  0  0  0  0  0  0
   19.2663   20.2539   23.8920 C   0  0  0  0  0  0  0  0  0  0  0  0
   18.6353   19.9638   24.7433 H   0  0  0  0  0  0  0  0  0  0  0  0
   19.1469   21.3410   23.7898 H   0  0  0  0  0  0  0  0  0  0  0  0
   20.7343   19.9332   24.2695 C   0  0  0  0  0  0  0  0  0  0  0  0
   20.8525   18.8642   24.4803 H   0  0  0  0  0  0  0  0  0  0  0  0
   20.9392   20.4279   25.2287 H   0  0  0  0  0  0  0  0  0  0  0  0
   17.8860   17.3715   22.0425 O   0  0  0  0  0  0  0  0  0  0  0  0
   17.6566   17.7483   21.1682 H   0  0  0  0  0  0  0  0  0  0  0  0
  1  2  1  0  0  0  0
  1  3  1  0  0  0  0
  1  4  1  0  0  0  0
  4  5  1  0  0  0  0
  4  6  1  0  0  0  0
  4  7  1  0  0  0  0
  7  8  1  0  0  0  0
  7  9  1  0  0  0  0
  7 10  1  0  0  0  0
 10 11  1  0  0  0  0
 10 12  1  0  0  0  0
 10 13  1  0  0  0  0
 13 14  1  0  0  0  0
 13 15  1  0  0  0  0
 15 16  1  0  0  0  0
 15 17  1  0  0  0  0
 15 18  1  0  0  0  0
 18 19  1  0  0  0  0
 18 20  1  0  0  0  0
  1 21  1  0  0  0  0
 18 21  1  0  0  0  0
 21 22  1  0  0  0  0
 21 23  1  0  0  0  0
 13 24  1  0  0  0  0
 24 25  1  0  0  0  0
M  END
> <VConfSearch Rank>
563

> <Conf_Id>
68

> <Delta U+W>
-1.765

> <U+W>
9.148

> <U>
11.181

> <W>
-2.032

> <W(PB)>
-4.147

> <W(SA)>
2.114

> <Valence>
16.955

> <Coulomb>
-8.661

> <VdW>
2.887

> <VdW6>
-12.561

> <VdW12>
15.448

> <Bond>
0.433

> <Angle>
5.121

> <Pdih>
11.402

> <Idih>
0.000

> <Tether>
0.000

$$$$
VeraChem MOL file


 25 25  0  0  0  0  0  0  0  0999 V2000     
   21.4832   17.7993   22.5922 C   0  0  0  0  0  0  0  0  0  0  0  0
   22.2900   17.0537   22.6086 H   0  0  0  0  0  0  0  0  0  0  0  0
   20.7706   17.4115   21.8555 H   0  0  0  0  0  0  0  0  0  0  0  0
   22.0834   19.1469   22.1137 C   0  0  0  0  0  0  0  0  0  0  0  0
   22.3675   19.7782   22.9655 H   0  0  0  0  0  0  0  0  0  0  0  0
   23.0267   18.9231   21.5970 H   0  0  0  0  0  0  0  0  0  0  0  0
   21.1969   19.9364   21.1150 C   0  0  0  0  0  0  0  0  0  0  0  0
   20.9663   19.2993   20.2501 H   0  0  0  0  0  0  0  0  0  0  0  0
   21.7988   20.7652   20.7178 H   0  0  0  0  0  0  0  0  0  0  0  0
   19.8799   20.5360   21.6758 C   0  0  0  0  0  0  0  0  0  0  0  0
   20.0928   21.1996   22.5225 H   0  0  0  0  0  0  0  0  0  0  0  0
   19.4717   21.1895   20.8929 H   0  0  0  0  0  0  0  0  0  0  0  0
   18.8041   19.4845   22.0527 C   0  0  0  0  0  0  0  0  0  0  0  0
   19.0285   18.5433   21.5375 H   0  0  0  0  0  0  0  0  0  0  0  0
   18.6670   19.2122   23.5709 C   0  0  0  0  0  0  0  0  0  0  0  0
   18.1078   20.0412   24.0245 H   0  0  0  0  0  0  0  0  0  0  0  0
   18.0436   18.3190   23.7077 H   0  0  0  0  0  0  0  0  0  0  0  0
   19.9779   19.0406   24.3809 C   0  0  0  0  0  0  0  0  0  0  0  0
   19.6976   18.9330   25.4376 H   0  0  0  0  0  0  0  0  0  0  0  0
   20.5737   19.9599   24.3453 H   0  0  0  0  0  0  0  0  0  0  0  0
   20.8529   17.8174   24.0090 C   0  0  0  0  0  0  0  0  0  0  0  0
   20.2705   16.8971   24.1518 H   0  0  0  0  0  0  0  0  0  0  0  0
   21.6715   17.7660   24.7398 H   0  0  0  0  0  0  0  0  0  0  0  0
   17.5411   19.9409   21.5845 O   0  0  0  0  0  0  0  0  0  0  0  0
   17.3664   20.7892   22.0413 H   0  0  0  0  0  0  0  0  0  0  0  0
  1  2  1  0  0  0  0
  1  3  1  0  0  0  0
  1  4  1  0  0  0  0
  4  5  1  0  0  0  0
  4  6  1  0  0  0  0
  4  7  1  0  0  0  0
  7  8  1  0  0  0  0
  7  9  1  0  0  0  0
  7 10  1  0  0  0  0
 10 11  1  0  0  0  0
 10 12  1  0  0  0  0
 10 13  1  0  0  0  0
 13 14  1  0  0  0  0
 13 15  1  0  0  0  0
 15 16  1  0  0  0  0
 15 17  1  0  0  0  0
 15 18  1  0  0  0  0
 18 19  1  0  0  0  0
 18 20  1  0  0  0  0
  1 21  1  0  0  0  0
 18 21  1  0  0  0  0
 21 22  1  0  0  0  0
 21 23  1  0  0  0  0
 13 24  1  0  0  0  0
 24 25  1  0  0  0  0
M  END
> <VConfSearch Rank>
564

> <Conf_Id>
165

> <Delta U+W>
-1.999

> <U+W>
8.915

> <U>
10.935

> <W>
-2.020

> <W(PB)>
-4.135

> <W(SA)>
2.115

> <Valence>
16.757

> <Coulomb>
-8.731

> <VdW>
2.908

> <VdW6>
-12.597

> <VdW12>
15.506

> <Bond>
0.434

> <Angle>
5.069

> <Pdih>
11.254

> <Idih>
0.000

> <Tether>
0.000

$$$$
VeraChem MOL file


 25 25  0  0  0  0  0  0  0  0999 V2000     
   21.1069   18.2718   21.2775 C   0  0  0  0  0  0  0  0  0  0  0  0
   21.5384   17.6567   20.4760 H   0  0  0  0  0  0  0  0  0  0  0  0
   21.4492   19.2883   21.0531 H   0  0  0  0  0  0  0  0  0  0  0  0
   21.7155   17.7692   22.6127 C   0  0  0  0  0  0  0  0  0  0  0  0
   21.7368   16.6714   22.5777 H   0  0  0  0  0  0  0  0  0  0  0  0
   22.7665   18.0839   22.6664 H   0  0  0  0  0  0  0  0  0  0  0  0
   20.9909   18.1753   23.9205 C   0  0  0  0  0  0  0  0  0  0  0  0
   21.4949   17.6578   24.7482 H   0  0  0  0  0  0  0  0  0  0  0  0
   19.9690   17.7791   23.9286 H   0  0  0  0  0  0  0  0  0  0  0  0
   20.9880   19.6890   24.2562 C   0  0  0  0  0  0  0  0  0  0  0  0
   20.5400   19.8038   25.2525 H   0  0  0  0  0  0  0  0  0  0  0  0
   22.0260   20.0334   24.3495 H   0  0  0  0  0  0  0  0  0  0  0  0
   20.2400   20.6284   23.2786 C   0  0  0  0  0  0  0  0  0  0  0  0
   20.8625   20.7976   22.3921 H   0  0  0  0  0  0  0  0  0  0  0  0
   18.8486   20.1150   22.8262 C   0  0  0  0  0  0  0  0  0  0  0  0
   18.4443   19.3957   23.5481 H   0  0  0  0  0  0  0  0  0  0  0  0
   18.1461   20.9593   22.8402 H   0  0  0  0  0  0  0  0  0  0  0  0
   18.8146   19.5231   21.3918 C   0  0  0  0  0  0  0  0  0  0  0  0
   19.1940   20.2708   20.6818 H   0  0  0  0  0  0  0  0  0  0  0  0
   17.7618   19.3668   21.1199 H   0  0  0  0  0  0  0  0  0  0  0  0
   19.5621   18.1812   21.1743 C   0  0  0  0  0  0  0  0  0  0  0  0
   19.3186   17.8400   20.1587 H   0  0  0  0  0  0  0  0  0  0  0  0
   19.1662   17.4029   21.8393 H   0  0  0  0  0  0  0  0  0  0  0  0
   20.0684   21.8786   23.9365 O   0  0  0  0  0  0  0  0  0  0  0  0
   20.9643   22.1997   24.1707 H   0  0  0  0  0  0  0  0  0  0  0  0
  1  2  1  0  0  0  0
  1  3  1  0  0  0  0
  1  4  1  0  0  0  0
  4  5  1  0  0  0  0
  4  6  1  0  0  0  0
  4  7  1  0  0  0  0
  7  8  1  0  0  0  0
  7  9  1  0  0  0  0
  7 10  1  0  0  0  0
 10 11  1  0  0  0  0
 10 12  1  0  0  0  0
 10 13  1  0  0  0  0
 13 14  1  0  0  0  0
 13 15  1  0  0  0  0
 15 16  1  0  0  0  0
 15 17  1  0  0  0  0
 15 18  1  0  0  0  0
 18 19  1  0  0  0  0
 18 20  1  0  0  0  0
  1 21  1  0  0  0  0
 18 21  1  0  0  0  0
 21 22  1  0  0  0  0
 21 23  1  0  0  0  0
 13 24  1  0  0  0  0
 24 25  1  0  0  0  0
M  END
> <VConfSearch Rank>
565

> <Conf_Id>
133

> <Delta U+W>
-2.139

> <U+W>
8.774

> <U>
10.905

> <W>
-2.131

> <W(PB)>
-4.281

> <W(SA)>
2.150

> <Valence>
16.378

> <Coulomb>
-8.448

> <VdW>
2.976

> <VdW6>
-12.570

> <VdW12>
15.545

> <Bond>
0.439

> <Angle>
5.049

> <Pdih>
10.889

> <Idih>
0.000

> <Tether>
0.000

$$$$
VeraChem MOL file


 25 25  0  0  0  0  0  0  0  0999 V2000     
   21.6174   18.9505   21.4264 C   0  0  0  0  0  0  0  0  0  0  0  0
   22.3521   18.7359   20.6381 H   0  0  0  0  0  0  0  0  0  0  0  0
   22.2117   19.3790   22.2413 H   0  0  0  0  0  0  0  0  0  0  0  0
   20.9777   17.6076   21.8657 C   0  0  0  0  0  0  0  0  0  0  0  0
   20.0394   17.4217   21.3275 H   0  0  0  0  0  0  0  0  0  0  0  0
   21.6531   16.8010   21.5491 H   0  0  0  0  0  0  0  0  0  0  0  0
   20.7742   17.4526   23.3959 C   0  0  0  0  0  0  0  0  0  0  0  0
   21.7361   17.5941   23.9076 H   0  0  0  0  0  0  0  0  0  0  0  0
   20.4878   16.4101   23.5906 H   0  0  0  0  0  0  0  0  0  0  0  0
   19.7051   18.3662   24.0526 C   0  0  0  0  0  0  0  0  0  0  0  0
   18.7284   18.2176   23.5770 H   0  0  0  0  0  0  0  0  0  0  0  0
   19.5760   18.0154   25.0855 H   0  0  0  0  0  0  0  0  0  0  0  0
   20.0780   19.8708   24.0895 C   0  0  0  0  0  0  0  0  0  0  0  0
   21.1622   19.9719   23.9623 H   0  0  0  0  0  0  0  0  0  0  0  0
   19.3560   20.7408   23.0315 C   0  0  0  0  0  0  0  0  0  0  0  0
   18.3262   20.9120   23.3731 H   0  0  0  0  0  0  0  0  0  0  0  0
   19.8338   21.7285   23.0034 H   0  0  0  0  0  0  0  0  0  0  0  0
   19.2789   20.1806   21.5877 C   0  0  0  0  0  0  0  0  0  0  0  0
   18.6758   20.8830   20.9964 H   0  0  0  0  0  0  0  0  0  0  0  0
   18.7091   19.2445   21.5700 H   0  0  0  0  0  0  0  0  0  0  0  0
   20.6314   20.0017   20.8536 C   0  0  0  0  0  0  0  0  0  0  0  0
   21.1419   20.9722   20.7901 H   0  0  0  0  0  0  0  0  0  0  0  0
   20.4057   19.7178   19.8166 H   0  0  0  0  0  0  0  0  0  0  0  0
   19.7386   20.3892   25.3708 O   0  0  0  0  0  0  0  0  0  0  0  0
   20.0255   21.3262   25.3812 H   0  0  0  0  0  0  0  0  0  0  0  0
  1  2  1  0  0  0  0
  1  3  1  0  0  0  0
  1  4  1  0  0  0  0
  4  5  1  0  0  0  0
  4  6  1  0  0  0  0
  4  7  1  0  0  0  0
  7  8  1  0  0  0  0
  7  9  1  0  0  0  0
  7 10  1  0  0  0  0
 10 11  1  0  0  0  0
 10 12  1  0  0  0  0
 10 13  1  0  0  0  0
 13 14  1  0  0  0  0
 13 15  1  0  0  0  0
 15 16  1  0  0  0  0
 15 17  1  0  0  0  0
 15 18  1  0  0  0  0
 18 19  1  0  0  0  0
 18 20  1  0  0  0  0
  1 21  1  0  0  0  0
 18 21  1  0  0  0  0
 21 22  1  0  0  0  0
 21 23  1  0  0  0  0
 13 24  1  0  0  0  0
 24 25  1  0  0  0  0
M  END
> <VConfSearch Rank>
566

> <Conf_Id>
95

> <Delta U+W>
-2.190

> <U+W>
8.723

> <U>
10.905

> <W>
-2.182

> <W(PB)>
-4.296

> <W(SA)>
2.114

> <Valence>
16.377

> <Coulomb>
-8.448

> <VdW>
2.976

> <VdW6>
-12.570

> <VdW12>
15.546

> <Bond>
0.439

> <Angle>
5.049

> <Pdih>
10.889

> <Idih>
0.000

> <Tether>
0.000

$$$$
VeraChem MOL file


 25 25  0  0  0  0  0  0  0  0999 V2000     
   20.7227   17.5322   23.3362 C   0  0  0  0  0  0  0  0  0  0  0  0
   20.8878   16.5589   23.8182 H   0  0  0  0  0  0  0  0  0  0  0  0
   21.6818   17.7416   22.8518 H   0  0  0  0  0  0  0  0  0  0  0  0
   20.4354   18.5591   24.4707 C   0  0  0  0  0  0  0  0  0  0  0  0
   19.8762   18.0321   25.2558 H   0  0  0  0  0  0  0  0  0  0  0  0
   21.3865   18.8514   24.9361 H   0  0  0  0  0  0  0  0  0  0  0  0
   19.6246   19.8337   24.1180 C   0  0  0  0  0  0  0  0  0  0  0  0
   19.4222   20.3690   25.0557 H   0  0  0  0  0  0  0  0  0  0  0  0
   18.6285   19.5434   23.7691 H   0  0  0  0  0  0  0  0  0  0  0  0
   20.2798   20.8534   23.1395 C   0  0  0  0  0  0  0  0  0  0  0  0
   19.4929   21.4826   22.7034 H   0  0  0  0  0  0  0  0  0  0  0  0
   20.8978   21.5285   23.7458 H   0  0  0  0  0  0  0  0  0  0  0  0
   21.1785   20.3053   22.0021 C   0  0  0  0  0  0  0  0  0  0  0  0
   21.9831   19.7191   22.4581 H   0  0  0  0  0  0  0  0  0  0  0  0
   20.4808   19.4604   20.8977 C   0  0  0  0  0  0  0  0  0  0  0  0
   20.0899   20.1522   20.1394 H   0  0  0  0  0  0  0  0  0  0  0  0
   21.2462   18.8634   20.3857 H   0  0  0  0  0  0  0  0  0  0  0  0
   19.3068   18.5304   21.3071 C   0  0  0  0  0  0  0  0  0  0  0  0
   18.8817   18.1080   20.3865 H   0  0  0  0  0  0  0  0  0  0  0  0
   18.4897   19.1362   21.7114 H   0  0  0  0  0  0  0  0  0  0  0  0
   19.6306   17.3361   22.2517 C   0  0  0  0  0  0  0  0  0  0  0  0
   19.9530   16.4964   21.6210 H   0  0  0  0  0  0  0  0  0  0  0  0
   18.7012   17.0008   22.7317 H   0  0  0  0  0  0  0  0  0  0  0  0
   21.7819   21.4232   21.3612 O   0  0  0  0  0  0  0  0  0  0  0  0
   22.2734   21.9143   22.0521 H   0  0  0  0  0  0  0  0  0  0  0  0
  1  2  1  0  0  0  0
  1  3  1  0  0  0  0
  1  4  1  0  0  0  0
  4  5  1  0  0  0  0
  4  6  1  0  0  0  0
  4  7  1  0  0  0  0
  7  8  1  0  0  0  0
  7  9  1  0  0  0  0
  7 10  1  0  0  0  0
 10 11  1  0  0  0  0
 10 12  1  0  0  0  0
 10 13  1  0  0  0  0
 13 14  1  0  0  0  0
 13 15  1  0  0  0  0
 15 16  1  0  0  0  0
 15 17  1  0  0  0  0
 15 18  1  0  0  0  0
 18 19  1  0  0  0  0
 18 20  1  0  0  0  0
  1 21  1  0  0  0  0
 18 21  1  0  0  0  0
 21 22  1  0  0  0  0
 21 23  1  0  0  0  0
 13 24  1  0  0  0  0
 24 25  1  0  0  0  0
M  END
> <VConfSearch Rank>
567

> <Conf_Id>
161

> <Delta U+W>
2.120

> <U+W>
13.033

> <U>
15.076

> <W>
-2.043

> <W(PB)>
-4.186

> <W(SA)>
2.143

> <Valence>
18.884

> <Coulomb>
-8.074

> <VdW>
4.266

> <VdW6>
-13.486

> <VdW12>
17.752

> <Bond>
0.713

> <Angle>
8.955

> <Pdih>
9.215

> <Idih>
0.000

> <Tether>
0.000

$$$$
VeraChem MOL file


 25 25  0  0  0  0  0  0  0  0999 V2000     
   20.1645   19.2928   24.6050 C   0  0  0  0  0  0  0  0  0  0  0  0
   20.3477   19.3606   25.6861 H   0  0  0  0  0  0  0  0  0  0  0  0
   19.1135   18.9894   24.5182 H   0  0  0  0  0  0  0  0  0  0  0  0
   21.0834   18.1848   24.0326 C   0  0  0  0  0  0  0  0  0  0  0  0
   22.0719   18.5903   23.7782 H   0  0  0  0  0  0  0  0  0  0  0  0
   21.2641   17.4693   24.8466 H   0  0  0  0  0  0  0  0  0  0  0  0
   20.4855   17.3762   22.8478 C   0  0  0  0  0  0  0  0  0  0  0  0
   19.4083   17.2107   22.9844 H   0  0  0  0  0  0  0  0  0  0  0  0
   20.9397   16.3765   22.8849 H   0  0  0  0  0  0  0  0  0  0  0  0
   20.7802   17.9507   21.4379 C   0  0  0  0  0  0  0  0  0  0  0  0
   21.7732   18.4164   21.4259 H   0  0  0  0  0  0  0  0  0  0  0  0
   20.8562   17.1046   20.7423 H   0  0  0  0  0  0  0  0  0  0  0  0
   19.7119   18.9080   20.8512 C   0  0  0  0  0  0  0  0  0  0  0  0
   18.8207   18.3114   20.6092 H   0  0  0  0  0  0  0  0  0  0  0  0
   19.2568   20.0721   21.7615 C   0  0  0  0  0  0  0  0  0  0  0  0
   18.6886   20.7855   21.1496 H   0  0  0  0  0  0  0  0  0  0  0  0
   18.5278   19.6933   22.4859 H   0  0  0  0  0  0  0  0  0  0  0  0
   20.4064   20.8307   22.4771 C   0  0  0  0  0  0  0  0  0  0  0  0
   20.3459   21.8951   22.2122 H   0  0  0  0  0  0  0  0  0  0  0  0
   21.3863   20.5046   22.1105 H   0  0  0  0  0  0  0  0  0  0  0  0
   20.3731   20.7147   24.0199 C   0  0  0  0  0  0  0  0  0  0  0  0
   19.5748   21.3635   24.4053 H   0  0  0  0  0  0  0  0  0  0  0  0
   21.3108   21.1276   24.4161 H   0  0  0  0  0  0  0  0  0  0  0  0
   20.2317   19.4616   19.6505 O   0  0  0  0  0  0  0  0  0  0  0  0
   20.9301   20.0897   19.9254 H   0  0  0  0  0  0  0  0  0  0  0  0
  1  2  1  0  0  0  0
  1  3  1  0  0  0  0
  1  4  1  0  0  0  0
  4  5  1  0  0  0  0
  4  6  1  0  0  0  0
  4  7  1  0  0  0  0
  7  8  1  0  0  0  0
  7  9  1  0  0  0  0
  7 10  1  0  0  0  0
 10 11  1  0  0  0  0
 10 12  1  0  0  0  0
 10 13  1  0  0  0  0
 13 14  1  0  0  0  0
 13 15  1  0  0  0  0
 15 16  1  0  0  0  0
 15 17  1  0  0  0  0
 15 18  1  0  0  0  0
 18 19  1  0  0  0  0
 18 20  1  0  0  0  0
  1 21  1  0  0  0  0
 18 21  1  0  0  0  0
 21 22  1  0  0  0  0
 21 23  1  0  0  0  0
 13 24  1  0  0  0  0
 24 25  1  0  0  0  0
M  END
> <VConfSearch Rank>
568

> <Conf_Id>
164

> <Delta U+W>
0.008

> <U+W>
10.922

> <U>
12.433

> <W>
-1.511

> <W(PB)>
-3.669

> <W(SA)>
2.157

> <Valence>
19.007

> <Coulomb>
-9.373

> <VdW>
2.799

> <VdW6>
-12.597

> <VdW12>
15.396

> <Bond>
0.425

> <Angle>
4.784

> <Pdih>
13.799

> <Idih>
0.000

> <Tether>
0.000

$$$$
VeraChem MOL file


 25 25  0  0  0  0  0  0  0  0999 V2000     
   19.7686   17.6463   21.8869 C   0  0  0  0  0  0  0  0  0  0  0  0
   19.3550   18.4305   21.2429 H   0  0  0  0  0  0  0  0  0  0  0  0
   19.4354   16.7063   21.4264 H   0  0  0  0  0  0  0  0  0  0  0  0
   19.1351   17.7162   23.2988 C   0  0  0  0  0  0  0  0  0  0  0  0
   18.0519   17.5762   23.1806 H   0  0  0  0  0  0  0  0  0  0  0  0
   19.4816   16.8611   23.8948 H   0  0  0  0  0  0  0  0  0  0  0  0
   19.3585   19.0181   24.1100 C   0  0  0  0  0  0  0  0  0  0  0  0
   20.3284   18.9925   24.6196 H   0  0  0  0  0  0  0  0  0  0  0  0
   18.6208   19.0231   24.9241 H   0  0  0  0  0  0  0  0  0  0  0  0
   19.2009   20.3357   23.3052 C   0  0  0  0  0  0  0  0  0  0  0  0
   18.5566   20.1867   22.4303 H   0  0  0  0  0  0  0  0  0  0  0  0
   18.6613   21.0464   23.9454 H   0  0  0  0  0  0  0  0  0  0  0  0
   20.5330   21.0146   22.8987 C   0  0  0  0  0  0  0  0  0  0  0  0
   21.1448   21.1377   23.8038 H   0  0  0  0  0  0  0  0  0  0  0  0
   21.3876   20.2812   21.8346 C   0  0  0  0  0  0  0  0  0  0  0  0
   20.8151   20.1304   20.9113 H   0  0  0  0  0  0  0  0  0  0  0  0
   22.2079   20.9580   21.5602 H   0  0  0  0  0  0  0  0  0  0  0  0
   22.0281   18.9515   22.3146 C   0  0  0  0  0  0  0  0  0  0  0  0
   22.1338   18.9475   23.4054 H   0  0  0  0  0  0  0  0  0  0  0  0
   23.0597   18.9124   21.9387 H   0  0  0  0  0  0  0  0  0  0  0  0
   21.3166   17.6619   21.8317 C   0  0  0  0  0  0  0  0  0  0  0  0
   21.7085   16.8056   22.3971 H   0  0  0  0  0  0  0  0  0  0  0  0
   21.6101   17.4875   20.7875 H   0  0  0  0  0  0  0  0  0  0  0  0
   20.2212   22.3032   22.3874 O   0  0  0  0  0  0  0  0  0  0  0  0
   19.6782   22.1583   21.5856 H   0  0  0  0  0  0  0  0  0  0  0  0
  1  2  1  0  0  0  0
  1  3  1  0  0  0  0
  1  4  1  0  0  0  0
  4  5  1  0  0  0  0
  4  6  1  0  0  0  0
  4  7  1  0  0  0  0
  7  8  1  0  0  0  0
  7  9  1  0  0  0  0
  7 10  1  0  0  0  0
 10 11  1  0  0  0  0
 10 12  1  0  0  0  0
 10 13  1  0  0  0  0
 13 14  1  0  0  0  0
 13 15  1  0  0  0  0
 15 16  1  0  0  0  0
 15 17  1  0  0  0  0
 15 18  1  0  0  0  0
 18 19  1  0  0  0  0
 18 20  1  0  0  0  0
  1 21  1  0  0  0  0
 18 21  1  0  0  0  0
 21 22  1  0  0  0  0
 21 23  1  0  0  0  0
 13 24  1  0  0  0  0
 24 25  1  0  0  0  0
M  END
> <VConfSearch Rank>
569

> <Conf_Id>
15

> <Delta U+W>
-1.271

> <U+W>
9.643

> <U>
11.413

> <W>
-1.770

> <W(PB)>
-3.908

> <W(SA)>
2.138

> <Valence>
17.496

> <Coulomb>
-8.736

> <VdW>
2.653

> <VdW6>
-12.485

> <VdW12>
15.138

> <Bond>
0.414

> <Angle>
5.295

> <Pdih>
11.787

> <Idih>
0.000

> <Tether>
0.000

$$$$
VeraChem MOL file


 25 25  0  0  0  0  0  0  0  0999 V2000     
   19.6901   17.5620   21.9388 C   0  0  0  0  0  0  0  0  0  0  0  0
   19.2435   16.7243   21.3860 H   0  0  0  0  0  0  0  0  0  0  0  0
   19.6892   17.2375   22.9871 H   0  0  0  0  0  0  0  0  0  0  0  0
   21.1423   17.7255   21.4181 C   0  0  0  0  0  0  0  0  0  0  0  0
   21.7138   16.8363   21.7173 H   0  0  0  0  0  0  0  0  0  0  0  0
   21.1292   17.7161   20.3197 H   0  0  0  0  0  0  0  0  0  0  0  0
   21.9088   18.9870   21.8833 C   0  0  0  0  0  0  0  0  0  0  0  0
   21.5819   19.8525   21.2953 H   0  0  0  0  0  0  0  0  0  0  0  0
   22.9685   18.8566   21.6250 H   0  0  0  0  0  0  0  0  0  0  0  0
   21.7980   19.2714   23.4040 C   0  0  0  0  0  0  0  0  0  0  0  0
   21.3208   18.4338   23.9247 H   0  0  0  0  0  0  0  0  0  0  0  0
   22.8118   19.3227   23.8221 H   0  0  0  0  0  0  0  0  0  0  0  0
   21.0803   20.5941   23.7582 C   0  0  0  0  0  0  0  0  0  0  0  0
   21.7676   21.4189   23.5209 H   0  0  0  0  0  0  0  0  0  0  0  0
   19.7497   20.8812   23.0156 C   0  0  0  0  0  0  0  0  0  0  0  0
   19.2945   21.7555   23.5001 H   0  0  0  0  0  0  0  0  0  0  0  0
   19.9560   21.2133   21.9910 H   0  0  0  0  0  0  0  0  0  0  0  0
   18.6959   19.7419   22.9947 C   0  0  0  0  0  0  0  0  0  0  0  0
   17.7092   20.2243   22.9645 H   0  0  0  0  0  0  0  0  0  0  0  0
   18.7094   19.1716   23.9325 H   0  0  0  0  0  0  0  0  0  0  0  0
   18.7685   18.7946   21.7655 C   0  0  0  0  0  0  0  0  0  0  0  0
   19.0241   19.3478   20.8518 H   0  0  0  0  0  0  0  0  0  0  0  0
   17.7523   18.4117   21.5984 H   0  0  0  0  0  0  0  0  0  0  0  0
   20.8265   20.6004   25.1561 O   0  0  0  0  0  0  0  0  0  0  0  0
   20.1423   19.9175   25.3070 H   0  0  0  0  0  0  0  0  0  0  0  0
  1  2  1  0  0  0  0
  1  3  1  0  0  0  0
  1  4  1  0  0  0  0
  4  5  1  0  0  0  0
  4  6  1  0  0  0  0
  4  7  1  0  0  0  0
  7  8  1  0  0  0  0
  7  9  1  0  0  0  0
  7 10  1  0  0  0  0
 10 11  1  0  0  0  0
 10 12  1  0  0  0  0
 10 13  1  0  0  0  0
 13 14  1  0  0  0  0
 13 15  1  0  0  0  0
 15 16  1  0  0  0  0
 15 17  1  0  0  0  0
 15 18  1  0  0  0  0
 18 19  1  0  0  0  0
 18 20  1  0  0  0  0
  1 21  1  0  0  0  0
 18 21  1  0  0  0  0
 21 22  1  0  0  0  0
 21 23  1  0  0  0  0
 13 24  1  0  0  0  0
 24 25  1  0  0  0  0
M  END
> <VConfSearch Rank>
570

> <Conf_Id>
115

> <Delta U+W>
0.038

> <U+W>
10.952

> <U>
12.526

> <W>
-1.575

> <W(PB)>
-3.698

> <W(SA)>
2.123

> <Valence>
19.016

> <Coulomb>
-9.226

> <VdW>
2.737

> <VdW6>
-12.612

> <VdW12>
15.349

> <Bond>
0.421

> <Angle>
4.883

> <Pdih>
13.711

> <Idih>
0.000

> <Tether>
0.000

$$$$
VeraChem MOL file


 25 25  0  0  0  0  0  0  0  0999 V2000     
   19.3867   20.0701   24.3975 C   0  0  0  0  0  0  0  0  0  0  0  0
   19.3858   20.5904   25.3652 H   0  0  0  0  0  0  0  0  0  0  0  0
   18.3351   20.0335   24.0823 H   0  0  0  0  0  0  0  0  0  0  0  0
   19.9170   18.6386   24.6448 C   0  0  0  0  0  0  0  0  0  0  0  0
   20.9265   18.6797   25.0760 H   0  0  0  0  0  0  0  0  0  0  0  0
   19.2841   18.1830   25.4186 H   0  0  0  0  0  0  0  0  0  0  0  0
   19.9014   17.7092   23.4092 C   0  0  0  0  0  0  0  0  0  0  0  0
   18.9712   17.8450   22.8416 H   0  0  0  0  0  0  0  0  0  0  0  0
   19.8698   16.6743   23.7769 H   0  0  0  0  0  0  0  0  0  0  0  0
   21.1490   17.8409   22.4948 C   0  0  0  0  0  0  0  0  0  0  0  0
   21.9515   18.3990   22.9931 H   0  0  0  0  0  0  0  0  0  0  0  0
   21.5492   16.8298   22.3395 H   0  0  0  0  0  0  0  0  0  0  0  0
   20.8615   18.4556   21.1065 C   0  0  0  0  0  0  0  0  0  0  0  0
   19.8732   18.1162   20.7648 H   0  0  0  0  0  0  0  0  0  0  0  0
   20.9045   19.9992   21.0639 C   0  0  0  0  0  0  0  0  0  0  0  0
   21.9054   20.3538   21.3433 H   0  0  0  0  0  0  0  0  0  0  0  0
   20.7598   20.3057   20.0196 H   0  0  0  0  0  0  0  0  0  0  0  0
   19.8284   20.7173   21.9142 C   0  0  0  0  0  0  0  0  0  0  0  0
   18.8604   20.2080   21.8160 H   0  0  0  0  0  0  0  0  0  0  0  0
   19.6780   21.7140   21.4769 H   0  0  0  0  0  0  0  0  0  0  0  0
   20.2140   20.9181   23.4031 C   0  0  0  0  0  0  0  0  0  0  0  0
   20.0364   21.9743   23.6486 H   0  0  0  0  0  0  0  0  0  0  0  0
   21.2884   20.7594   23.5655 H   0  0  0  0  0  0  0  0  0  0  0  0
   21.8472   17.9756   20.1999 O   0  0  0  0  0  0  0  0  0  0  0  0
   21.6172   18.3321   19.3166 H   0  0  0  0  0  0  0  0  0  0  0  0
  1  2  1  0  0  0  0
  1  3  1  0  0  0  0
  1  4  1  0  0  0  0
  4  5  1  0  0  0  0
  4  6  1  0  0  0  0
  4  7  1  0  0  0  0
  7  8  1  0  0  0  0
  7  9  1  0  0  0  0
  7 10  1  0  0  0  0
 10 11  1  0  0  0  0
 10 12  1  0  0  0  0
 10 13  1  0  0  0  0
 13 14  1  0  0  0  0
 13 15  1  0  0  0  0
 15 16  1  0  0  0  0
 15 17  1  0  0  0  0
 15 18  1  0  0  0  0
 18 19  1  0  0  0  0
 18 20  1  0  0  0  0
  1 21  1  0  0  0  0
 18 21  1  0  0  0  0
 21 22  1  0  0  0  0
 21 23  1  0  0  0  0
 13 24  1  0  0  0  0
 24 25  1  0  0  0  0
M  END
> <VConfSearch Rank>
571

> <Conf_Id>
30

> <Delta U+W>
0.000

> <U+W>
10.913

> <U>
13.140

> <W>
-2.227

> <W(PB)>
-4.367

> <W(SA)>
2.140

> <Valence>
19.155

> <Coulomb>
-8.157

> <VdW>
2.142

> <VdW6>
-11.576

> <VdW12>
13.718

> <Bond>
0.294

> <Angle>
3.547

> <Pdih>
15.314

> <Idih>
0.000

> <Tether>
0.000

$$$$
VeraChem MOL file


 25 25  0  0  0  0  0  0  0  0999 V2000     
   21.2216   20.5824   21.2638 C   0  0  0  0  0  0  0  0  0  0  0  0
   21.0295   21.6284   20.9883 H   0  0  0  0  0  0  0  0  0  0  0  0
   22.0269   20.2434   20.5980 H   0  0  0  0  0  0  0  0  0  0  0  0
   19.9526   19.7514   20.9520 C   0  0  0  0  0  0  0  0  0  0  0  0
   19.5772   20.0635   19.9679 H   0  0  0  0  0  0  0  0  0  0  0  0
   20.2251   18.6976   20.8227 H   0  0  0  0  0  0  0  0  0  0  0  0
   18.8122   19.9098   21.9894 C   0  0  0  0  0  0  0  0  0  0  0  0
   17.9013   20.2310   21.4662 H   0  0  0  0  0  0  0  0  0  0  0  0
   19.0308   20.7209   22.6937 H   0  0  0  0  0  0  0  0  0  0  0  0
   18.4846   18.6127   22.7717 C   0  0  0  0  0  0  0  0  0  0  0  0
   17.8099   18.8682   23.5995 H   0  0  0  0  0  0  0  0  0  0  0  0
   17.9142   17.9448   22.1132 H   0  0  0  0  0  0  0  0  0  0  0  0
   19.6863   17.8092   23.3290 C   0  0  0  0  0  0  0  0  0  0  0  0
   20.2211   17.3341   22.4958 H   0  0  0  0  0  0  0  0  0  0  0  0
   20.6990   18.6333   24.1612 C   0  0  0  0  0  0  0  0  0  0  0  0
   20.1873   19.4525   24.6824 H   0  0  0  0  0  0  0  0  0  0  0  0
   21.0945   17.9864   24.9555 H   0  0  0  0  0  0  0  0  0  0  0  0
   21.9247   19.1632   23.3645 C   0  0  0  0  0  0  0  0  0  0  0  0
   22.2565   18.4337   22.6134 H   0  0  0  0  0  0  0  0  0  0  0  0
   22.7567   19.2461   24.0773 H   0  0  0  0  0  0  0  0  0  0  0  0
   21.7384   20.5624   22.7270 C   0  0  0  0  0  0  0  0  0  0  0  0
   22.7149   21.0659   22.7277 H   0  0  0  0  0  0  0  0  0  0  0  0
   21.1033   21.1854   23.3695 H   0  0  0  0  0  0  0  0  0  0  0  0
   19.1560   16.7808   24.1569 O   0  0  0  0  0  0  0  0  0  0  0  0
   19.9139   16.2284   24.4413 H   0  0  0  0  0  0  0  0  0  0  0  0
  1  2  1  0  0  0  0
  1  3  1  0  0  0  0
  1  4  1  0  0  0  0
  4  5  1  0  0  0  0
  4  6  1  0  0  0  0
  4  7  1  0  0  0  0
  7  8  1  0  0  0  0
  7  9  1  0  0  0  0
  7 10  1  0  0  0  0
 10 11  1  0  0  0  0
 10 12  1  0  0  0  0
 10 13  1  0  0  0  0
 13 14  1  0  0  0  0
 13 15  1  0  0  0  0
 15 16  1  0  0  0  0
 15 17  1  0  0  0  0
 15 18  1  0  0  0  0
 18 19  1  0  0  0  0
 18 20  1  0  0  0  0
  1 21  1  0  0  0  0
 18 21  1  0  0  0  0
 21 22  1  0  0  0  0
 21 23  1  0  0  0  0
 13 24  1  0  0  0  0
 24 25  1  0  0  0  0
M  END
> <VConfSearch Rank>
572

> <Conf_Id>
162

> <Delta U+W>
0.219

> <U+W>
11.132

> <U>
13.296

> <W>
-2.164

> <W(PB)>
-4.311

> <W(SA)>
2.148

> <Valence>
18.607

> <Coulomb>
-8.339

> <VdW>
3.028

> <VdW6>
-12.271

> <VdW12>
15.299

> <Bond>
0.423

> <Angle>
4.488

> <Pdih>
13.696

> <Idih>
0.000

> <Tether>
0.000

$$$$
VeraChem MOL file


 25 25  0  0  0  0  0  0  0  0999 V2000     
   20.9899   19.6625   24.5210 C   0  0  0  0  0  0  0  0  0  0  0  0
   21.6579   18.7955   24.4417 H   0  0  0  0  0  0  0  0  0  0  0  0
   21.2179   20.1025   25.5014 H   0  0  0  0  0  0  0  0  0  0  0  0
   21.3473   20.7064   23.4337 C   0  0  0  0  0  0  0  0  0  0  0  0
   20.5060   21.3902   23.2582 H   0  0  0  0  0  0  0  0  0  0  0  0
   22.1500   21.3332   23.8458 H   0  0  0  0  0  0  0  0  0  0  0  0
   21.8787   20.1155   22.0980 C   0  0  0  0  0  0  0  0  0  0  0  0
   22.5113   19.2358   22.2771 H   0  0  0  0  0  0  0  0  0  0  0  0
   22.5474   20.8699   21.6613 H   0  0  0  0  0  0  0  0  0  0  0  0
   20.7941   19.8075   21.0331 C   0  0  0  0  0  0  0  0  0  0  0  0
   19.9803   20.5395   21.1052 H   0  0  0  0  0  0  0  0  0  0  0  0
   21.2386   19.9758   20.0435 H   0  0  0  0  0  0  0  0  0  0  0  0
   20.2295   18.3644   21.0234 C   0  0  0  0  0  0  0  0  0  0  0  0
   21.0192   17.6966   20.6501 H   0  0  0  0  0  0  0  0  0  0  0  0
   19.7592   17.8036   22.3866 C   0  0  0  0  0  0  0  0  0  0  0  0
   19.1966   16.8780   22.2084 H   0  0  0  0  0  0  0  0  0  0  0  0
   20.6354   17.4836   22.9607 H   0  0  0  0  0  0  0  0  0  0  0  0
   18.8762   18.7714   23.2178 C   0  0  0  0  0  0  0  0  0  0  0  0
   17.9175   18.2797   23.4310 H   0  0  0  0  0  0  0  0  0  0  0  0
   18.6101   19.6592   22.6321 H   0  0  0  0  0  0  0  0  0  0  0  0
   19.5067   19.2080   24.5623 C   0  0  0  0  0  0  0  0  0  0  0  0
   19.4239   18.3773   25.2763 H   0  0  0  0  0  0  0  0  0  0  0  0
   18.8976   20.0216   24.9790 H   0  0  0  0  0  0  0  0  0  0  0  0
   19.1326   18.3331   20.1178 O   0  0  0  0  0  0  0  0  0  0  0  0
   18.7869   17.4168   20.1257 H   0  0  0  0  0  0  0  0  0  0  0  0
  1  2  1  0  0  0  0
  1  3  1  0  0  0  0
  1  4  1  0  0  0  0
  4  5  1  0  0  0  0
  4  6  1  0  0  0  0
  4  7  1  0  0  0  0
  7  8  1  0  0  0  0
  7  9  1  0  0  0  0
  7 10  1  0  0  0  0
 10 11  1  0  0  0  0
 10 12  1  0  0  0  0
 10 13  1  0  0  0  0
 13 14  1  0  0  0  0
 13 15  1  0  0  0  0
 15 16  1  0  0  0  0
 15 17  1  0  0  0  0
 15 18  1  0  0  0  0
 18 19  1  0  0  0  0
 18 20  1  0  0  0  0
  1 21  1  0  0  0  0
 18 21  1  0  0  0  0
 21 22  1  0  0  0  0
 21 23  1  0  0  0  0
 13 24  1  0  0  0  0
 24 25  1  0  0  0  0
M  END
> <VConfSearch Rank>
573

> <Conf_Id>
155

> <Delta U+W>
0.339

> <U+W>
11.252

> <U>
13.420

> <W>
-2.167

> <W(PB)>
-4.325

> <W(SA)>
2.157

> <Valence>
18.609

> <Coulomb>
-8.052

> <VdW>
2.863

> <VdW6>
-12.524

> <VdW12>
15.387

> <Bond>
0.430

> <Angle>
4.724

> <Pdih>
13.455

> <Idih>
0.000

> <Tether>
0.000

$$$$
VeraChem MOL file


 25 25  0  0  0  0  0  0  0  0999 V2000     
   22.0076   20.2653   22.2333 C   0  0  0  0  0  0  0  0  0  0  0  0
   22.9406   19.8142   22.5974 H   0  0  0  0  0  0  0  0  0  0  0  0
   22.3114   21.1802   21.7066 H   0  0  0  0  0  0  0  0  0  0  0  0
   21.3656   19.3286   21.1763 C   0  0  0  0  0  0  0  0  0  0  0  0
   20.5008   19.8281   20.7283 H   0  0  0  0  0  0  0  0  0  0  0  0
   22.0720   19.2388   20.3399 H   0  0  0  0  0  0  0  0  0  0  0  0
   20.9999   17.8829   21.6229 C   0  0  0  0  0  0  0  0  0  0  0  0
   21.8973   17.2624   21.4957 H   0  0  0  0  0  0  0  0  0  0  0  0
   20.2574   17.4719   20.9253 H   0  0  0  0  0  0  0  0  0  0  0  0
   20.5028   17.6691   23.0786 C   0  0  0  0  0  0  0  0  0  0  0  0
   20.4342   16.5862   23.2460 H   0  0  0  0  0  0  0  0  0  0  0  0
   21.2869   17.9787   23.7751 H   0  0  0  0  0  0  0  0  0  0  0  0
   19.1390   18.3011   23.4848 C   0  0  0  0  0  0  0  0  0  0  0  0
   19.1392   18.4244   24.5773 H   0  0  0  0  0  0  0  0  0  0  0  0
   18.7602   19.6638   22.8522 C   0  0  0  0  0  0  0  0  0  0  0  0
   18.6928   19.5473   21.7667 H   0  0  0  0  0  0  0  0  0  0  0  0
   17.7289   19.8916   23.1526 H   0  0  0  0  0  0  0  0  0  0  0  0
   19.6255   20.9054   23.2238 C   0  0  0  0  0  0  0  0  0  0  0  0
   19.2147   21.3266   24.1516 H   0  0  0  0  0  0  0  0  0  0  0  0
   19.4793   21.6813   22.4604 H   0  0  0  0  0  0  0  0  0  0  0  0
   21.1453   20.6974   23.4555 C   0  0  0  0  0  0  0  0  0  0  0  0
   21.2944   20.0149   24.2981 H   0  0  0  0  0  0  0  0  0  0  0  0
   21.5577   21.6480   23.8202 H   0  0  0  0  0  0  0  0  0  0  0  0
   18.1106   17.3817   23.1338 O   0  0  0  0  0  0  0  0  0  0  0  0
   18.3247   16.5350   23.5770 H   0  0  0  0  0  0  0  0  0  0  0  0
  1  2  1  0  0  0  0
  1  3  1  0  0  0  0
  1  4  1  0  0  0  0
  4  5  1  0  0  0  0
  4  6  1  0  0  0  0
  4  7  1  0  0  0  0
  7  8  1  0  0  0  0
  7  9  1  0  0  0  0
  7 10  1  0  0  0  0
 10 11  1  0  0  0  0
 10 12  1  0  0  0  0
 10 13  1  0  0  0  0
 13 14  1  0  0  0  0
 13 15  1  0  0  0  0
 15 16  1  0  0  0  0
 15 17  1  0  0  0  0
 15 18  1  0  0  0  0
 18 19  1  0  0  0  0
 18 20  1  0  0  0  0
  1 21  1  0  0  0  0
 18 21  1  0  0  0  0
 21 22  1  0  0  0  0
 21 23  1  0  0  0  0
 13 24  1  0  0  0  0
 24 25  1  0  0  0  0
M  END
> <VConfSearch Rank>
574

> <Conf_Id>
146

> <Delta U+W>
2.553

> <U+W>
13.466

> <U>
15.643

> <W>
-2.176

> <W(PB)>
-4.307

> <W(SA)>
2.131

> <Valence>
18.916

> <Coulomb>
-7.506

> <VdW>
4.232

> <VdW6>
-13.632

> <VdW12>
17.864

> <Bond>
0.735

> <Angle>
9.140

> <Pdih>
9.042

> <Idih>
0.000

> <Tether>
0.000

$$$$
VeraChem MOL file


 25 25  0  0  0  0  0  0  0  0999 V2000     
   20.0250   20.3160   20.9083 C   0  0  0  0  0  0  0  0  0  0  0  0
   19.2125   21.0450   20.7859 H   0  0  0  0  0  0  0  0  0  0  0  0
   20.5671   20.3137   19.9528 H   0  0  0  0  0  0  0  0  0  0  0  0
   19.4195   18.9029   21.0998 C   0  0  0  0  0  0  0  0  0  0  0  0
   18.8389   18.6721   20.1962 H   0  0  0  0  0  0  0  0  0  0  0  0
   20.2133   18.1474   21.1176 H   0  0  0  0  0  0  0  0  0  0  0  0
   18.4721   18.7251   22.3126 C   0  0  0  0  0  0  0  0  0  0  0  0
   18.0364   17.7187   22.2471 H   0  0  0  0  0  0  0  0  0  0  0  0
   17.6279   19.4216   22.2193 H   0  0  0  0  0  0  0  0  0  0  0  0
   19.0987   18.8797   23.7230 C   0  0  0  0  0  0  0  0  0  0  0  0
   19.1739   19.9380   23.9919 H   0  0  0  0  0  0  0  0  0  0  0  0
   18.3803   18.4643   24.4426 H   0  0  0  0  0  0  0  0  0  0  0  0
   20.4691   18.1801   23.9146 C   0  0  0  0  0  0  0  0  0  0  0  0
   20.5983   17.4063   23.1460 H   0  0  0  0  0  0  0  0  0  0  0  0
   21.6826   19.1435   23.8819 C   0  0  0  0  0  0  0  0  0  0  0  0
   21.5350   19.9348   24.6287 H   0  0  0  0  0  0  0  0  0  0  0  0
   22.5679   18.5849   24.2129 H   0  0  0  0  0  0  0  0  0  0  0  0
   22.0299   19.7887   22.5127 C   0  0  0  0  0  0  0  0  0  0  0  0
   22.2214   19.0174   21.7556 H   0  0  0  0  0  0  0  0  0  0  0  0
   22.9884   20.3107   22.6384 H   0  0  0  0  0  0  0  0  0  0  0  0
   20.9979   20.8274   22.0021 C   0  0  0  0  0  0  0  0  0  0  0  0
   21.5500   21.6743   21.5719 H   0  0  0  0  0  0  0  0  0  0  0  0
   20.4424   21.2623   22.8406 H   0  0  0  0  0  0  0  0  0  0  0  0
   20.4671   17.5454   25.1884 O   0  0  0  0  0  0  0  0  0  0  0  0
   21.3157   17.0615   25.2652 H   0  0  0  0  0  0  0  0  0  0  0  0
  1  2  1  0  0  0  0
  1  3  1  0  0  0  0
  1  4  1  0  0  0  0
  4  5  1  0  0  0  0
  4  6  1  0  0  0  0
  4  7  1  0  0  0  0
  7  8  1  0  0  0  0
  7  9  1  0  0  0  0
  7 10  1  0  0  0  0
 10 11  1  0  0  0  0
 10 12  1  0  0  0  0
 10 13  1  0  0  0  0
 13 14  1  0  0  0  0
 13 15  1  0  0  0  0
 15 16  1  0  0  0  0
 15 17  1  0  0  0  0
 15 18  1  0  0  0  0
 18 19  1  0  0  0  0
 18 20  1  0  0  0  0
  1 21  1  0  0  0  0
 18 21  1  0  0  0  0
 21 22  1  0  0  0  0
 21 23  1  0  0  0  0
 13 24  1  0  0  0  0
 24 25  1  0  0  0  0
M  END
> <VConfSearch Rank>
575

> <Conf_Id>
62

> <Delta U+W>
-1.779

> <U+W>
9.134

> <U>
11.364

> <W>
-2.230

> <W(PB)>
-4.359

> <W(SA)>
2.129

> <Valence>
16.582

> <Coulomb>
-8.150

> <VdW>
2.933

> <VdW6>
-12.531

> <VdW12>
15.464

> <Bond>
0.439

> <Angle>
5.099

> <Pdih>
11.044

> <Idih>
0.000

> <Tether>
0.000

$$$$
VeraChem MOL file


 25 25  0  0  0  0  0  0  0  0999 V2000     
   18.9291   20.2388   22.0911 C   0  0  0  0  0  0  0  0  0  0  0  0
   19.8022   20.6962   21.6119 H   0  0  0  0  0  0  0  0  0  0  0  0
   18.0810   20.8585   21.7697 H   0  0  0  0  0  0  0  0  0  0  0  0
   19.0317   20.3626   23.6318 C   0  0  0  0  0  0  0  0  0  0  0  0
   19.0787   21.4333   23.8732 H   0  0  0  0  0  0  0  0  0  0  0  0
   18.1023   19.9959   24.0880 H   0  0  0  0  0  0  0  0  0  0  0  0
   20.2364   19.6691   24.3177 C   0  0  0  0  0  0  0  0  0  0  0  0
   20.0259   18.6063   24.4823 H   0  0  0  0  0  0  0  0  0  0  0  0
   20.3208   20.0919   25.3282 H   0  0  0  0  0  0  0  0  0  0  0  0
   21.6014   19.8494   23.6011 C   0  0  0  0  0  0  0  0  0  0  0  0
   21.6043   20.7530   22.9792 H   0  0  0  0  0  0  0  0  0  0  0  0
   22.3544   20.0314   24.3791 H   0  0  0  0  0  0  0  0  0  0  0  0
   22.0740   18.6234   22.7794 C   0  0  0  0  0  0  0  0  0  0  0  0
   22.0497   17.7400   23.4336 H   0  0  0  0  0  0  0  0  0  0  0  0
   21.2630   18.2975   21.5004 C   0  0  0  0  0  0  0  0  0  0  0  0
   21.2588   19.1565   20.8185 H   0  0  0  0  0  0  0  0  0  0  0  0
   21.8103   17.5089   20.9671 H   0  0  0  0  0  0  0  0  0  0  0  0
   19.8236   17.7737   21.7517 C   0  0  0  0  0  0  0  0  0  0  0  0
   19.7470   17.3236   22.7480 H   0  0  0  0  0  0  0  0  0  0  0  0
   19.6359   16.9416   21.0594 H   0  0  0  0  0  0  0  0  0  0  0  0
   18.6935   18.8123   21.5350 C   0  0  0  0  0  0  0  0  0  0  0  0
   17.7574   18.4119   21.9472 H   0  0  0  0  0  0  0  0  0  0  0  0
   18.5259   18.9049   20.4532 H   0  0  0  0  0  0  0  0  0  0  0  0
   23.4191   18.8617   22.3838 O   0  0  0  0  0  0  0  0  0  0  0  0
   23.9357   18.9991   23.2051 H   0  0  0  0  0  0  0  0  0  0  0  0
  1  2  1  0  0  0  0
  1  3  1  0  0  0  0
  1  4  1  0  0  0  0
  4  5  1  0  0  0  0
  4  6  1  0  0  0  0
  4  7  1  0  0  0  0
  7  8  1  0  0  0  0
  7  9  1  0  0  0  0
  7 10  1  0  0  0  0
 10 11  1  0  0  0  0
 10 12  1  0  0  0  0
 10 13  1  0  0  0  0
 13 14  1  0  0  0  0
 13 15  1  0  0  0  0
 15 16  1  0  0  0  0
 15 17  1  0  0  0  0
 15 18  1  0  0  0  0
 18 19  1  0  0  0  0
 18 20  1  0  0  0  0
  1 21  1  0  0  0  0
 18 21  1  0  0  0  0
 21 22  1  0  0  0  0
 21 23  1  0  0  0  0
 13 24  1  0  0  0  0
 24 25  1  0  0  0  0
M  END
> <VConfSearch Rank>
576

> <Conf_Id>
121

> <Delta U+W>
-1.283

> <U+W>
9.630

> <U>
11.876

> <W>
-2.246

> <W(PB)>
-4.376

> <W(SA)>
2.130

> <Valence>
17.153

> <Coulomb>
-7.966

> <VdW>
2.689

> <VdW6>
-12.458

> <VdW12>
15.147

> <Bond>
0.421

> <Angle>
5.258

> <Pdih>
11.475

> <Idih>
0.000

> <Tether>
0.000

$$$$
VeraChem MOL file


 25 25  0  0  0  0  0  0  0  0999 V2000     
   19.2879   19.1719   21.1328 C   0  0  0  0  0  0  0  0  0  0  0  0
   19.6765   20.1966   21.1349 H   0  0  0  0  0  0  0  0  0  0  0  0
   18.6799   19.1087   20.2201 H   0  0  0  0  0  0  0  0  0  0  0  0
   18.3365   18.9528   22.3356 C   0  0  0  0  0  0  0  0  0  0  0  0
   17.5107   19.6706   22.2364 H   0  0  0  0  0  0  0  0  0  0  0  0
   17.8764   17.9585   22.2581 H   0  0  0  0  0  0  0  0  0  0  0  0
   18.9402   19.1188   23.7536 C   0  0  0  0  0  0  0  0  0  0  0  0
   19.4406   18.1964   24.0695 H   0  0  0  0  0  0  0  0  0  0  0  0
   18.0999   19.2286   24.4526 H   0  0  0  0  0  0  0  0  0  0  0  0
   19.8830   20.3387   23.9345 C   0  0  0  0  0  0  0  0  0  0  0  0
   19.6622   21.1226   23.2000 H   0  0  0  0  0  0  0  0  0  0  0  0
   19.6559   20.7865   24.9110 H   0  0  0  0  0  0  0  0  0  0  0  0
   21.3955   20.0034   23.9329 C   0  0  0  0  0  0  0  0  0  0  0  0
   21.5711   19.2142   24.6781 H   0  0  0  0  0  0  0  0  0  0  0  0
   21.9966   19.5385   22.5824 C   0  0  0  0  0  0  0  0  0  0  0  0
   21.8345   20.2982   21.8078 H   0  0  0  0  0  0  0  0  0  0  0  0
   23.0856   19.4842   22.7107 H   0  0  0  0  0  0  0  0  0  0  0  0
   21.5216   18.1411   22.1020 C   0  0  0  0  0  0  0  0  0  0  0  0
   21.1856   17.5360   22.9517 H   0  0  0  0  0  0  0  0  0  0  0  0
   22.3921   17.5998   21.7067 H   0  0  0  0  0  0  0  0  0  0  0  0
   20.4469   18.1549   20.9850 C   0  0  0  0  0  0  0  0  0  0  0  0
   20.0310   17.1439   20.8780 H   0  0  0  0  0  0  0  0  0  0  0  0
   20.9536   18.3696   20.0342 H   0  0  0  0  0  0  0  0  0  0  0  0
   22.0937   21.1751   24.3354 O   0  0  0  0  0  0  0  0  0  0  0  0
   23.0412   20.9330   24.3969 H   0  0  0  0  0  0  0  0  0  0  0  0
  1  2  1  0  0  0  0
  1  3  1  0  0  0  0
  1  4  1  0  0  0  0
  4  5  1  0  0  0  0
  4  6  1  0  0  0  0
  4  7  1  0  0  0  0
  7  8  1  0  0  0  0
  7  9  1  0  0  0  0
  7 10  1  0  0  0  0
 10 11  1  0  0  0  0
 10 12  1  0  0  0  0
 10 13  1  0  0  0  0
 13 14  1  0  0  0  0
 13 15  1  0  0  0  0
 15 16  1  0  0  0  0
 15 17  1  0  0  0  0
 15 18  1  0  0  0  0
 18 19  1  0  0  0  0
 18 20  1  0  0  0  0
  1 21  1  0  0  0  0
 18 21  1  0  0  0  0
 21 22  1  0  0  0  0
 21 23  1  0  0  0  0
 13 24  1  0  0  0  0
 24 25  1  0  0  0  0
M  END
> <VConfSearch Rank>
577

> <Conf_Id>
24

> <Delta U+W>
-1.236

> <U+W>
9.678

> <U>
11.876

> <W>
-2.199

> <W(PB)>
-4.335

> <W(SA)>
2.137

> <Valence>
17.153

> <Coulomb>
-7.966

> <VdW>
2.689

> <VdW6>
-12.458

> <VdW12>
15.147

> <Bond>
0.421

> <Angle>
5.258

> <Pdih>
11.475

> <Idih>
0.000

> <Tether>
0.000

$$$$
VeraChem MOL file


 25 25  0  0  0  0  0  0  0  0999 V2000     
   20.5148   20.7319   21.1756 C   0  0  0  0  0  0  0  0  0  0  0  0
   21.2757   20.6855   20.3846 H   0  0  0  0  0  0  0  0  0  0  0  0
   20.0251   21.7084   21.0597 H   0  0  0  0  0  0  0  0  0  0  0  0
   19.4524   19.6311   20.9150 C   0  0  0  0  0  0  0  0  0  0  0  0
   18.5295   19.8460   21.4685 H   0  0  0  0  0  0  0  0  0  0  0  0
   19.1671   19.7065   19.8567 H   0  0  0  0  0  0  0  0  0  0  0  0
   19.9034   18.1740   21.1836 C   0  0  0  0  0  0  0  0  0  0  0  0
   20.9648   18.0418   20.9336 H   0  0  0  0  0  0  0  0  0  0  0  0
   19.3562   17.5355   20.4764 H   0  0  0  0  0  0  0  0  0  0  0  0
   19.5912   17.6381   22.6095 C   0  0  0  0  0  0  0  0  0  0  0  0
   18.6311   18.0276   22.9715 H   0  0  0  0  0  0  0  0  0  0  0  0
   19.4509   16.5528   22.5125 H   0  0  0  0  0  0  0  0  0  0  0  0
   20.7052   17.8790   23.6574 C   0  0  0  0  0  0  0  0  0  0  0  0
   21.6718   17.9123   23.1375 H   0  0  0  0  0  0  0  0  0  0  0  0
   20.5423   19.1577   24.5179 C   0  0  0  0  0  0  0  0  0  0  0  0
   19.7202   19.0144   25.2313 H   0  0  0  0  0  0  0  0  0  0  0  0
   21.4515   19.2688   25.1234 H   0  0  0  0  0  0  0  0  0  0  0  0
   20.2971   20.4855   23.7581 C   0  0  0  0  0  0  0  0  0  0  0  0
   20.4378   21.3139   24.4658 H   0  0  0  0  0  0  0  0  0  0  0  0
   19.2449   20.5506   23.4575 H   0  0  0  0  0  0  0  0  0  0  0  0
   21.2366   20.7031   22.5451 C   0  0  0  0  0  0  0  0  0  0  0  0
   22.0354   19.9526   22.5245 H   0  0  0  0  0  0  0  0  0  0  0  0
   21.7589   21.6611   22.6730 H   0  0  0  0  0  0  0  0  0  0  0  0
   20.7277   16.7715   24.5488 O   0  0  0  0  0  0  0  0  0  0  0  0
   19.8512   16.7491   24.9850 H   0  0  0  0  0  0  0  0  0  0  0  0
  1  2  1  0  0  0  0
  1  3  1  0  0  0  0
  1  4  1  0  0  0  0
  4  5  1  0  0  0  0
  4  6  1  0  0  0  0
  4  7  1  0  0  0  0
  7  8  1  0  0  0  0
  7  9  1  0  0  0  0
  7 10  1  0  0  0  0
 10 11  1  0  0  0  0
 10 12  1  0  0  0  0
 10 13  1  0  0  0  0
 13 14  1  0  0  0  0
 13 15  1  0  0  0  0
 15 16  1  0  0  0  0
 15 17  1  0  0  0  0
 15 18  1  0  0  0  0
 18 19  1  0  0  0  0
 18 20  1  0  0  0  0
  1 21  1  0  0  0  0
 18 21  1  0  0  0  0
 21 22  1  0  0  0  0
 21 23  1  0  0  0  0
 13 24  1  0  0  0  0
 24 25  1  0  0  0  0
M  END
> <VConfSearch Rank>
578

> <Conf_Id>
167

> <Delta U+W>
0.388

> <U+W>
11.301

> <U>
13.202

> <W>
-1.901

> <W(PB)>
-4.065

> <W(SA)>
2.163

> <Valence>
18.957

> <Coulomb>
-8.753

> <VdW>
2.998

> <VdW6>
-12.294

> <VdW12>
15.292

> <Bond>
0.419

> <Angle>
4.543

> <Pdih>
13.996

> <Idih>
0.000

> <Tether>
0.000

$$$$
VeraChem MOL file


 25 25  0  0  0  0  0  0  0  0999 V2000     
   20.8659   17.2857   22.2812 C   0  0  0  0  0  0  0  0  0  0  0  0
   21.1985   16.9679   21.2838 H   0  0  0  0  0  0  0  0  0  0  0  0
   20.9437   16.3933   22.9173 H   0  0  0  0  0  0  0  0  0  0  0  0
   19.3687   17.6836   22.2081 C   0  0  0  0  0  0  0  0  0  0  0  0
   19.1624   18.2455   21.2901 H   0  0  0  0  0  0  0  0  0  0  0  0
   18.7939   16.7543   22.0936 H   0  0  0  0  0  0  0  0  0  0  0  0
   18.8186   18.4406   23.4447 C   0  0  0  0  0  0  0  0  0  0  0  0
   19.4016   18.2035   24.3440 H   0  0  0  0  0  0  0  0  0  0  0  0
   17.8103   18.0542   23.6467 H   0  0  0  0  0  0  0  0  0  0  0  0
   18.6866   19.9774   23.2630 C   0  0  0  0  0  0  0  0  0  0  0  0
   18.0664   20.1888   22.3822 H   0  0  0  0  0  0  0  0  0  0  0  0
   18.1223   20.3641   24.1220 H   0  0  0  0  0  0  0  0  0  0  0  0
   20.0041   20.7860   23.1646 C   0  0  0  0  0  0  0  0  0  0  0  0
   20.6370   20.5481   24.0300 H   0  0  0  0  0  0  0  0  0  0  0  0
   20.7966   20.5479   21.8531 C   0  0  0  0  0  0  0  0  0  0  0  0
   20.1287   20.1684   21.0733 H   0  0  0  0  0  0  0  0  0  0  0  0
   21.1534   21.5096   21.4610 H   0  0  0  0  0  0  0  0  0  0  0  0
   22.0345   19.6245   21.9941 C   0  0  0  0  0  0  0  0  0  0  0  0
   22.8433   20.2114   22.4505 H   0  0  0  0  0  0  0  0  0  0  0  0
   22.3926   19.3532   20.9917 H   0  0  0  0  0  0  0  0  0  0  0  0
   21.8566   18.3381   22.8392 C   0  0  0  0  0  0  0  0  0  0  0  0
   21.6014   18.5896   23.8750 H   0  0  0  0  0  0  0  0  0  0  0  0
   22.8408   17.8548   22.9073 H   0  0  0  0  0  0  0  0  0  0  0  0
   19.6605   22.1649   23.2329 O   0  0  0  0  0  0  0  0  0  0  0  0
   20.5037   22.6643   23.2395 H   0  0  0  0  0  0  0  0  0  0  0  0
  1  2  1  0  0  0  0
  1  3  1  0  0  0  0
  1  4  1  0  0  0  0
  4  5  1  0  0  0  0
  4  6  1  0  0  0  0
  4  7  1  0  0  0  0
  7  8  1  0  0  0  0
  7  9  1  0  0  0  0
  7 10  1  0  0  0  0
 10 11  1  0  0  0  0
 10 12  1  0  0  0  0
 10 13  1  0  0  0  0
 13 14  1  0  0  0  0
 13 15  1  0  0  0  0
 15 16  1  0  0  0  0
 15 17  1  0  0  0  0
 15 18  1  0  0  0  0
 18 19  1  0  0  0  0
 18 20  1  0  0  0  0
  1 21  1  0  0  0  0
 18 21  1  0  0  0  0
 21 22  1  0  0  0  0
 21 23  1  0  0  0  0
 13 24  1  0  0  0  0
 24 25  1  0  0  0  0
M  END
> <VConfSearch Rank>
579

> <Conf_Id>
60

> <Delta U+W>
-1.838

> <U+W>
9.075

> <U>
11.150

> <W>
-2.074

> <W(PB)>
-4.196

> <W(SA)>
2.121

> <Valence>
16.582

> <Coulomb>
-8.361

> <VdW>
2.928

> <VdW6>
-12.539

> <VdW12>
15.467

> <Bond>
0.441

> <Angle>
5.093

> <Pdih>
11.049

> <Idih>
0.000

> <Tether>
0.000

$$$$
VeraChem MOL file


 25 25  0  0  0  0  0  0  0  0999 V2000     
   20.0691   17.5856   23.9297 C   0  0  0  0  0  0  0  0  0  0  0  0
   19.2785   16.8418   23.7620 H   0  0  0  0  0  0  0  0  0  0  0  0
   20.5753   17.2760   24.8542 H   0  0  0  0  0  0  0  0  0  0  0  0
   19.4223   18.9677   24.1982 C   0  0  0  0  0  0  0  0  0  0  0  0
   18.8029   18.8675   25.0999 H   0  0  0  0  0  0  0  0  0  0  0  0
   20.1899   19.7006   24.4716 H   0  0  0  0  0  0  0  0  0  0  0  0
   18.5118   19.5255   23.0754 C   0  0  0  0  0  0  0  0  0  0  0  0
   18.0404   20.4419   23.4560 H   0  0  0  0  0  0  0  0  0  0  0  0
   17.6888   18.8213   22.8926 H   0  0  0  0  0  0  0  0  0  0  0  0
   19.1926   19.8654   21.7242 C   0  0  0  0  0  0  0  0  0  0  0  0
   19.3180   18.9578   21.1252 H   0  0  0  0  0  0  0  0  0  0  0  0
   18.4831   20.4749   21.1488 H   0  0  0  0  0  0  0  0  0  0  0  0
   20.5436   20.6175   21.8421 C   0  0  0  0  0  0  0  0  0  0  0  0
   20.6239   21.0846   22.8329 H   0  0  0  0  0  0  0  0  0  0  0  0
   21.7869   19.7259   21.6001 C   0  0  0  0  0  0  0  0  0  0  0  0
   21.6930   19.2323   20.6240 H   0  0  0  0  0  0  0  0  0  0  0  0
   22.6591   20.3876   21.5144 H   0  0  0  0  0  0  0  0  0  0  0  0
   22.1111   18.6644   22.6865 C   0  0  0  0  0  0  0  0  0  0  0  0
   22.2502   19.1397   23.6661 H   0  0  0  0  0  0  0  0  0  0  0  0
   23.0909   18.2365   22.4338 H   0  0  0  0  0  0  0  0  0  0  0  0
   21.0993   17.4924   22.7741 C   0  0  0  0  0  0  0  0  0  0  0  0
   21.6661   16.5630   22.9224 H   0  0  0  0  0  0  0  0  0  0  0  0
   20.5911   17.3505   21.8137 H   0  0  0  0  0  0  0  0  0  0  0  0
   20.5656   21.6493   20.8628 O   0  0  0  0  0  0  0  0  0  0  0  0
   19.8154   22.2461   21.0670 H   0  0  0  0  0  0  0  0  0  0  0  0
  1  2  1  0  0  0  0
  1  3  1  0  0  0  0
  1  4  1  0  0  0  0
  4  5  1  0  0  0  0
  4  6  1  0  0  0  0
  4  7  1  0  0  0  0
  7  8  1  0  0  0  0
  7  9  1  0  0  0  0
  7 10  1  0  0  0  0
 10 11  1  0  0  0  0
 10 12  1  0  0  0  0
 10 13  1  0  0  0  0
 13 14  1  0  0  0  0
 13 15  1  0  0  0  0
 15 16  1  0  0  0  0
 15 17  1  0  0  0  0
 15 18  1  0  0  0  0
 18 19  1  0  0  0  0
 18 20  1  0  0  0  0
  1 21  1  0  0  0  0
 18 21  1  0  0  0  0
 21 22  1  0  0  0  0
 21 23  1  0  0  0  0
 13 24  1  0  0  0  0
 24 25  1  0  0  0  0
M  END
> <VConfSearch Rank>
580

> <Conf_Id>
129

> <Delta U+W>
-1.846

> <U+W>
9.067

> <U>
11.150

> <W>
-2.083

> <W(PB)>
-4.217

> <W(SA)>
2.134

> <Valence>
16.583

> <Coulomb>
-8.361

> <VdW>
2.928

> <VdW6>
-12.539

> <VdW12>
15.467

> <Bond>
0.441

> <Angle>
5.093

> <Pdih>
11.049

> <Idih>
0.000

> <Tether>
0.000

$$$$
VeraChem MOL file


 25 25  0  0  0  0  0  0  0  0999 V2000     
   22.2153   18.7109   22.2085 C   0  0  0  0  0  0  0  0  0  0  0  0
   22.9843   18.6960   22.9926 H   0  0  0  0  0  0  0  0  0  0  0  0
   22.7290   18.4129   21.2842 H   0  0  0  0  0  0  0  0  0  0  0  0
   21.7143   20.1636   22.0108 C   0  0  0  0  0  0  0  0  0  0  0  0
   22.5786   20.7667   21.7009 H   0  0  0  0  0  0  0  0  0  0  0  0
   21.0231   20.2165   21.1619 H   0  0  0  0  0  0  0  0  0  0  0  0
   21.0991   20.8490   23.2566 C   0  0  0  0  0  0  0  0  0  0  0  0
   20.9022   21.8973   22.9933 H   0  0  0  0  0  0  0  0  0  0  0  0
   21.8468   20.8793   24.0606 H   0  0  0  0  0  0  0  0  0  0  0  0
   19.7840   20.2449   23.8142 C   0  0  0  0  0  0  0  0  0  0  0  0
   20.0047   19.3809   24.4492 H   0  0  0  0  0  0  0  0  0  0  0  0
   19.3553   20.9895   24.4986 H   0  0  0  0  0  0  0  0  0  0  0  0
   18.7284   19.8685   22.7424 C   0  0  0  0  0  0  0  0  0  0  0  0
   18.9367   20.4116   21.8110 H   0  0  0  0  0  0  0  0  0  0  0  0
   18.6409   18.3513   22.4402 C   0  0  0  0  0  0  0  0  0  0  0  0
   18.4629   17.8022   23.3740 H   0  0  0  0  0  0  0  0  0  0  0  0
   17.7483   18.1854   21.8221 H   0  0  0  0  0  0  0  0  0  0  0  0
   19.8455   17.7140   21.6960 C   0  0  0  0  0  0  0  0  0  0  0  0
   20.0203   18.2165   20.7359 H   0  0  0  0  0  0  0  0  0  0  0  0
   19.5536   16.6880   21.4332 H   0  0  0  0  0  0  0  0  0  0  0  0
   21.1517   17.6285   22.5273 C   0  0  0  0  0  0  0  0  0  0  0  0
   21.6170   16.6524   22.3328 H   0  0  0  0  0  0  0  0  0  0  0  0
   20.9255   17.6133   23.5994 H   0  0  0  0  0  0  0  0  0  0  0  0
   17.4511   20.2794   23.2133 O   0  0  0  0  0  0  0  0  0  0  0  0
   17.2869   19.7798   24.0394 H   0  0  0  0  0  0  0  0  0  0  0  0
  1  2  1  0  0  0  0
  1  3  1  0  0  0  0
  1  4  1  0  0  0  0
  4  5  1  0  0  0  0
  4  6  1  0  0  0  0
  4  7  1  0  0  0  0
  7  8  1  0  0  0  0
  7  9  1  0  0  0  0
  7 10  1  0  0  0  0
 10 11  1  0  0  0  0
 10 12  1  0  0  0  0
 10 13  1  0  0  0  0
 13 14  1  0  0  0  0
 13 15  1  0  0  0  0
 15 16  1  0  0  0  0
 15 17  1  0  0  0  0
 15 18  1  0  0  0  0
 18 19  1  0  0  0  0
 18 20  1  0  0  0  0
  1 21  1  0  0  0  0
 18 21  1  0  0  0  0
 21 22  1  0  0  0  0
 21 23  1  0  0  0  0
 13 24  1  0  0  0  0
 24 25  1  0  0  0  0
M  END
> <VConfSearch Rank>
581

> <Conf_Id>
140

> <Delta U+W>
-1.702

> <U+W>
9.211

> <U>
11.181

> <W>
-1.969

> <W(PB)>
-4.093

> <W(SA)>
2.124

> <Valence>
16.954

> <Coulomb>
-8.661

> <VdW>
2.887

> <VdW6>
-12.561

> <VdW12>
15.448

> <Bond>
0.433

> <Angle>
5.120

> <Pdih>
11.401

> <Idih>
0.000

> <Tether>
0.000

$$$$
VeraChem MOL file


 25 25  0  0  0  0  0  0  0  0999 V2000     
   18.7379   19.4087   21.2977 C   0  0  0  0  0  0  0  0  0  0  0  0
   18.7102   18.8248   20.3677 H   0  0  0  0  0  0  0  0  0  0  0  0
   17.8440   20.0468   21.2733 H   0  0  0  0  0  0  0  0  0  0  0  0
   19.9805   20.3359   21.2720 C   0  0  0  0  0  0  0  0  0  0  0  0
   20.8481   19.8077   20.8606 H   0  0  0  0  0  0  0  0  0  0  0  0
   19.7742   21.1310   20.5424 H   0  0  0  0  0  0  0  0  0  0  0  0
   20.3401   21.0040   22.6243 C   0  0  0  0  0  0  0  0  0  0  0  0
   19.4570   21.0883   23.2706 H   0  0  0  0  0  0  0  0  0  0  0  0
   20.6392   22.0396   22.4117 H   0  0  0  0  0  0  0  0  0  0  0  0
   21.5189   20.3392   23.3856 C   0  0  0  0  0  0  0  0  0  0  0  0
   22.3990   20.3077   22.7302 H   0  0  0  0  0  0  0  0  0  0  0  0
   21.7897   21.0044   24.2165 H   0  0  0  0  0  0  0  0  0  0  0  0
   21.2642   18.9292   23.9755 C   0  0  0  0  0  0  0  0  0  0  0  0
   20.3656   18.9577   24.6061 H   0  0  0  0  0  0  0  0  0  0  0  0
   21.1211   17.8098   22.9121 C   0  0  0  0  0  0  0  0  0  0  0  0
   21.6035   18.1111   21.9767 H   0  0  0  0  0  0  0  0  0  0  0  0
   21.6824   16.9245   23.2406 H   0  0  0  0  0  0  0  0  0  0  0  0
   19.6667   17.3460   22.6387 C   0  0  0  0  0  0  0  0  0  0  0  0
   19.3637   16.6863   23.4634 H   0  0  0  0  0  0  0  0  0  0  0  0
   19.6557   16.7192   21.7367 H   0  0  0  0  0  0  0  0  0  0  0  0
   18.5896   18.4518   22.5070 C   0  0  0  0  0  0  0  0  0  0  0  0
   18.5097   19.0238   23.4384 H   0  0  0  0  0  0  0  0  0  0  0  0
   17.6177   17.9494   22.4075 H   0  0  0  0  0  0  0  0  0  0  0  0
   22.3735   18.6129   24.8071 O   0  0  0  0  0  0  0  0  0  0  0  0
   23.1605   18.5977   24.2244 H   0  0  0  0  0  0  0  0  0  0  0  0
  1  2  1  0  0  0  0
  1  3  1  0  0  0  0
  1  4  1  0  0  0  0
  4  5  1  0  0  0  0
  4  6  1  0  0  0  0
  4  7  1  0  0  0  0
  7  8  1  0  0  0  0
  7  9  1  0  0  0  0
  7 10  1  0  0  0  0
 10 11  1  0  0  0  0
 10 12  1  0  0  0  0
 10 13  1  0  0  0  0
 13 14  1  0  0  0  0
 13 15  1  0  0  0  0
 15 16  1  0  0  0  0
 15 17  1  0  0  0  0
 15 18  1  0  0  0  0
 18 19  1  0  0  0  0
 18 20  1  0  0  0  0
  1 21  1  0  0  0  0
 18 21  1  0  0  0  0
 21 22  1  0  0  0  0
 21 23  1  0  0  0  0
 13 24  1  0  0  0  0
 24 25  1  0  0  0  0
M  END
> <VConfSearch Rank>
582

> <Conf_Id>
68

> <Delta U+W>
-1.765

> <U+W>
9.148

> <U>
11.181

> <W>
-2.032

> <W(PB)>
-4.147

> <W(SA)>
2.114

> <Valence>
16.955

> <Coulomb>
-8.661

> <VdW>
2.887

> <VdW6>
-12.561

> <VdW12>
15.448

> <Bond>
0.433

> <Angle>
5.121

> <Pdih>
11.402

> <Idih>
0.000

> <Tether>
0.000

$$$$
VeraChem MOL file


 25 25  0  0  0  0  0  0  0  0999 V2000     
   21.7987   19.1272   21.6324 C   0  0  0  0  0  0  0  0  0  0  0  0
   22.7289   19.2057   21.0531 H   0  0  0  0  0  0  0  0  0  0  0  0
   21.3487   18.1861   21.2966 H   0  0  0  0  0  0  0  0  0  0  0  0
   20.8944   20.3294   21.2554 C   0  0  0  0  0  0  0  0  0  0  0  0
   21.0214   21.1577   21.9641 H   0  0  0  0  0  0  0  0  0  0  0  0
   21.2500   20.7205   20.2923 H   0  0  0  0  0  0  0  0  0  0  0  0
   19.3927   19.9835   21.0763 C   0  0  0  0  0  0  0  0  0  0  0  0
   19.2892   19.1859   20.3279 H   0  0  0  0  0  0  0  0  0  0  0  0
   18.8978   20.8620   20.6403 H   0  0  0  0  0  0  0  0  0  0  0  0
   18.6111   19.5889   22.3577 C   0  0  0  0  0  0  0  0  0  0  0  0
   18.6779   20.3872   23.1065 H   0  0  0  0  0  0  0  0  0  0  0  0
   17.5496   19.5433   22.0788 H   0  0  0  0  0  0  0  0  0  0  0  0
   19.0216   18.2227   22.9659 C   0  0  0  0  0  0  0  0  0  0  0  0
   19.5342   17.6299   22.1995 H   0  0  0  0  0  0  0  0  0  0  0  0
   19.9222   18.3163   24.2222 C   0  0  0  0  0  0  0  0  0  0  0  0
   19.2940   18.5831   25.0823 H   0  0  0  0  0  0  0  0  0  0  0  0
   20.3193   17.3161   24.4390 H   0  0  0  0  0  0  0  0  0  0  0  0
   21.0978   19.3262   24.1771 C   0  0  0  0  0  0  0  0  0  0  0  0
   21.5764   19.3152   25.1659 H   0  0  0  0  0  0  0  0  0  0  0  0
   20.7204   20.3491   24.0642 H   0  0  0  0  0  0  0  0  0  0  0  0
   22.2010   19.0405   23.1277 C   0  0  0  0  0  0  0  0  0  0  0  0
   22.6404   18.0527   23.3219 H   0  0  0  0  0  0  0  0  0  0  0  0
   23.0106   19.7633   23.2985 H   0  0  0  0  0  0  0  0  0  0  0  0
   17.8424   17.5194   23.3368 O   0  0  0  0  0  0  0  0  0  0  0  0
   17.3900   18.0713   24.0073 H   0  0  0  0  0  0  0  0  0  0  0  0
  1  2  1  0  0  0  0
  1  3  1  0  0  0  0
  1  4  1  0  0  0  0
  4  5  1  0  0  0  0
  4  6  1  0  0  0  0
  4  7  1  0  0  0  0
  7  8  1  0  0  0  0
  7  9  1  0  0  0  0
  7 10  1  0  0  0  0
 10 11  1  0  0  0  0
 10 12  1  0  0  0  0
 10 13  1  0  0  0  0
 13 14  1  0  0  0  0
 13 15  1  0  0  0  0
 15 16  1  0  0  0  0
 15 17  1  0  0  0  0
 15 18  1  0  0  0  0
 18 19  1  0  0  0  0
 18 20  1  0  0  0  0
  1 21  1  0  0  0  0
 18 21  1  0  0  0  0
 21 22  1  0  0  0  0
 21 23  1  0  0  0  0
 13 24  1  0  0  0  0
 24 25  1  0  0  0  0
M  END
> <VConfSearch Rank>
583

> <Conf_Id>
165

> <Delta U+W>
-1.999

> <U+W>
8.915

> <U>
10.935

> <W>
-2.020

> <W(PB)>
-4.135

> <W(SA)>
2.115

> <Valence>
16.757

> <Coulomb>
-8.731

> <VdW>
2.908

> <VdW6>
-12.597

> <VdW12>
15.506

> <Bond>
0.434

> <Angle>
5.069

> <Pdih>
11.254

> <Idih>
0.000

> <Tether>
0.000

$$$$
VeraChem MOL file


 25 25  0  0  0  0  0  0  0  0999 V2000     
   21.3024   19.0883   21.1193 C   0  0  0  0  0  0  0  0  0  0  0  0
   21.8210   19.0162   20.1534 H   0  0  0  0  0  0  0  0  0  0  0  0
   22.0651   19.4672   21.8088 H   0  0  0  0  0  0  0  0  0  0  0  0
   20.8722   17.6508   21.5117 C   0  0  0  0  0  0  0  0  0  0  0  0
   20.4921   17.1572   20.6068 H   0  0  0  0  0  0  0  0  0  0  0  0
   21.7628   17.0803   21.8080 H   0  0  0  0  0  0  0  0  0  0  0  0
   19.7846   17.5089   22.6060 C   0  0  0  0  0  0  0  0  0  0  0  0
   19.5367   16.4417   22.6847 H   0  0  0  0  0  0  0  0  0  0  0  0
   18.8528   17.9857   22.2810 H   0  0  0  0  0  0  0  0  0  0  0  0
   20.1772   17.9973   24.0243 C   0  0  0  0  0  0  0  0  0  0  0  0
   19.3544   17.7330   24.7023 H   0  0  0  0  0  0  0  0  0  0  0  0
   21.0483   17.4247   24.3679 H   0  0  0  0  0  0  0  0  0  0  0  0
   20.4779   19.5067   24.1941 C   0  0  0  0  0  0  0  0  0  0  0  0
   21.4829   19.7206   23.8118 H   0  0  0  0  0  0  0  0  0  0  0  0
   19.4632   20.4501   23.4981 C   0  0  0  0  0  0  0  0  0  0  0  0
   18.5031   19.9440   23.3420 H   0  0  0  0  0  0  0  0  0  0  0  0
   19.2398   21.2824   24.1792 H   0  0  0  0  0  0  0  0  0  0  0  0
   19.9697   21.0761   22.1712 C   0  0  0  0  0  0  0  0  0  0  0  0
   20.9151   21.6040   22.3568 H   0  0  0  0  0  0  0  0  0  0  0  0
   19.2524   21.8529   21.8732 H   0  0  0  0  0  0  0  0  0  0  0  0
   20.1464   20.1115   20.9691 C   0  0  0  0  0  0  0  0  0  0  0  0
   20.3674   20.7324   20.0901 H   0  0  0  0  0  0  0  0  0  0  0  0
   19.2006   19.6077   20.7319 H   0  0  0  0  0  0  0  0  0  0  0  0
   20.4727   19.7878   25.5893 O   0  0  0  0  0  0  0  0  0  0  0  0
   21.1526   19.2109   25.9960 H   0  0  0  0  0  0  0  0  0  0  0  0
  1  2  1  0  0  0  0
  1  3  1  0  0  0  0
  1  4  1  0  0  0  0
  4  5  1  0  0  0  0
  4  6  1  0  0  0  0
  4  7  1  0  0  0  0
  7  8  1  0  0  0  0
  7  9  1  0  0  0  0
  7 10  1  0  0  0  0
 10 11  1  0  0  0  0
 10 12  1  0  0  0  0
 10 13  1  0  0  0  0
 13 14  1  0  0  0  0
 13 15  1  0  0  0  0
 15 16  1  0  0  0  0
 15 17  1  0  0  0  0
 15 18  1  0  0  0  0
 18 19  1  0  0  0  0
 18 20  1  0  0  0  0
  1 21  1  0  0  0  0
 18 21  1  0  0  0  0
 21 22  1  0  0  0  0
 21 23  1  0  0  0  0
 13 24  1  0  0  0  0
 24 25  1  0  0  0  0
M  END
> <VConfSearch Rank>
584

> <Conf_Id>
133

> <Delta U+W>
-2.139

> <U+W>
8.774

> <U>
10.905

> <W>
-2.131

> <W(PB)>
-4.281

> <W(SA)>
2.150

> <Valence>
16.378

> <Coulomb>
-8.448

> <VdW>
2.976

> <VdW6>
-12.570

> <VdW12>
15.545

> <Bond>
0.439

> <Angle>
5.049

> <Pdih>
10.889

> <Idih>
0.000

> <Tether>
0.000

$$$$
VeraChem MOL file


 25 25  0  0  0  0  0  0  0  0999 V2000     
   18.5049   19.6496   22.5472 C   0  0  0  0  0  0  0  0  0  0  0  0
   17.4385   19.9131   22.5687 H   0  0  0  0  0  0  0  0  0  0  0  0
   18.6697   19.2695   21.5326 H   0  0  0  0  0  0  0  0  0  0  0  0
   18.7449   18.5309   23.5943 C   0  0  0  0  0  0  0  0  0  0  0  0
   19.0791   18.9504   24.5518 H   0  0  0  0  0  0  0  0  0  0  0  0
   17.7729   18.0664   23.8097 H   0  0  0  0  0  0  0  0  0  0  0  0
   19.6951   17.3961   23.1293 C   0  0  0  0  0  0  0  0  0  0  0  0
   19.3126   16.9598   22.1964 H   0  0  0  0  0  0  0  0  0  0  0  0
   19.6426   16.5904   23.8742 H   0  0  0  0  0  0  0  0  0  0  0  0
   21.1899   17.7710   22.9444 C   0  0  0  0  0  0  0  0  0  0  0  0
   21.6011   18.1801   23.8748 H   0  0  0  0  0  0  0  0  0  0  0  0
   21.7365   16.8328   22.7787 H   0  0  0  0  0  0  0  0  0  0  0  0
   21.4733   18.7200   21.7513 C   0  0  0  0  0  0  0  0  0  0  0  0
   20.6282   18.6777   21.0543 H   0  0  0  0  0  0  0  0  0  0  0  0
   21.7359   20.1938   22.1472 C   0  0  0  0  0  0  0  0  0  0  0  0
   22.7581   20.2658   22.5427 H   0  0  0  0  0  0  0  0  0  0  0  0
   21.7186   20.8099   21.2390 H   0  0  0  0  0  0  0  0  0  0  0  0
   20.7862   20.8243   23.1982 C   0  0  0  0  0  0  0  0  0  0  0  0
   21.1600   21.8349   23.4119 H   0  0  0  0  0  0  0  0  0  0  0  0
   20.8652   20.2929   24.1535 H   0  0  0  0  0  0  0  0  0  0  0  0
   19.3009   20.9603   22.7790 C   0  0  0  0  0  0  0  0  0  0  0  0
   19.2332   21.5831   21.8767 H   0  0  0  0  0  0  0  0  0  0  0  0
   18.7887   21.5269   23.5687 H   0  0  0  0  0  0  0  0  0  0  0  0
   22.6287   18.2509   21.0654 O   0  0  0  0  0  0  0  0  0  0  0  0
   22.7574   18.8405   20.2932 H   0  0  0  0  0  0  0  0  0  0  0  0
  1  2  1  0  0  0  0
  1  3  1  0  0  0  0
  1  4  1  0  0  0  0
  4  5  1  0  0  0  0
  4  6  1  0  0  0  0
  4  7  1  0  0  0  0
  7  8  1  0  0  0  0
  7  9  1  0  0  0  0
  7 10  1  0  0  0  0
 10 11  1  0  0  0  0
 10 12  1  0  0  0  0
 10 13  1  0  0  0  0
 13 14  1  0  0  0  0
 13 15  1  0  0  0  0
 15 16  1  0  0  0  0
 15 17  1  0  0  0  0
 15 18  1  0  0  0  0
 18 19  1  0  0  0  0
 18 20  1  0  0  0  0
  1 21  1  0  0  0  0
 18 21  1  0  0  0  0
 21 22  1  0  0  0  0
 21 23  1  0  0  0  0
 13 24  1  0  0  0  0
 24 25  1  0  0  0  0
M  END
> <VConfSearch Rank>
585

> <Conf_Id>
95

> <Delta U+W>
-2.190

> <U+W>
8.723

> <U>
10.905

> <W>
-2.182

> <W(PB)>
-4.296

> <W(SA)>
2.114

> <Valence>
16.377

> <Coulomb>
-8.448

> <VdW>
2.976

> <VdW6>
-12.570

> <VdW12>
15.546

> <Bond>
0.439

> <Angle>
5.049

> <Pdih>
10.889

> <Idih>
0.000

> <Tether>
0.000

$$$$
VeraChem MOL file


 25 25  0  0  0  0  0  0  0  0999 V2000     
   22.0387   19.6791   22.4808 C   0  0  0  0  0  0  0  0  0  0  0  0
   23.0790   20.0320   22.4829 H   0  0  0  0  0  0  0  0  0  0  0  0
   21.8298   19.5109   21.4195 H   0  0  0  0  0  0  0  0  0  0  0  0
   21.1640   20.8375   23.0441 C   0  0  0  0  0  0  0  0  0  0  0  0
   21.7563   21.3510   23.8138 H   0  0  0  0  0  0  0  0  0  0  0  0
   21.0061   21.5823   22.2524 H   0  0  0  0  0  0  0  0  0  0  0  0
   19.7998   20.4790   23.6897 C   0  0  0  0  0  0  0  0  0  0  0  0
   19.3888   21.3977   24.1302 H   0  0  0  0  0  0  0  0  0  0  0  0
   19.9690   19.8331   24.5570 H   0  0  0  0  0  0  0  0  0  0  0  0
   18.7003   19.8838   22.7606 C   0  0  0  0  0  0  0  0  0  0  0  0
   17.9634   19.3531   23.3777 H   0  0  0  0  0  0  0  0  0  0  0  0
   18.1611   20.7313   22.3174 H   0  0  0  0  0  0  0  0  0  0  0  0
   19.1437   18.9620   21.5963 C   0  0  0  0  0  0  0  0  0  0  0  0
   19.8421   19.5229   20.9667 H   0  0  0  0  0  0  0  0  0  0  0  0
   19.7751   17.5934   21.9821 C   0  0  0  0  0  0  0  0  0  0  0  0
   18.9584   16.8736   22.1277 H   0  0  0  0  0  0  0  0  0  0  0  0
   20.3454   17.2223   21.1212 H   0  0  0  0  0  0  0  0  0  0  0  0
   20.6704   17.5213   23.2487 C   0  0  0  0  0  0  0  0  0  0  0  0
   20.9290   16.4663   23.4124 H   0  0  0  0  0  0  0  0  0  0  0  0
   20.0726   17.7775   24.1291 H   0  0  0  0  0  0  0  0  0  0  0  0
   22.0050   18.3226   23.2332 C   0  0  0  0  0  0  0  0  0  0  0  0
   22.7679   17.6813   22.7711 H   0  0  0  0  0  0  0  0  0  0  0  0
   22.3395   18.4754   24.2682 H   0  0  0  0  0  0  0  0  0  0  0  0
   17.9910   18.6886   20.8082 O   0  0  0  0  0  0  0  0  0  0  0  0
   17.6368   19.5538   20.5151 H   0  0  0  0  0  0  0  0  0  0  0  0
  1  2  1  0  0  0  0
  1  3  1  0  0  0  0
  1  4  1  0  0  0  0
  4  5  1  0  0  0  0
  4  6  1  0  0  0  0
  4  7  1  0  0  0  0
  7  8  1  0  0  0  0
  7  9  1  0  0  0  0
  7 10  1  0  0  0  0
 10 11  1  0  0  0  0
 10 12  1  0  0  0  0
 10 13  1  0  0  0  0
 13 14  1  0  0  0  0
 13 15  1  0  0  0  0
 15 16  1  0  0  0  0
 15 17  1  0  0  0  0
 15 18  1  0  0  0  0
 18 19  1  0  0  0  0
 18 20  1  0  0  0  0
  1 21  1  0  0  0  0
 18 21  1  0  0  0  0
 21 22  1  0  0  0  0
 21 23  1  0  0  0  0
 13 24  1  0  0  0  0
 24 25  1  0  0  0  0
M  END
> <VConfSearch Rank>
586

> <Conf_Id>
161

> <Delta U+W>
2.120

> <U+W>
13.033

> <U>
15.076

> <W>
-2.043

> <W(PB)>
-4.186

> <W(SA)>
2.143

> <Valence>
18.884

> <Coulomb>
-8.074

> <VdW>
4.266

> <VdW6>
-13.486

> <VdW12>
17.752

> <Bond>
0.713

> <Angle>
8.955

> <Pdih>
9.215

> <Idih>
0.000

> <Tether>
0.000

$$$$
VeraChem MOL file


 25 25  0  0  0  0  0  0  0  0999 V2000     
   20.1339   19.0667   20.6694 C   0  0  0  0  0  0  0  0  0  0  0  0
   20.0841   18.7324   19.6241 H   0  0  0  0  0  0  0  0  0  0  0  0
   20.1641   20.1621   20.6114 H   0  0  0  0  0  0  0  0  0  0  0  0
   21.4540   18.5332   21.2798 C   0  0  0  0  0  0  0  0  0  0  0  0
   21.3189   17.5173   21.6747 H   0  0  0  0  0  0  0  0  0  0  0  0
   22.1686   18.4301   20.4517 H   0  0  0  0  0  0  0  0  0  0  0  0
   22.1183   19.4624   22.3338 C   0  0  0  0  0  0  0  0  0  0  0  0
   22.0022   20.5195   22.0595 H   0  0  0  0  0  0  0  0  0  0  0  0
   23.1989   19.2685   22.2911 H   0  0  0  0  0  0  0  0  0  0  0  0
   21.6771   19.2220   23.8008 C   0  0  0  0  0  0  0  0  0  0  0  0
   21.4781   18.1552   23.9595 H   0  0  0  0  0  0  0  0  0  0  0  0
   22.5342   19.4492   24.4482 H   0  0  0  0  0  0  0  0  0  0  0  0
   20.4977   20.0878   24.3120 C   0  0  0  0  0  0  0  0  0  0  0  0
   20.8562   21.1226   24.4093 H   0  0  0  0  0  0  0  0  0  0  0  0
   19.2311   20.1179   23.4256 C   0  0  0  0  0  0  0  0  0  0  0  0
   18.4149   20.5672   24.0070 H   0  0  0  0  0  0  0  0  0  0  0  0
   19.3927   20.8166   22.5977 H   0  0  0  0  0  0  0  0  0  0  0  0
   18.7679   18.7330   22.8997 C   0  0  0  0  0  0  0  0  0  0  0  0
   17.7307   18.5627   23.2191 H   0  0  0  0  0  0  0  0  0  0  0  0
   19.3414   17.9208   23.3607 H   0  0  0  0  0  0  0  0  0  0  0  0
   18.8281   18.5916   21.3599 C   0  0  0  0  0  0  0  0  0  0  0  0
   17.9879   19.1472   20.9215 H   0  0  0  0  0  0  0  0  0  0  0  0
   18.6547   17.5373   21.1043 H   0  0  0  0  0  0  0  0  0  0  0  0
   20.1277   19.6093   25.5975 O   0  0  0  0  0  0  0  0  0  0  0  0
   19.6891   18.7475   25.4465 H   0  0  0  0  0  0  0  0  0  0  0  0
  1  2  1  0  0  0  0
  1  3  1  0  0  0  0
  1  4  1  0  0  0  0
  4  5  1  0  0  0  0
  4  6  1  0  0  0  0
  4  7  1  0  0  0  0
  7  8  1  0  0  0  0
  7  9  1  0  0  0  0
  7 10  1  0  0  0  0
 10 11  1  0  0  0  0
 10 12  1  0  0  0  0
 10 13  1  0  0  0  0
 13 14  1  0  0  0  0
 13 15  1  0  0  0  0
 15 16  1  0  0  0  0
 15 17  1  0  0  0  0
 15 18  1  0  0  0  0
 18 19  1  0  0  0  0
 18 20  1  0  0  0  0
  1 21  1  0  0  0  0
 18 21  1  0  0  0  0
 21 22  1  0  0  0  0
 21 23  1  0  0  0  0
 13 24  1  0  0  0  0
 24 25  1  0  0  0  0
M  END
> <VConfSearch Rank>
587

> <Conf_Id>
164

> <Delta U+W>
0.008

> <U+W>
10.922

> <U>
12.433

> <W>
-1.511

> <W(PB)>
-3.669

> <W(SA)>
2.157

> <Valence>
19.007

> <Coulomb>
-9.373

> <VdW>
2.799

> <VdW6>
-12.597

> <VdW12>
15.396

> <Bond>
0.425

> <Angle>
4.784

> <Pdih>
13.799

> <Idih>
0.000

> <Tether>
0.000

$$$$
VeraChem MOL file


 25 25  0  0  0  0  0  0  0  0999 V2000     
   20.1548   19.8015   24.3501 C   0  0  0  0  0  0  0  0  0  0  0  0
   19.1692   19.9650   23.8999 H   0  0  0  0  0  0  0  0  0  0  0  0
   20.0498   20.1603   25.3830 H   0  0  0  0  0  0  0  0  0  0  0  0
   21.2187   20.6914   23.6602 C   0  0  0  0  0  0  0  0  0  0  0  0
   20.9102   21.7371   23.7951 H   0  0  0  0  0  0  0  0  0  0  0  0
   22.1745   20.5929   24.1923 H   0  0  0  0  0  0  0  0  0  0  0  0
   21.4596   20.4602   22.1465 C   0  0  0  0  0  0  0  0  0  0  0  0
   22.1529   19.6260   21.9899 H   0  0  0  0  0  0  0  0  0  0  0  0
   21.9976   21.3394   21.7661 H   0  0  0  0  0  0  0  0  0  0  0  0
   20.1774   20.2700   21.2928 C   0  0  0  0  0  0  0  0  0  0  0  0
   19.3113   20.7385   21.7755 H   0  0  0  0  0  0  0  0  0  0  0  0
   20.3236   20.8253   20.3566 H   0  0  0  0  0  0  0  0  0  0  0  0
   19.8646   18.8031   20.9044 C   0  0  0  0  0  0  0  0  0  0  0  0
   20.7601   18.3758   20.4310 H   0  0  0  0  0  0  0  0  0  0  0  0
   19.4298   17.8599   22.0541 C   0  0  0  0  0  0  0  0  0  0  0  0
   18.5390   18.2492   22.5619 H   0  0  0  0  0  0  0  0  0  0  0  0
   19.1110   16.9163   21.5913 H   0  0  0  0  0  0  0  0  0  0  0  0
   20.5468   17.5178   23.0759 C   0  0  0  0  0  0  0  0  0  0  0  0
   21.5356   17.6362   22.6185 H   0  0  0  0  0  0  0  0  0  0  0  0
   20.4798   16.4468   23.3116 H   0  0  0  0  0  0  0  0  0  0  0  0
   20.4728   18.2869   24.4197 C   0  0  0  0  0  0  0  0  0  0  0  0
   21.4131   18.1384   24.9676 H   0  0  0  0  0  0  0  0  0  0  0  0
   19.6936   17.8153   25.0339 H   0  0  0  0  0  0  0  0  0  0  0  0
   18.8159   18.8256   19.9458 O   0  0  0  0  0  0  0  0  0  0  0  0
   18.0369   19.2101   20.3976 H   0  0  0  0  0  0  0  0  0  0  0  0
  1  2  1  0  0  0  0
  1  3  1  0  0  0  0
  1  4  1  0  0  0  0
  4  5  1  0  0  0  0
  4  6  1  0  0  0  0
  4  7  1  0  0  0  0
  7  8  1  0  0  0  0
  7  9  1  0  0  0  0
  7 10  1  0  0  0  0
 10 11  1  0  0  0  0
 10 12  1  0  0  0  0
 10 13  1  0  0  0  0
 13 14  1  0  0  0  0
 13 15  1  0  0  0  0
 15 16  1  0  0  0  0
 15 17  1  0  0  0  0
 15 18  1  0  0  0  0
 18 19  1  0  0  0  0
 18 20  1  0  0  0  0
  1 21  1  0  0  0  0
 18 21  1  0  0  0  0
 21 22  1  0  0  0  0
 21 23  1  0  0  0  0
 13 24  1  0  0  0  0
 24 25  1  0  0  0  0
M  END
> <VConfSearch Rank>
588

> <Conf_Id>
15

> <Delta U+W>
-1.271

> <U+W>
9.643

> <U>
11.413

> <W>
-1.770

> <W(PB)>
-3.908

> <W(SA)>
2.138

> <Valence>
17.496

> <Coulomb>
-8.736

> <VdW>
2.653

> <VdW6>
-12.485

> <VdW12>
15.138

> <Bond>
0.414

> <Angle>
5.295

> <Pdih>
11.787

> <Idih>
0.000

> <Tether>
0.000

$$$$
VeraChem MOL file


 25 25  0  0  0  0  0  0  0  0999 V2000     
   21.8934   18.2021   22.1754 C   0  0  0  0  0  0  0  0  0  0  0  0
   22.6505   17.4804   21.8394 H   0  0  0  0  0  0  0  0  0  0  0  0
   22.3702   18.7429   23.0026 H   0  0  0  0  0  0  0  0  0  0  0  0
   21.6178   19.1572   20.9843 C   0  0  0  0  0  0  0  0  0  0  0  0
   22.5269   19.7464   20.8024 H   0  0  0  0  0  0  0  0  0  0  0  0
   21.4639   18.5580   20.0765 H   0  0  0  0  0  0  0  0  0  0  0  0
   20.4207   20.1266   21.1344 C   0  0  0  0  0  0  0  0  0  0  0  0
   19.4858   19.5877   20.9412 H   0  0  0  0  0  0  0  0  0  0  0  0
   20.4845   20.8739   20.3317 H   0  0  0  0  0  0  0  0  0  0  0  0
   20.3687   20.8635   22.4981 C   0  0  0  0  0  0  0  0  0  0  0  0
   21.2861   20.6904   23.0714 H   0  0  0  0  0  0  0  0  0  0  0  0
   20.3546   21.9446   22.3080 H   0  0  0  0  0  0  0  0  0  0  0  0
   19.1318   20.5263   23.3623 C   0  0  0  0  0  0  0  0  0  0  0  0
   18.2639   21.0273   22.9100 H   0  0  0  0  0  0  0  0  0  0  0  0
   18.7709   19.0245   23.4998 C   0  0  0  0  0  0  0  0  0  0  0  0
   17.9902   18.9517   24.2690 H   0  0  0  0  0  0  0  0  0  0  0  0
   18.2850   18.6699   22.5829 H   0  0  0  0  0  0  0  0  0  0  0  0
   19.9206   18.0578   23.8908 C   0  0  0  0  0  0  0  0  0  0  0  0
   19.4640   17.2385   24.4631 H   0  0  0  0  0  0  0  0  0  0  0  0
   20.6236   18.5371   24.5842 H   0  0  0  0  0  0  0  0  0  0  0  0
   20.6723   17.4055   22.6978 C   0  0  0  0  0  0  0  0  0  0  0  0
   19.9830   17.1648   21.8774 H   0  0  0  0  0  0  0  0  0  0  0  0
   21.0515   16.4370   23.0521 H   0  0  0  0  0  0  0  0  0  0  0  0
   19.3400   21.0604   24.6622 O   0  0  0  0  0  0  0  0  0  0  0  0
   20.0547   20.5242   25.0606 H   0  0  0  0  0  0  0  0  0  0  0  0
  1  2  1  0  0  0  0
  1  3  1  0  0  0  0
  1  4  1  0  0  0  0
  4  5  1  0  0  0  0
  4  6  1  0  0  0  0
  4  7  1  0  0  0  0
  7  8  1  0  0  0  0
  7  9  1  0  0  0  0
  7 10  1  0  0  0  0
 10 11  1  0  0  0  0
 10 12  1  0  0  0  0
 10 13  1  0  0  0  0
 13 14  1  0  0  0  0
 13 15  1  0  0  0  0
 15 16  1  0  0  0  0
 15 17  1  0  0  0  0
 15 18  1  0  0  0  0
 18 19  1  0  0  0  0
 18 20  1  0  0  0  0
  1 21  1  0  0  0  0
 18 21  1  0  0  0  0
 21 22  1  0  0  0  0
 21 23  1  0  0  0  0
 13 24  1  0  0  0  0
 24 25  1  0  0  0  0
M  END
> <VConfSearch Rank>
589

> <Conf_Id>
115

> <Delta U+W>
0.038

> <U+W>
10.952

> <U>
12.526

> <W>
-1.575

> <W(PB)>
-3.698

> <W(SA)>
2.123

> <Valence>
19.016

> <Coulomb>
-9.226

> <VdW>
2.737

> <VdW6>
-12.612

> <VdW12>
15.349

> <Bond>
0.421

> <Angle>
4.883

> <Pdih>
13.711

> <Idih>
0.000

> <Tether>
0.000

$$$$
VeraChem MOL file


 25 25  0  0  0  0  0  0  0  0999 V2000     
   22.1548   19.1126   21.5449 C   0  0  0  0  0  0  0  0  0  0  0  0
   23.1296   19.4845   21.2007 H   0  0  0  0  0  0  0  0  0  0  0  0
   22.1272   18.0522   21.2596 H   0  0  0  0  0  0  0  0  0  0  0  0
   21.0653   19.8975   20.7778 C   0  0  0  0  0  0  0  0  0  0  0  0
   21.1711   20.9740   20.9688 H   0  0  0  0  0  0  0  0  0  0  0  0
   21.2614   19.7677   19.7046 H   0  0  0  0  0  0  0  0  0  0  0  0
   19.6124   19.4462   21.0541 C   0  0  0  0  0  0  0  0  0  0  0  0
   19.5547   18.3502   21.0944 H   0  0  0  0  0  0  0  0  0  0  0  0
   19.0068   19.7380   20.1851 H   0  0  0  0  0  0  0  0  0  0  0  0
   18.9696   20.0952   22.3093 C   0  0  0  0  0  0  0  0  0  0  0  0
   19.5621   20.9471   22.6654 H   0  0  0  0  0  0  0  0  0  0  0  0
   18.0045   20.5192   22.0005 H   0  0  0  0  0  0  0  0  0  0  0  0
   18.7054   19.1126   23.4723 C   0  0  0  0  0  0  0  0  0  0  0  0
   18.4103   18.1390   23.0555 H   0  0  0  0  0  0  0  0  0  0  0  0
   19.9024   18.9076   24.4271 C   0  0  0  0  0  0  0  0  0  0  0  0
   20.1715   19.8612   24.9004 H   0  0  0  0  0  0  0  0  0  0  0  0
   19.5671   18.2536   25.2427 H   0  0  0  0  0  0  0  0  0  0  0  0
   21.1549   18.2563   23.7917 C   0  0  0  0  0  0  0  0  0  0  0  0
   20.8619   17.4377   23.1208 H   0  0  0  0  0  0  0  0  0  0  0  0
   21.7217   17.7785   24.6027 H   0  0  0  0  0  0  0  0  0  0  0  0
   22.1096   19.2536   23.0846 C   0  0  0  0  0  0  0  0  0  0  0  0
   23.1238   19.0594   23.4599 H   0  0  0  0  0  0  0  0  0  0  0  0
   21.8892   20.2914   23.3680 H   0  0  0  0  0  0  0  0  0  0  0  0
   17.6259   19.6244   24.2444 O   0  0  0  0  0  0  0  0  0  0  0  0
   17.4385   18.9630   24.9428 H   0  0  0  0  0  0  0  0  0  0  0  0
  1  2  1  0  0  0  0
  1  3  1  0  0  0  0
  1  4  1  0  0  0  0
  4  5  1  0  0  0  0
  4  6  1  0  0  0  0
  4  7  1  0  0  0  0
  7  8  1  0  0  0  0
  7  9  1  0  0  0  0
  7 10  1  0  0  0  0
 10 11  1  0  0  0  0
 10 12  1  0  0  0  0
 10 13  1  0  0  0  0
 13 14  1  0  0  0  0
 13 15  1  0  0  0  0
 15 16  1  0  0  0  0
 15 17  1  0  0  0  0
 15 18  1  0  0  0  0
 18 19  1  0  0  0  0
 18 20  1  0  0  0  0
  1 21  1  0  0  0  0
 18 21  1  0  0  0  0
 21 22  1  0  0  0  0
 21 23  1  0  0  0  0
 13 24  1  0  0  0  0
 24 25  1  0  0  0  0
M  END
> <VConfSearch Rank>
590

> <Conf_Id>
30

> <Delta U+W>
0.000

> <U+W>
10.913

> <U>
13.140

> <W>
-2.227

> <W(PB)>
-4.367

> <W(SA)>
2.140

> <Valence>
19.155

> <Coulomb>
-8.157

> <VdW>
2.142

> <VdW6>
-11.576

> <VdW12>
13.718

> <Bond>
0.294

> <Angle>
3.547

> <Pdih>
15.314

> <Idih>
0.000

> <Tether>
0.000

$$$$
VeraChem MOL file


 25 25  0  0  0  0  0  0  0  0999 V2000     
   20.1942   18.4115   24.6192 C   0  0  0  0  0  0  0  0  0  0  0  0
   20.7464   18.6097   25.5480 H   0  0  0  0  0  0  0  0  0  0  0  0
   19.5261   17.5693   24.8453 H   0  0  0  0  0  0  0  0  0  0  0  0
   21.2024   17.9534   23.5367 C   0  0  0  0  0  0  0  0  0  0  0  0
   21.8935   17.2361   24.0000 H   0  0  0  0  0  0  0  0  0  0  0  0
   20.6786   17.3752   22.7668 H   0  0  0  0  0  0  0  0  0  0  0  0
   22.0306   19.1014   22.9058 C   0  0  0  0  0  0  0  0  0  0  0  0
   23.0984   18.8729   23.0250 H   0  0  0  0  0  0  0  0  0  0  0  0
   21.8827   20.0399   23.4527 H   0  0  0  0  0  0  0  0  0  0  0  0
   21.7531   19.3262   21.3978 C   0  0  0  0  0  0  0  0  0  0  0  0
   22.2348   20.2647   21.0928 H   0  0  0  0  0  0  0  0  0  0  0  0
   22.2548   18.5317   20.8302 H   0  0  0  0  0  0  0  0  0  0  0  0
   20.2685   19.3535   20.9559 C   0  0  0  0  0  0  0  0  0  0  0  0
   19.8533   18.3389   21.0207 H   0  0  0  0  0  0  0  0  0  0  0  0
   19.3597   20.3125   21.7632 C   0  0  0  0  0  0  0  0  0  0  0  0
   19.9343   21.1809   22.1100 H   0  0  0  0  0  0  0  0  0  0  0  0
   18.6019   20.7199   21.0808 H   0  0  0  0  0  0  0  0  0  0  0  0
   18.5906   19.6503   22.9413 C   0  0  0  0  0  0  0  0  0  0  0  0
   18.2673   18.6328   22.6834 H   0  0  0  0  0  0  0  0  0  0  0  0
   17.6639   20.2241   23.0796 H   0  0  0  0  0  0  0  0  0  0  0  0
   19.3337   19.6630   24.3001 C   0  0  0  0  0  0  0  0  0  0  0  0
   18.5803   19.7438   25.0957 H   0  0  0  0  0  0  0  0  0  0  0  0
   19.9337   20.5774   24.3907 H   0  0  0  0  0  0  0  0  0  0  0  0
   20.2439   19.7541   19.5909 O   0  0  0  0  0  0  0  0  0  0  0  0
   19.3117   19.6921   19.2952 H   0  0  0  0  0  0  0  0  0  0  0  0
  1  2  1  0  0  0  0
  1  3  1  0  0  0  0
  1  4  1  0  0  0  0
  4  5  1  0  0  0  0
  4  6  1  0  0  0  0
  4  7  1  0  0  0  0
  7  8  1  0  0  0  0
  7  9  1  0  0  0  0
  7 10  1  0  0  0  0
 10 11  1  0  0  0  0
 10 12  1  0  0  0  0
 10 13  1  0  0  0  0
 13 14  1  0  0  0  0
 13 15  1  0  0  0  0
 15 16  1  0  0  0  0
 15 17  1  0  0  0  0
 15 18  1  0  0  0  0
 18 19  1  0  0  0  0
 18 20  1  0  0  0  0
  1 21  1  0  0  0  0
 18 21  1  0  0  0  0
 21 22  1  0  0  0  0
 21 23  1  0  0  0  0
 13 24  1  0  0  0  0
 24 25  1  0  0  0  0
M  END
> <VConfSearch Rank>
591

> <Conf_Id>
162

> <Delta U+W>
0.219

> <U+W>
11.132

> <U>
13.296

> <W>
-2.164

> <W(PB)>
-4.311

> <W(SA)>
2.148

> <Valence>
18.607

> <Coulomb>
-8.339

> <VdW>
3.028

> <VdW6>
-12.271

> <VdW12>
15.299

> <Bond>
0.423

> <Angle>
4.488

> <Pdih>
13.696

> <Idih>
0.000

> <Tether>
0.000

$$$$
VeraChem MOL file


 25 25  0  0  0  0  0  0  0  0999 V2000     
   21.9256   19.7310   21.5368 C   0  0  0  0  0  0  0  0  0  0  0  0
   21.6376   18.9152   20.8617 H   0  0  0  0  0  0  0  0  0  0  0  0
   22.7954   20.1986   21.0553 H   0  0  0  0  0  0  0  0  0  0  0  0
   20.7928   20.7854   21.6051 C   0  0  0  0  0  0  0  0  0  0  0  0
   20.8886   21.4025   22.5085 H   0  0  0  0  0  0  0  0  0  0  0  0
   20.9487   21.4751   20.7642 H   0  0  0  0  0  0  0  0  0  0  0  0
   19.3524   20.2195   21.4617 C   0  0  0  0  0  0  0  0  0  0  0  0
   19.3212   19.3915   20.7409 H   0  0  0  0  0  0  0  0  0  0  0  0
   18.7416   21.0162   21.0153 H   0  0  0  0  0  0  0  0  0  0  0  0
   18.6636   19.8189   22.7923 C   0  0  0  0  0  0  0  0  0  0  0  0
   18.9875   20.4892   23.5980 H   0  0  0  0  0  0  0  0  0  0  0  0
   17.5877   20.0078   22.6830 H   0  0  0  0  0  0  0  0  0  0  0  0
   18.8097   18.3378   23.2240 C   0  0  0  0  0  0  0  0  0  0  0  0
   18.2070   17.7261   22.5373 H   0  0  0  0  0  0  0  0  0  0  0  0
   20.2451   17.7601   23.2151 C   0  0  0  0  0  0  0  0  0  0  0  0
   20.2358   16.7931   23.7346 H   0  0  0  0  0  0  0  0  0  0  0  0
   20.5225   17.5131   22.1848 H   0  0  0  0  0  0  0  0  0  0  0  0
   21.3158   18.6695   23.8737 C   0  0  0  0  0  0  0  0  0  0  0  0
   21.8046   18.1105   24.6830 H   0  0  0  0  0  0  0  0  0  0  0  0
   20.8484   19.5280   24.3705 H   0  0  0  0  0  0  0  0  0  0  0  0
   22.4102   19.1680   22.8993 C   0  0  0  0  0  0  0  0  0  0  0  0
   23.1064   18.3421   22.6993 H   0  0  0  0  0  0  0  0  0  0  0  0
   23.0012   19.9391   23.4120 H   0  0  0  0  0  0  0  0  0  0  0  0
   18.2796   18.2140   24.5385 O   0  0  0  0  0  0  0  0  0  0  0  0
   18.3819   17.2748   24.7962 H   0  0  0  0  0  0  0  0  0  0  0  0
  1  2  1  0  0  0  0
  1  3  1  0  0  0  0
  1  4  1  0  0  0  0
  4  5  1  0  0  0  0
  4  6  1  0  0  0  0
  4  7  1  0  0  0  0
  7  8  1  0  0  0  0
  7  9  1  0  0  0  0
  7 10  1  0  0  0  0
 10 11  1  0  0  0  0
 10 12  1  0  0  0  0
 10 13  1  0  0  0  0
 13 14  1  0  0  0  0
 13 15  1  0  0  0  0
 15 16  1  0  0  0  0
 15 17  1  0  0  0  0
 15 18  1  0  0  0  0
 18 19  1  0  0  0  0
 18 20  1  0  0  0  0
  1 21  1  0  0  0  0
 18 21  1  0  0  0  0
 21 22  1  0  0  0  0
 21 23  1  0  0  0  0
 13 24  1  0  0  0  0
 24 25  1  0  0  0  0
M  END
> <VConfSearch Rank>
592

> <Conf_Id>
155

> <Delta U+W>
0.339

> <U+W>
11.252

> <U>
13.420

> <W>
-2.167

> <W(PB)>
-4.325

> <W(SA)>
2.157

> <Valence>
18.609

> <Coulomb>
-8.052

> <VdW>
2.863

> <VdW6>
-12.524

> <VdW12>
15.387

> <Bond>
0.430

> <Angle>
4.724

> <Pdih>
13.455

> <Idih>
0.000

> <Tether>
0.000

$$$$
VeraChem MOL file


 25 25  0  0  0  0  0  0  0  0999 V2000     
   18.6592   18.9191   21.6393 C   0  0  0  0  0  0  0  0  0  0  0  0
   18.7645   18.2379   20.7842 H   0  0  0  0  0  0  0  0  0  0  0  0
   17.6004   19.2116   21.6512 H   0  0  0  0  0  0  0  0  0  0  0  0
   18.9255   18.1365   22.9520 C   0  0  0  0  0  0  0  0  0  0  0  0
   18.7071   18.7821   23.8085 H   0  0  0  0  0  0  0  0  0  0  0  0
   18.1667   17.3456   23.0266 H   0  0  0  0  0  0  0  0  0  0  0  0
   20.3149   17.4534   23.1137 C   0  0  0  0  0  0  0  0  0  0  0  0
   20.2515   16.4632   22.6425 H   0  0  0  0  0  0  0  0  0  0  0  0
   20.4947   17.2602   24.1801 H   0  0  0  0  0  0  0  0  0  0  0  0
   21.5562   18.1648   22.5096 C   0  0  0  0  0  0  0  0  0  0  0  0
   22.4050   17.4740   22.5970 H   0  0  0  0  0  0  0  0  0  0  0  0
   21.4245   18.2607   21.4283 H   0  0  0  0  0  0  0  0  0  0  0  0
   21.9871   19.5289   23.1244 C   0  0  0  0  0  0  0  0  0  0  0  0
   22.5655   20.0716   22.3630 H   0  0  0  0  0  0  0  0  0  0  0  0
   20.8702   20.4729   23.6361 C   0  0  0  0  0  0  0  0  0  0  0  0
   20.3215   19.9741   24.4402 H   0  0  0  0  0  0  0  0  0  0  0  0
   21.3578   21.3175   24.1407 H   0  0  0  0  0  0  0  0  0  0  0  0
   19.8890   21.0767   22.5869 C   0  0  0  0  0  0  0  0  0  0  0  0
   20.3524   21.9907   22.1912 H   0  0  0  0  0  0  0  0  0  0  0  0
   18.9786   21.4101   23.1029 H   0  0  0  0  0  0  0  0  0  0  0  0
   19.4934   20.2050   21.3661 C   0  0  0  0  0  0  0  0  0  0  0  0
   20.3884   19.9716   20.7809 H   0  0  0  0  0  0  0  0  0  0  0  0
   18.9013   20.8345   20.6878 H   0  0  0  0  0  0  0  0  0  0  0  0
   22.8398   19.2582   24.2316 O   0  0  0  0  0  0  0  0  0  0  0  0
   23.5735   18.7038   23.8948 H   0  0  0  0  0  0  0  0  0  0  0  0
  1  2  1  0  0  0  0
  1  3  1  0  0  0  0
  1  4  1  0  0  0  0
  4  5  1  0  0  0  0
  4  6  1  0  0  0  0
  4  7  1  0  0  0  0
  7  8  1  0  0  0  0
  7  9  1  0  0  0  0
  7 10  1  0  0  0  0
 10 11  1  0  0  0  0
 10 12  1  0  0  0  0
 10 13  1  0  0  0  0
 13 14  1  0  0  0  0
 13 15  1  0  0  0  0
 15 16  1  0  0  0  0
 15 17  1  0  0  0  0
 15 18  1  0  0  0  0
 18 19  1  0  0  0  0
 18 20  1  0  0  0  0
  1 21  1  0  0  0  0
 18 21  1  0  0  0  0
 21 22  1  0  0  0  0
 21 23  1  0  0  0  0
 13 24  1  0  0  0  0
 24 25  1  0  0  0  0
M  END
> <VConfSearch Rank>
593

> <Conf_Id>
146

> <Delta U+W>
2.553

> <U+W>
13.466

> <U>
15.643

> <W>
-2.176

> <W(PB)>
-4.307

> <W(SA)>
2.131

> <Valence>
18.916

> <Coulomb>
-7.506

> <VdW>
4.232

> <VdW6>
-13.632

> <VdW12>
17.864

> <Bond>
0.735

> <Angle>
9.140

> <Pdih>
9.042

> <Idih>
0.000

> <Tether>
0.000

$$$$
VeraChem MOL file


 25 25  0  0  0  0  0  0  0  0999 V2000     
   21.3793   18.7141   24.3590 C   0  0  0  0  0  0  0  0  0  0  0  0
   21.5349   17.6676   24.6542 H   0  0  0  0  0  0  0  0  0  0  0  0
   21.8836   19.3166   25.1269 H   0  0  0  0  0  0  0  0  0  0  0  0
   19.8677   19.0460   24.4298 C   0  0  0  0  0  0  0  0  0  0  0  0
   19.5498   18.8967   25.4707 H   0  0  0  0  0  0  0  0  0  0  0  0
   19.7025   20.1130   24.2417 H   0  0  0  0  0  0  0  0  0  0  0  0
   18.9378   18.1861   23.5376 C   0  0  0  0  0  0  0  0  0  0  0  0
   17.9016   18.4564   23.7829 H   0  0  0  0  0  0  0  0  0  0  0  0
   19.0435   17.1288   23.8157 H   0  0  0  0  0  0  0  0  0  0  0  0
   19.1127   18.3229   22.0025 C   0  0  0  0  0  0  0  0  0  0  0  0
   19.9457   17.7021   21.6578 H   0  0  0  0  0  0  0  0  0  0  0  0
   18.2253   17.8748   21.5354 H   0  0  0  0  0  0  0  0  0  0  0  0
   19.2780   19.7754   21.4857 C   0  0  0  0  0  0  0  0  0  0  0  0
   18.8934   20.4792   22.2360 H   0  0  0  0  0  0  0  0  0  0  0  0
   20.7357   20.1572   21.1235 C   0  0  0  0  0  0  0  0  0  0  0  0
   21.1286   19.4325   20.3982 H   0  0  0  0  0  0  0  0  0  0  0  0
   20.7130   21.1206   20.5975 H   0  0  0  0  0  0  0  0  0  0  0  0
   21.7376   20.2986   22.3016 C   0  0  0  0  0  0  0  0  0  0  0  0
   21.3874   21.0476   23.0234 H   0  0  0  0  0  0  0  0  0  0  0  0
   22.6654   20.7143   21.8850 H   0  0  0  0  0  0  0  0  0  0  0  0
   22.1010   18.9681   23.0103 C   0  0  0  0  0  0  0  0  0  0  0  0
   23.1797   18.9756   23.2184 H   0  0  0  0  0  0  0  0  0  0  0  0
   21.9608   18.1195   22.3313 H   0  0  0  0  0  0  0  0  0  0  0  0
   18.4979   19.9154   20.3037 O   0  0  0  0  0  0  0  0  0  0  0  0
   18.5685   20.8528   20.0270 H   0  0  0  0  0  0  0  0  0  0  0  0
  1  2  1  0  0  0  0
  1  3  1  0  0  0  0
  1  4  1  0  0  0  0
  4  5  1  0  0  0  0
  4  6  1  0  0  0  0
  4  7  1  0  0  0  0
  7  8  1  0  0  0  0
  7  9  1  0  0  0  0
  7 10  1  0  0  0  0
 10 11  1  0  0  0  0
 10 12  1  0  0  0  0
 10 13  1  0  0  0  0
 13 14  1  0  0  0  0
 13 15  1  0  0  0  0
 15 16  1  0  0  0  0
 15 17  1  0  0  0  0
 15 18  1  0  0  0  0
 18 19  1  0  0  0  0
 18 20  1  0  0  0  0
  1 21  1  0  0  0  0
 18 21  1  0  0  0  0
 21 22  1  0  0  0  0
 21 23  1  0  0  0  0
 13 24  1  0  0  0  0
 24 25  1  0  0  0  0
M  END
> <VConfSearch Rank>
594

> <Conf_Id>
62

> <Delta U+W>
-1.779

> <U+W>
9.134

> <U>
11.364

> <W>
-2.230

> <W(PB)>
-4.359

> <W(SA)>
2.129

> <Valence>
16.582

> <Coulomb>
-8.150

> <VdW>
2.933

> <VdW6>
-12.531

> <VdW12>
15.464

> <Bond>
0.439

> <Angle>
5.099

> <Pdih>
11.044

> <Idih>
0.000

> <Tether>
0.000

$$$$
VeraChem MOL file


 25 25  0  0  0  0  0  0  0  0999 V2000     
   20.1385   20.8177   21.7705 C   0  0  0  0  0  0  0  0  0  0  0  0
   19.3986   20.8521   22.5783 H   0  0  0  0  0  0  0  0  0  0  0  0
   19.9970   21.7609   21.2255 H   0  0  0  0  0  0  0  0  0  0  0  0
   19.8125   19.6652   20.7881 C   0  0  0  0  0  0  0  0  0  0  0  0
   18.8118   19.8566   20.3771 H   0  0  0  0  0  0  0  0  0  0  0  0
   20.4992   19.7130   19.9321 H   0  0  0  0  0  0  0  0  0  0  0  0
   19.8219   18.2248   21.3607 C   0  0  0  0  0  0  0  0  0  0  0  0
   20.8429   17.8274   21.3858 H   0  0  0  0  0  0  0  0  0  0  0  0
   19.2964   17.5859   20.6377 H   0  0  0  0  0  0  0  0  0  0  0  0
   19.1376   18.0565   22.7437 C   0  0  0  0  0  0  0  0  0  0  0  0
   18.4007   18.8500   22.9185 H   0  0  0  0  0  0  0  0  0  0  0  0
   18.5569   17.1255   22.7068 H   0  0  0  0  0  0  0  0  0  0  0  0
   20.1112   17.9457   23.9442 C   0  0  0  0  0  0  0  0  0  0  0  0
   20.8361   17.1479   23.7276 H   0  0  0  0  0  0  0  0  0  0  0  0
   20.9011   19.2270   24.3108 C   0  0  0  0  0  0  0  0  0  0  0  0
   20.2137   20.0524   24.5323 H   0  0  0  0  0  0  0  0  0  0  0  0
   21.4204   19.0228   25.2565 H   0  0  0  0  0  0  0  0  0  0  0  0
   21.9756   19.6543   23.2752 C   0  0  0  0  0  0  0  0  0  0  0  0
   22.2999   18.7930   22.6803 H   0  0  0  0  0  0  0  0  0  0  0  0
   22.8759   19.9641   23.8233 H   0  0  0  0  0  0  0  0  0  0  0  0
   21.5741   20.8334   22.3523 C   0  0  0  0  0  0  0  0  0  0  0  0
   22.2985   20.9050   21.5297 H   0  0  0  0  0  0  0  0  0  0  0  0
   21.6854   21.7626   22.9277 H   0  0  0  0  0  0  0  0  0  0  0  0
   19.3487   17.5724   25.0851 O   0  0  0  0  0  0  0  0  0  0  0  0
   18.9073   16.7255   24.8659 H   0  0  0  0  0  0  0  0  0  0  0  0
  1  2  1  0  0  0  0
  1  3  1  0  0  0  0
  1  4  1  0  0  0  0
  4  5  1  0  0  0  0
  4  6  1  0  0  0  0
  4  7  1  0  0  0  0
  7  8  1  0  0  0  0
  7  9  1  0  0  0  0
  7 10  1  0  0  0  0
 10 11  1  0  0  0  0
 10 12  1  0  0  0  0
 10 13  1  0  0  0  0
 13 14  1  0  0  0  0
 13 15  1  0  0  0  0
 15 16  1  0  0  0  0
 15 17  1  0  0  0  0
 15 18  1  0  0  0  0
 18 19  1  0  0  0  0
 18 20  1  0  0  0  0
  1 21  1  0  0  0  0
 18 21  1  0  0  0  0
 21 22  1  0  0  0  0
 21 23  1  0  0  0  0
 13 24  1  0  0  0  0
 24 25  1  0  0  0  0
M  END
> <VConfSearch Rank>
595

> <Conf_Id>
121

> <Delta U+W>
-1.283

> <U+W>
9.630

> <U>
11.876

> <W>
-2.246

> <W(PB)>
-4.376

> <W(SA)>
2.130

> <Valence>
17.153

> <Coulomb>
-7.966

> <VdW>
2.689

> <VdW6>
-12.458

> <VdW12>
15.147

> <Bond>
0.421

> <Angle>
5.258

> <Pdih>
11.475

> <Idih>
0.000

> <Tether>
0.000

$$$$
VeraChem MOL file


 25 25  0  0  0  0  0  0  0  0999 V2000     
   22.0968   19.8578   22.8977 C   0  0  0  0  0  0  0  0  0  0  0  0
   22.1789   19.0699   22.1403 H   0  0  0  0  0  0  0  0  0  0  0  0
   23.1231   20.2287   23.0232 H   0  0  0  0  0  0  0  0  0  0  0  0
   21.6551   19.2574   24.2557 C   0  0  0  0  0  0  0  0  0  0  0  0
   22.4167   18.5241   24.5540 H   0  0  0  0  0  0  0  0  0  0  0  0
   21.6804   20.0413   25.0246 H   0  0  0  0  0  0  0  0  0  0  0  0
   20.2753   18.5523   24.3013 C   0  0  0  0  0  0  0  0  0  0  0  0
   19.4729   19.2851   24.4423 H   0  0  0  0  0  0  0  0  0  0  0  0
   20.2535   17.9421   25.2146 H   0  0  0  0  0  0  0  0  0  0  0  0
   19.9625   17.6282   23.0939 C   0  0  0  0  0  0  0  0  0  0  0  0
   20.8841   17.2755   22.6155 H   0  0  0  0  0  0  0  0  0  0  0  0
   19.4790   16.7250   23.4891 H   0  0  0  0  0  0  0  0  0  0  0  0
   18.9998   18.2307   22.0403 C   0  0  0  0  0  0  0  0  0  0  0  0
   18.0941   18.5731   22.5614 H   0  0  0  0  0  0  0  0  0  0  0  0
   19.5505   19.4093   21.1981 C   0  0  0  0  0  0  0  0  0  0  0  0
   20.4620   19.1090   20.6669 H   0  0  0  0  0  0  0  0  0  0  0  0
   18.8141   19.6214   20.4119 H   0  0  0  0  0  0  0  0  0  0  0  0
   19.7723   20.7280   21.9861 C   0  0  0  0  0  0  0  0  0  0  0  0
   19.1339   20.7561   22.8764 H   0  0  0  0  0  0  0  0  0  0  0  0
   19.4158   21.5622   21.3664 H   0  0  0  0  0  0  0  0  0  0  0  0
   21.2444   21.0352   22.3621 C   0  0  0  0  0  0  0  0  0  0  0  0
   21.2621   21.8569   23.0908 H   0  0  0  0  0  0  0  0  0  0  0  0
   21.7461   21.4230   21.4650 H   0  0  0  0  0  0  0  0  0  0  0  0
   18.6428   17.1880   21.1415 O   0  0  0  0  0  0  0  0  0  0  0  0
   17.9824   17.5622   20.5218 H   0  0  0  0  0  0  0  0  0  0  0  0
  1  2  1  0  0  0  0
  1  3  1  0  0  0  0
  1  4  1  0  0  0  0
  4  5  1  0  0  0  0
  4  6  1  0  0  0  0
  4  7  1  0  0  0  0
  7  8  1  0  0  0  0
  7  9  1  0  0  0  0
  7 10  1  0  0  0  0
 10 11  1  0  0  0  0
 10 12  1  0  0  0  0
 10 13  1  0  0  0  0
 13 14  1  0  0  0  0
 13 15  1  0  0  0  0
 15 16  1  0  0  0  0
 15 17  1  0  0  0  0
 15 18  1  0  0  0  0
 18 19  1  0  0  0  0
 18 20  1  0  0  0  0
  1 21  1  0  0  0  0
 18 21  1  0  0  0  0
 21 22  1  0  0  0  0
 21 23  1  0  0  0  0
 13 24  1  0  0  0  0
 24 25  1  0  0  0  0
M  END
> <VConfSearch Rank>
596

> <Conf_Id>
24

> <Delta U+W>
-1.236

> <U+W>
9.678

> <U>
11.876

> <W>
-2.199

> <W(PB)>
-4.335

> <W(SA)>
2.137

> <Valence>
17.153

> <Coulomb>
-7.966

> <VdW>
2.689

> <VdW6>
-12.458

> <VdW12>
15.147

> <Bond>
0.421

> <Angle>
5.258

> <Pdih>
11.475

> <Idih>
0.000

> <Tether>
0.000

$$$$
VeraChem MOL file


 25 25  0  0  0  0  0  0  0  0999 V2000     
   22.1984   20.0803   22.9025 C   0  0  0  0  0  0  0  0  0  0  0  0
   22.6152   20.3335   23.8869 H   0  0  0  0  0  0  0  0  0  0  0  0
   22.9340   20.4361   22.1682 H   0  0  0  0  0  0  0  0  0  0  0  0
   22.1080   18.5361   22.7780 C   0  0  0  0  0  0  0  0  0  0  0  0
   22.0144   18.2381   21.7260 H   0  0  0  0  0  0  0  0  0  0  0  0
   23.0786   18.1324   23.0971 H   0  0  0  0  0  0  0  0  0  0  0  0
   21.0062   17.8495   23.6225 C   0  0  0  0  0  0  0  0  0  0  0  0
   20.8615   18.3748   24.5762 H   0  0  0  0  0  0  0  0  0  0  0  0
   21.3857   16.8545   23.8930 H   0  0  0  0  0  0  0  0  0  0  0  0
   19.6520   17.6317   22.8900 C   0  0  0  0  0  0  0  0  0  0  0  0
   19.8149   17.3856   21.8330 H   0  0  0  0  0  0  0  0  0  0  0  0
   19.1963   16.7360   23.3340 H   0  0  0  0  0  0  0  0  0  0  0  0
   18.6394   18.7949   23.0274 C   0  0  0  0  0  0  0  0  0  0  0  0
   18.8250   19.3081   23.9802 H   0  0  0  0  0  0  0  0  0  0  0  0
   18.6583   19.8313   21.8753 C   0  0  0  0  0  0  0  0  0  0  0  0
   18.2205   19.3823   20.9741 H   0  0  0  0  0  0  0  0  0  0  0  0
   17.9891   20.6546   22.1579 H   0  0  0  0  0  0  0  0  0  0  0  0
   20.0358   20.4308   21.4963 C   0  0  0  0  0  0  0  0  0  0  0  0
   19.8621   21.3000   20.8474 H   0  0  0  0  0  0  0  0  0  0  0  0
   20.5884   19.7208   20.8701 H   0  0  0  0  0  0  0  0  0  0  0  0
   20.8862   20.8798   22.7114 C   0  0  0  0  0  0  0  0  0  0  0  0
   20.2993   20.8506   23.6368 H   0  0  0  0  0  0  0  0  0  0  0  0
   21.1502   21.9384   22.5833 H   0  0  0  0  0  0  0  0  0  0  0  0
   17.3296   18.2439   23.0770 O   0  0  0  0  0  0  0  0  0  0  0  0
   17.1939   17.7750   22.2280 H   0  0  0  0  0  0  0  0  0  0  0  0
  1  2  1  0  0  0  0
  1  3  1  0  0  0  0
  1  4  1  0  0  0  0
  4  5  1  0  0  0  0
  4  6  1  0  0  0  0
  4  7  1  0  0  0  0
  7  8  1  0  0  0  0
  7  9  1  0  0  0  0
  7 10  1  0  0  0  0
 10 11  1  0  0  0  0
 10 12  1  0  0  0  0
 10 13  1  0  0  0  0
 13 14  1  0  0  0  0
 13 15  1  0  0  0  0
 15 16  1  0  0  0  0
 15 17  1  0  0  0  0
 15 18  1  0  0  0  0
 18 19  1  0  0  0  0
 18 20  1  0  0  0  0
  1 21  1  0  0  0  0
 18 21  1  0  0  0  0
 21 22  1  0  0  0  0
 21 23  1  0  0  0  0
 13 24  1  0  0  0  0
 24 25  1  0  0  0  0
M  END
> <VConfSearch Rank>
597

> <Conf_Id>
167

> <Delta U+W>
0.388

> <U+W>
11.301

> <U>
13.202

> <W>
-1.901

> <W(PB)>
-4.065

> <W(SA)>
2.163

> <Valence>
18.957

> <Coulomb>
-8.753

> <VdW>
2.998

> <VdW6>
-12.294

> <VdW12>
15.292

> <Bond>
0.419

> <Angle>
4.543

> <Pdih>
13.996

> <Idih>
0.000

> <Tether>
0.000

$$$$
VeraChem MOL file


 25 25  0  0  0  0  0  0  0  0999 V2000     
   18.9280   17.8257   23.2588 C   0  0  0  0  0  0  0  0  0  0  0  0
   17.8513   17.9756   23.1017 H   0  0  0  0  0  0  0  0  0  0  0  0
   19.0236   16.8375   23.7293 H   0  0  0  0  0  0  0  0  0  0  0  0
   19.4394   18.8821   24.2726 C   0  0  0  0  0  0  0  0  0  0  0  0
   18.9834   19.8589   24.0760 H   0  0  0  0  0  0  0  0  0  0  0  0
   19.0525   18.5945   25.2598 H   0  0  0  0  0  0  0  0  0  0  0  0
   20.9810   19.0127   24.3791 C   0  0  0  0  0  0  0  0  0  0  0  0
   21.4776   18.0802   24.0814 H   0  0  0  0  0  0  0  0  0  0  0  0
   21.2287   19.1429   25.4414 H   0  0  0  0  0  0  0  0  0  0  0  0
   21.5866   20.2256   23.6211 C   0  0  0  0  0  0  0  0  0  0  0  0
   21.1031   21.1493   23.9649 H   0  0  0  0  0  0  0  0  0  0  0  0
   22.6387   20.3120   23.9234 H   0  0  0  0  0  0  0  0  0  0  0  0
   21.5458   20.1746   22.0735 C   0  0  0  0  0  0  0  0  0  0  0  0
   22.0005   19.2347   21.7329 H   0  0  0  0  0  0  0  0  0  0  0  0
   20.1235   20.3177   21.4725 C   0  0  0  0  0  0  0  0  0  0  0  0
   19.4587   20.8075   22.1912 H   0  0  0  0  0  0  0  0  0  0  0  0
   20.1545   21.0066   20.6178 H   0  0  0  0  0  0  0  0  0  0  0  0
   19.4882   18.9952   20.9704 C   0  0  0  0  0  0  0  0  0  0  0  0
   19.9417   18.7497   20.0003 H   0  0  0  0  0  0  0  0  0  0  0  0
   18.4227   19.1668   20.7659 H   0  0  0  0  0  0  0  0  0  0  0  0
   19.6400   17.7534   21.8846 C   0  0  0  0  0  0  0  0  0  0  0  0
   20.6979   17.4992   22.0168 H   0  0  0  0  0  0  0  0  0  0  0  0
   19.2161   16.8968   21.3430 H   0  0  0  0  0  0  0  0  0  0  0  0
   22.3422   21.2514   21.5934 O   0  0  0  0  0  0  0  0  0  0  0  0
   22.3663   21.1692   20.6171 H   0  0  0  0  0  0  0  0  0  0  0  0
  1  2  1  0  0  0  0
  1  3  1  0  0  0  0
  1  4  1  0  0  0  0
  4  5  1  0  0  0  0
  4  6  1  0  0  0  0
  4  7  1  0  0  0  0
  7  8  1  0  0  0  0
  7  9  1  0  0  0  0
  7 10  1  0  0  0  0
 10 11  1  0  0  0  0
 10 12  1  0  0  0  0
 10 13  1  0  0  0  0
 13 14  1  0  0  0  0
 13 15  1  0  0  0  0
 15 16  1  0  0  0  0
 15 17  1  0  0  0  0
 15 18  1  0  0  0  0
 18 19  1  0  0  0  0
 18 20  1  0  0  0  0
  1 21  1  0  0  0  0
 18 21  1  0  0  0  0
 21 22  1  0  0  0  0
 21 23  1  0  0  0  0
 13 24  1  0  0  0  0
 24 25  1  0  0  0  0
M  END
> <VConfSearch Rank>
598

> <Conf_Id>
60

> <Delta U+W>
-1.838

> <U+W>
9.075

> <U>
11.150

> <W>
-2.074

> <W(PB)>
-4.196

> <W(SA)>
2.121

> <Valence>
16.582

> <Coulomb>
-8.361

> <VdW>
2.928

> <VdW6>
-12.539

> <VdW12>
15.467

> <Bond>
0.441

> <Angle>
5.093

> <Pdih>
11.049

> <Idih>
0.000

> <Tether>
0.000

$$$$
VeraChem MOL file


 25 25  0  0  0  0  0  0  0  0999 V2000     
   18.9018   17.8068   23.2296 C   0  0  0  0  0  0  0  0  0  0  0  0
   17.9054   17.7861   22.7677 H   0  0  0  0  0  0  0  0  0  0  0  0
   18.8920   17.0139   23.9899 H   0  0  0  0  0  0  0  0  0  0  0  0
   19.0940   19.1541   23.9702 C   0  0  0  0  0  0  0  0  0  0  0  0
   18.3185   19.2126   24.7461 H   0  0  0  0  0  0  0  0  0  0  0  0
   20.0390   19.1520   24.5253 H   0  0  0  0  0  0  0  0  0  0  0  0
   18.9738   20.4331   23.1038 C   0  0  0  0  0  0  0  0  0  0  0  0
   19.0159   21.2970   23.7812 H   0  0  0  0  0  0  0  0  0  0  0  0
   17.9780   20.4656   22.6415 H   0  0  0  0  0  0  0  0  0  0  0  0
   20.0466   20.6379   22.0029 C   0  0  0  0  0  0  0  0  0  0  0  0
   19.7922   20.0524   21.1137 H   0  0  0  0  0  0  0  0  0  0  0  0
   19.9740   21.6821   21.6707 H   0  0  0  0  0  0  0  0  0  0  0  0
   21.5026   20.3350   22.4424 C   0  0  0  0  0  0  0  0  0  0  0  0
   21.5732   20.3606   23.5381 H   0  0  0  0  0  0  0  0  0  0  0  0
   22.0482   18.9784   21.9312 C   0  0  0  0  0  0  0  0  0  0  0  0
   21.9482   18.9375   20.8387 H   0  0  0  0  0  0  0  0  0  0  0  0
   23.1279   18.9578   22.1306 H   0  0  0  0  0  0  0  0  0  0  0  0
   21.4337   17.6954   22.5544 C   0  0  0  0  0  0  0  0  0  0  0  0
   21.5581   17.6942   23.6450 H   0  0  0  0  0  0  0  0  0  0  0  0
   22.0328   16.8469   22.1966 H   0  0  0  0  0  0  0  0  0  0  0  0
   19.9585   17.4229   22.1613 C   0  0  0  0  0  0  0  0  0  0  0  0
   19.8491   16.3460   21.9730 H   0  0  0  0  0  0  0  0  0  0  0  0
   19.7238   17.8922   21.1993 H   0  0  0  0  0  0  0  0  0  0  0  0
   22.3464   21.3545   21.9201 O   0  0  0  0  0  0  0  0  0  0  0  0
   22.0351   22.2007   22.3044 H   0  0  0  0  0  0  0  0  0  0  0  0
  1  2  1  0  0  0  0
  1  3  1  0  0  0  0
  1  4  1  0  0  0  0
  4  5  1  0  0  0  0
  4  6  1  0  0  0  0
  4  7  1  0  0  0  0
  7  8  1  0  0  0  0
  7  9  1  0  0  0  0
  7 10  1  0  0  0  0
 10 11  1  0  0  0  0
 10 12  1  0  0  0  0
 10 13  1  0  0  0  0
 13 14  1  0  0  0  0
 13 15  1  0  0  0  0
 15 16  1  0  0  0  0
 15 17  1  0  0  0  0
 15 18  1  0  0  0  0
 18 19  1  0  0  0  0
 18 20  1  0  0  0  0
  1 21  1  0  0  0  0
 18 21  1  0  0  0  0
 21 22  1  0  0  0  0
 21 23  1  0  0  0  0
 13 24  1  0  0  0  0
 24 25  1  0  0  0  0
M  END
> <VConfSearch Rank>
599

> <Conf_Id>
129

> <Delta U+W>
-1.846

> <U+W>
9.067

> <U>
11.150

> <W>
-2.083

> <W(PB)>
-4.217

> <W(SA)>
2.134

> <Valence>
16.583

> <Coulomb>
-8.361

> <VdW>
2.928

> <VdW6>
-12.539

> <VdW12>
15.467

> <Bond>
0.441

> <Angle>
5.093

> <Pdih>
11.049

> <Idih>
0.000

> <Tether>
0.000

$$$$
VeraChem MOL file


 25 25  0  0  0  0  0  0  0  0999 V2000     
   21.5667   19.9016   21.2029 C   0  0  0  0  0  0  0  0  0  0  0  0
   21.5521   20.9524   20.8832 H   0  0  0  0  0  0  0  0  0  0  0  0
   22.3636   19.4247   20.6161 H   0  0  0  0  0  0  0  0  0  0  0  0
   20.2310   19.2266   20.8025 C   0  0  0  0  0  0  0  0  0  0  0  0
   20.1515   19.2853   19.7084 H   0  0  0  0  0  0  0  0  0  0  0  0
   20.2665   18.1527   21.0186 H   0  0  0  0  0  0  0  0  0  0  0  0
   18.9440   19.8572   21.3909 C   0  0  0  0  0  0  0  0  0  0  0  0
   18.0862   19.3494   20.9290 H   0  0  0  0  0  0  0  0  0  0  0  0
   18.8756   20.9063   21.0727 H   0  0  0  0  0  0  0  0  0  0  0  0
   18.7655   19.7851   22.9298 C   0  0  0  0  0  0  0  0  0  0  0  0
   19.3311   20.5878   23.4137 H   0  0  0  0  0  0  0  0  0  0  0  0
   17.7137   20.0211   23.1409 H   0  0  0  0  0  0  0  0  0  0  0  0
   19.1204   18.4172   23.5683 C   0  0  0  0  0  0  0  0  0  0  0  0
   19.0966   17.6329   22.8001 H   0  0  0  0  0  0  0  0  0  0  0  0
   20.4928   18.3868   24.2869 C   0  0  0  0  0  0  0  0  0  0  0  0
   20.5315   19.1893   25.0351 H   0  0  0  0  0  0  0  0  0  0  0  0
   20.5517   17.4479   24.8537 H   0  0  0  0  0  0  0  0  0  0  0  0
   21.7566   18.4664   23.3883 C   0  0  0  0  0  0  0  0  0  0  0  0
   21.7665   17.6483   22.6566 H   0  0  0  0  0  0  0  0  0  0  0  0
   22.6235   18.2806   24.0371 H   0  0  0  0  0  0  0  0  0  0  0  0
   21.9772   19.8366   22.6968 C   0  0  0  0  0  0  0  0  0  0  0  0
   23.0483   20.0761   22.7473 H   0  0  0  0  0  0  0  0  0  0  0  0
   21.4922   20.6377   23.2658 H   0  0  0  0  0  0  0  0  0  0  0  0
   18.1284   18.1096   24.5397 O   0  0  0  0  0  0  0  0  0  0  0  0
   18.1721   18.8187   25.2137 H   0  0  0  0  0  0  0  0  0  0  0  0
  1  2  1  0  0  0  0
  1  3  1  0  0  0  0
  1  4  1  0  0  0  0
  4  5  1  0  0  0  0
  4  6  1  0  0  0  0
  4  7  1  0  0  0  0
  7  8  1  0  0  0  0
  7  9  1  0  0  0  0
  7 10  1  0  0  0  0
 10 11  1  0  0  0  0
 10 12  1  0  0  0  0
 10 13  1  0  0  0  0
 13 14  1  0  0  0  0
 13 15  1  0  0  0  0
 15 16  1  0  0  0  0
 15 17  1  0  0  0  0
 15 18  1  0  0  0  0
 18 19  1  0  0  0  0
 18 20  1  0  0  0  0
  1 21  1  0  0  0  0
 18 21  1  0  0  0  0
 21 22  1  0  0  0  0
 21 23  1  0  0  0  0
 13 24  1  0  0  0  0
 24 25  1  0  0  0  0
M  END
> <VConfSearch Rank>
600

> <Conf_Id>
140

> <Delta U+W>
-1.702

> <U+W>
9.211

> <U>
11.181

> <W>
-1.969

> <W(PB)>
-4.093

> <W(SA)>
2.124

> <Valence>
16.954

> <Coulomb>
-8.661

> <VdW>
2.887

> <VdW6>
-12.561

> <VdW12>
15.448

> <Bond>
0.433

> <Angle>
5.120

> <Pdih>
11.401

> <Idih>
0.000

> <Tether>
0.000

$$$$
VeraChem MOL file


 25 25  0  0  0  0  0  0  0  0999 V2000     
   21.0011   19.2020   24.5801 C   0  0  0  0  0  0  0  0  0  0  0  0
   21.0593   18.2784   25.1717 H   0  0  0  0  0  0  0  0  0  0  0  0
   21.3740   19.9989   25.2379 H   0  0  0  0  0  0  0  0  0  0  0  0
   19.5128   19.5056   24.2679 C   0  0  0  0  0  0  0  0  0  0  0  0
   18.9766   18.5851   24.0109 H   0  0  0  0  0  0  0  0  0  0  0  0
   19.0483   19.8391   25.2060 H   0  0  0  0  0  0  0  0  0  0  0  0
   19.2676   20.5970   23.1940 C   0  0  0  0  0  0  0  0  0  0  0  0
   20.1177   21.2886   23.1321 H   0  0  0  0  0  0  0  0  0  0  0  0
   18.4229   21.2114   23.5346 H   0  0  0  0  0  0  0  0  0  0  0  0
   18.8951   20.0543   21.7877 C   0  0  0  0  0  0  0  0  0  0  0  0
   18.0170   19.4010   21.8745 H   0  0  0  0  0  0  0  0  0  0  0  0
   18.5708   20.9103   21.1809 H   0  0  0  0  0  0  0  0  0  0  0  0
   20.0105   19.3178   21.0040 C   0  0  0  0  0  0  0  0  0  0  0  0
   20.8977   19.9622   20.9455 H   0  0  0  0  0  0  0  0  0  0  0  0
   20.4035   17.9403   21.5979 C   0  0  0  0  0  0  0  0  0  0  0  0
   19.5874   17.5447   22.2112 H   0  0  0  0  0  0  0  0  0  0  0  0
   20.5148   17.2129   20.7823 H   0  0  0  0  0  0  0  0  0  0  0  0
   21.7309   17.9257   22.3997 C   0  0  0  0  0  0  0  0  0  0  0  0
   22.5593   17.9200   21.6781 H   0  0  0  0  0  0  0  0  0  0  0  0
   21.8065   16.9764   22.9472 H   0  0  0  0  0  0  0  0  0  0  0  0
   21.9737   19.1019   23.3783 C   0  0  0  0  0  0  0  0  0  0  0  0
   22.0080   20.0533   22.8352 H   0  0  0  0  0  0  0  0  0  0  0  0
   22.9859   18.9812   23.7878 H   0  0  0  0  0  0  0  0  0  0  0  0
   19.5310   19.1108   19.6814 O   0  0  0  0  0  0  0  0  0  0  0  0
   18.7401   18.5388   19.7602 H   0  0  0  0  0  0  0  0  0  0  0  0
  1  2  1  0  0  0  0
  1  3  1  0  0  0  0
  1  4  1  0  0  0  0
  4  5  1  0  0  0  0
  4  6  1  0  0  0  0
  4  7  1  0  0  0  0
  7  8  1  0  0  0  0
  7  9  1  0  0  0  0
  7 10  1  0  0  0  0
 10 11  1  0  0  0  0
 10 12  1  0  0  0  0
 10 13  1  0  0  0  0
 13 14  1  0  0  0  0
 13 15  1  0  0  0  0
 15 16  1  0  0  0  0
 15 17  1  0  0  0  0
 15 18  1  0  0  0  0
 18 19  1  0  0  0  0
 18 20  1  0  0  0  0
  1 21  1  0  0  0  0
 18 21  1  0  0  0  0
 21 22  1  0  0  0  0
 21 23  1  0  0  0  0
 13 24  1  0  0  0  0
 24 25  1  0  0  0  0
M  END
> <VConfSearch Rank>
601

> <Conf_Id>
68

> <Delta U+W>
-1.765

> <U+W>
9.148

> <U>
11.181

> <W>
-2.032

> <W(PB)>
-4.147

> <W(SA)>
2.114

> <Valence>
16.955

> <Coulomb>
-8.661

> <VdW>
2.887

> <VdW6>
-12.561

> <VdW12>
15.448

> <Bond>
0.433

> <Angle>
5.121

> <Pdih>
11.402

> <Idih>
0.000

> <Tether>
0.000

$$$$
VeraChem MOL file


 25 25  0  0  0  0  0  0  0  0999 V2000     
   19.4347   20.3670   23.8647 C   0  0  0  0  0  0  0  0  0  0  0  0
   18.9409   20.9636   24.6440 H   0  0  0  0  0  0  0  0  0  0  0  0
   19.4416   21.0213   22.9857 H   0  0  0  0  0  0  0  0  0  0  0  0
   18.5678   19.1083   23.6010 C   0  0  0  0  0  0  0  0  0  0  0  0
   18.9231   18.2527   24.1895 H   0  0  0  0  0  0  0  0  0  0  0  0
   17.5585   19.3171   23.9814 H   0  0  0  0  0  0  0  0  0  0  0  0
   18.4168   18.7233   22.1058 C   0  0  0  0  0  0  0  0  0  0  0  0
   18.0152   19.5802   21.5477 H   0  0  0  0  0  0  0  0  0  0  0  0
   17.6476   17.9418   22.0386 H   0  0  0  0  0  0  0  0  0  0  0  0
   19.6890   18.1962   21.3902 C   0  0  0  0  0  0  0  0  0  0  0  0
   20.0880   17.3209   21.9167 H   0  0  0  0  0  0  0  0  0  0  0  0
   19.3672   17.8207   20.4094 H   0  0  0  0  0  0  0  0  0  0  0  0
   20.7932   19.2632   21.1731 C   0  0  0  0  0  0  0  0  0  0  0  0
   20.3454   20.2610   21.2473 H   0  0  0  0  0  0  0  0  0  0  0  0
   21.9883   19.1688   22.1533 C   0  0  0  0  0  0  0  0  0  0  0  0
   22.6357   18.3411   21.8348 H   0  0  0  0  0  0  0  0  0  0  0  0
   22.5929   20.0794   22.0512 H   0  0  0  0  0  0  0  0  0  0  0  0
   21.6591   18.9480   23.6523 C   0  0  0  0  0  0  0  0  0  0  0  0
   22.6137   18.8299   24.1827 H   0  0  0  0  0  0  0  0  0  0  0  0
   21.1436   17.9913   23.7947 H   0  0  0  0  0  0  0  0  0  0  0  0
   20.8800   20.0889   24.3534 C   0  0  0  0  0  0  0  0  0  0  0  0
   21.4623   21.0182   24.2914 H   0  0  0  0  0  0  0  0  0  0  0  0
   20.8296   19.8420   25.4228 H   0  0  0  0  0  0  0  0  0  0  0  0
   21.3088   19.1198   19.8554 O   0  0  0  0  0  0  0  0  0  0  0  0
   21.6878   18.2184   19.8028 H   0  0  0  0  0  0  0  0  0  0  0  0
  1  2  1  0  0  0  0
  1  3  1  0  0  0  0
  1  4  1  0  0  0  0
  4  5  1  0  0  0  0
  4  6  1  0  0  0  0
  4  7  1  0  0  0  0
  7  8  1  0  0  0  0
  7  9  1  0  0  0  0
  7 10  1  0  0  0  0
 10 11  1  0  0  0  0
 10 12  1  0  0  0  0
 10 13  1  0  0  0  0
 13 14  1  0  0  0  0
 13 15  1  0  0  0  0
 15 16  1  0  0  0  0
 15 17  1  0  0  0  0
 15 18  1  0  0  0  0
 18 19  1  0  0  0  0
 18 20  1  0  0  0  0
  1 21  1  0  0  0  0
 18 21  1  0  0  0  0
 21 22  1  0  0  0  0
 21 23  1  0  0  0  0
 13 24  1  0  0  0  0
 24 25  1  0  0  0  0
M  END
> <VConfSearch Rank>
602

> <Conf_Id>
165

> <Delta U+W>
-1.999

> <U+W>
8.915

> <U>
10.935

> <W>
-2.020

> <W(PB)>
-4.135

> <W(SA)>
2.115

> <Valence>
16.757

> <Coulomb>
-8.731

> <VdW>
2.908

> <VdW6>
-12.597

> <VdW12>
15.506

> <Bond>
0.434

> <Angle>
5.069

> <Pdih>
11.254

> <Idih>
0.000

> <Tether>
0.000

$$$$
VeraChem MOL file


 25 25  0  0  0  0  0  0  0  0999 V2000     
   19.9747   20.0726   24.2256 C   0  0  0  0  0  0  0  0  0  0  0  0
   19.7103   20.6536   25.1198 H   0  0  0  0  0  0  0  0  0  0  0  0
   20.6831   19.3205   24.5908 H   0  0  0  0  0  0  0  0  0  0  0  0
   20.6685   21.0480   23.2394 C   0  0  0  0  0  0  0  0  0  0  0  0
   20.1098   21.9938   23.2564 H   0  0  0  0  0  0  0  0  0  0  0  0
   21.6698   21.2891   23.6213 H   0  0  0  0  0  0  0  0  0  0  0  0
   20.7775   20.6030   21.7594 C   0  0  0  0  0  0  0  0  0  0  0  0
   21.2010   21.4448   21.1948 H   0  0  0  0  0  0  0  0  0  0  0  0
   19.7792   20.4575   21.3309 H   0  0  0  0  0  0  0  0  0  0  0  0
   21.6711   19.3664   21.4836 C   0  0  0  0  0  0  0  0  0  0  0  0
   21.7356   19.2438   20.3939 H   0  0  0  0  0  0  0  0  0  0  0  0
   22.6916   19.5832   21.8247 H   0  0  0  0  0  0  0  0  0  0  0  0
   21.2200   18.0176   22.0959 C   0  0  0  0  0  0  0  0  0  0  0  0
   21.4765   18.0003   23.1616 H   0  0  0  0  0  0  0  0  0  0  0  0
   19.7088   17.7089   21.9369 C   0  0  0  0  0  0  0  0  0  0  0  0
   19.2817   18.2709   21.0979 H   0  0  0  0  0  0  0  0  0  0  0  0
   19.5981   16.6521   21.6586 H   0  0  0  0  0  0  0  0  0  0  0  0
   18.8670   17.9277   23.2224 C   0  0  0  0  0  0  0  0  0  0  0  0
   19.2934   17.3318   24.0410 H   0  0  0  0  0  0  0  0  0  0  0  0
   17.8677   17.5084   23.0427 H   0  0  0  0  0  0  0  0  0  0  0  0
   18.6850   19.3944   23.6944 C   0  0  0  0  0  0  0  0  0  0  0  0
   17.9576   19.3779   24.5176 H   0  0  0  0  0  0  0  0  0  0  0  0
   18.2140   20.0002   22.9096 H   0  0  0  0  0  0  0  0  0  0  0  0
   21.9617   16.9879   21.4516 O   0  0  0  0  0  0  0  0  0  0  0  0
   22.9095   17.1839   21.6061 H   0  0  0  0  0  0  0  0  0  0  0  0
  1  2  1  0  0  0  0
  1  3  1  0  0  0  0
  1  4  1  0  0  0  0
  4  5  1  0  0  0  0
  4  6  1  0  0  0  0
  4  7  1  0  0  0  0
  7  8  1  0  0  0  0
  7  9  1  0  0  0  0
  7 10  1  0  0  0  0
 10 11  1  0  0  0  0
 10 12  1  0  0  0  0
 10 13  1  0  0  0  0
 13 14  1  0  0  0  0
 13 15  1  0  0  0  0
 15 16  1  0  0  0  0
 15 17  1  0  0  0  0
 15 18  1  0  0  0  0
 18 19  1  0  0  0  0
 18 20  1  0  0  0  0
  1 21  1  0  0  0  0
 18 21  1  0  0  0  0
 21 22  1  0  0  0  0
 21 23  1  0  0  0  0
 13 24  1  0  0  0  0
 24 25  1  0  0  0  0
M  END
> <VConfSearch Rank>
603

> <Conf_Id>
133

> <Delta U+W>
-2.139

> <U+W>
8.774

> <U>
10.905

> <W>
-2.131

> <W(PB)>
-4.281

> <W(SA)>
2.150

> <Valence>
16.378

> <Coulomb>
-8.448

> <VdW>
2.976

> <VdW6>
-12.570

> <VdW12>
15.545

> <Bond>
0.439

> <Angle>
5.049

> <Pdih>
10.889

> <Idih>
0.000

> <Tether>
0.000

$$$$
VeraChem MOL file


 25 25  0  0  0  0  0  0  0  0999 V2000     
   21.7530   18.8407   21.6263 C   0  0  0  0  0  0  0  0  0  0  0  0
   22.5740   18.5599   20.9524 H   0  0  0  0  0  0  0  0  0  0  0  0
   22.2538   19.2914   22.4905 H   0  0  0  0  0  0  0  0  0  0  0  0
   21.0079   17.5455   22.0420 C   0  0  0  0  0  0  0  0  0  0  0  0
   20.1403   17.3632   21.3950 H   0  0  0  0  0  0  0  0  0  0  0  0
   21.6854   16.7009   21.8559 H   0  0  0  0  0  0  0  0  0  0  0  0
   20.6024   17.4787   23.5380 C   0  0  0  0  0  0  0  0  0  0  0  0
   21.4950   17.6144   24.1640 H   0  0  0  0  0  0  0  0  0  0  0  0
   20.2512   16.4582   23.7434 H   0  0  0  0  0  0  0  0  0  0  0  0
   19.4952   18.4614   24.0042 C   0  0  0  0  0  0  0  0  0  0  0  0
   18.5830   18.3211   23.4124 H   0  0  0  0  0  0  0  0  0  0  0  0
   19.2197   18.1704   25.0269 H   0  0  0  0  0  0  0  0  0  0  0  0
   19.9209   19.9523   24.0173 C   0  0  0  0  0  0  0  0  0  0  0  0
   21.0156   20.0099   24.0286 H   0  0  0  0  0  0  0  0  0  0  0  0
   19.3775   20.7891   22.8332 C   0  0  0  0  0  0  0  0  0  0  0  0
   18.3199   21.0130   23.0282 H   0  0  0  0  0  0  0  0  0  0  0  0
   19.8945   21.7572   22.8206 H   0  0  0  0  0  0  0  0  0  0  0  0
   19.4649   20.1563   21.4204 C   0  0  0  0  0  0  0  0  0  0  0  0
   18.9722   20.8463   20.7220 H   0  0  0  0  0  0  0  0  0  0  0  0
   18.8648   19.2404   21.3731 H   0  0  0  0  0  0  0  0  0  0  0  0
   20.8926   19.8930   20.8794 C   0  0  0  0  0  0  0  0  0  0  0  0
   21.4459   20.8409   20.8368 H   0  0  0  0  0  0  0  0  0  0  0  0
   20.7915   19.5624   19.8366 H   0  0  0  0  0  0  0  0  0  0  0  0
   19.4401   20.5491   25.2166 O   0  0  0  0  0  0  0  0  0  0  0  0
   19.7609   21.4751   25.2195 H   0  0  0  0  0  0  0  0  0  0  0  0
  1  2  1  0  0  0  0
  1  3  1  0  0  0  0
  1  4  1  0  0  0  0
  4  5  1  0  0  0  0
  4  6  1  0  0  0  0
  4  7  1  0  0  0  0
  7  8  1  0  0  0  0
  7  9  1  0  0  0  0
  7 10  1  0  0  0  0
 10 11  1  0  0  0  0
 10 12  1  0  0  0  0
 10 13  1  0  0  0  0
 13 14  1  0  0  0  0
 13 15  1  0  0  0  0
 15 16  1  0  0  0  0
 15 17  1  0  0  0  0
 15 18  1  0  0  0  0
 18 19  1  0  0  0  0
 18 20  1  0  0  0  0
  1 21  1  0  0  0  0
 18 21  1  0  0  0  0
 21 22  1  0  0  0  0
 21 23  1  0  0  0  0
 13 24  1  0  0  0  0
 24 25  1  0  0  0  0
M  END
> <VConfSearch Rank>
604

> <Conf_Id>
95

> <Delta U+W>
-2.190

> <U+W>
8.723

> <U>
10.905

> <W>
-2.182

> <W(PB)>
-4.296

> <W(SA)>
2.114

> <Valence>
16.377

> <Coulomb>
-8.448

> <VdW>
2.976

> <VdW6>
-12.570

> <VdW12>
15.546

> <Bond>
0.439

> <Angle>
5.049

> <Pdih>
10.889

> <Idih>
0.000

> <Tether>
0.000

$$$$
VeraChem MOL file


 25 25  0  0  0  0  0  0  0  0999 V2000     
   21.1408   17.5706   22.8781 C   0  0  0  0  0  0  0  0  0  0  0  0
   21.5649   16.5795   23.0897 H   0  0  0  0  0  0  0  0  0  0  0  0
   21.9752   18.1112   22.4201 H   0  0  0  0  0  0  0  0  0  0  0  0
   20.7526   18.2014   24.2476 C   0  0  0  0  0  0  0  0  0  0  0  0
   20.4069   17.3861   24.8978 H   0  0  0  0  0  0  0  0  0  0  0  0
   21.6585   18.5941   24.7287 H   0  0  0  0  0  0  0  0  0  0  0  0
   19.6490   19.2915   24.2663 C   0  0  0  0  0  0  0  0  0  0  0  0
   19.4312   19.5261   25.3172 H   0  0  0  0  0  0  0  0  0  0  0  0
   18.7109   18.8625   23.9002 H   0  0  0  0  0  0  0  0  0  0  0  0
   19.9595   20.6395   23.5499 C   0  0  0  0  0  0  0  0  0  0  0  0
   19.0127   21.1471   23.3233 H   0  0  0  0  0  0  0  0  0  0  0  0
   20.4725   21.2799   24.2792 H   0  0  0  0  0  0  0  0  0  0  0  0
   20.8350   20.6064   22.2716 C   0  0  0  0  0  0  0  0  0  0  0  0
   21.7914   20.1388   22.5275 H   0  0  0  0  0  0  0  0  0  0  0  0
   20.2308   19.9045   21.0215 C   0  0  0  0  0  0  0  0  0  0  0  0
   19.6213   20.6417   20.4817 H   0  0  0  0  0  0  0  0  0  0  0  0
   21.0521   19.6460   20.3411 H   0  0  0  0  0  0  0  0  0  0  0  0
   19.3389   18.6514   21.2340 C   0  0  0  0  0  0  0  0  0  0  0  0
   18.9249   18.3693   20.2564 H   0  0  0  0  0  0  0  0  0  0  0  0
   18.4544   18.9314   21.8149 H   0  0  0  0  0  0  0  0  0  0  0  0
   20.0131   17.3808   21.8294 C   0  0  0  0  0  0  0  0  0  0  0  0
   20.4460   16.8158   20.9926 H   0  0  0  0  0  0  0  0  0  0  0  0
   19.2348   16.7298   22.2499 H   0  0  0  0  0  0  0  0  0  0  0  0
   21.1082   21.9548   21.9086 O   0  0  0  0  0  0  0  0  0  0  0  0
   21.5477   22.3717   22.6787 H   0  0  0  0  0  0  0  0  0  0  0  0
  1  2  1  0  0  0  0
  1  3  1  0  0  0  0
  1  4  1  0  0  0  0
  4  5  1  0  0  0  0
  4  6  1  0  0  0  0
  4  7  1  0  0  0  0
  7  8  1  0  0  0  0
  7  9  1  0  0  0  0
  7 10  1  0  0  0  0
 10 11  1  0  0  0  0
 10 12  1  0  0  0  0
 10 13  1  0  0  0  0
 13 14  1  0  0  0  0
 13 15  1  0  0  0  0
 15 16  1  0  0  0  0
 15 17  1  0  0  0  0
 15 18  1  0  0  0  0
 18 19  1  0  0  0  0
 18 20  1  0  0  0  0
  1 21  1  0  0  0  0
 18 21  1  0  0  0  0
 21 22  1  0  0  0  0
 21 23  1  0  0  0  0
 13 24  1  0  0  0  0
 24 25  1  0  0  0  0
M  END
> <VConfSearch Rank>
605

> <Conf_Id>
161

> <Delta U+W>
2.120

> <U+W>
13.033

> <U>
15.076

> <W>
-2.043

> <W(PB)>
-4.186

> <W(SA)>
2.143

> <Valence>
18.884

> <Coulomb>
-8.074

> <VdW>
4.266

> <VdW6>
-13.486

> <VdW12>
17.752

> <Bond>
0.713

> <Angle>
8.955

> <Pdih>
9.215

> <Idih>
0.000

> <Tether>
0.000

$$$$
VeraChem MOL file


 25 25  0  0  0  0  0  0  0  0999 V2000     
   21.7057   19.0352   21.2388 C   0  0  0  0  0  0  0  0  0  0  0  0
   22.2681   18.8976   20.3051 H   0  0  0  0  0  0  0  0  0  0  0  0
   22.4661   19.0072   22.0296 H   0  0  0  0  0  0  0  0  0  0  0  0
   20.7368   17.8366   21.3947 C   0  0  0  0  0  0  0  0  0  0  0  0
   19.7918   18.0276   20.8687 H   0  0  0  0  0  0  0  0  0  0  0  0
   21.1946   16.9870   20.8697 H   0  0  0  0  0  0  0  0  0  0  0  0
   20.4830   17.3772   22.8575 C   0  0  0  0  0  0  0  0  0  0  0  0
   21.3970   17.4549   23.4617 H   0  0  0  0  0  0  0  0  0  0  0  0
   20.2523   16.3037   22.8173 H   0  0  0  0  0  0  0  0  0  0  0  0
   19.2907   18.0657   23.5708 C   0  0  0  0  0  0  0  0  0  0  0  0
   18.4954   18.2777   22.8459 H   0  0  0  0  0  0  0  0  0  0  0  0
   18.8527   17.3376   24.2663 H   0  0  0  0  0  0  0  0  0  0  0  0
   19.6281   19.3256   24.4079 C   0  0  0  0  0  0  0  0  0  0  0  0
   20.1923   19.0010   25.2939 H   0  0  0  0  0  0  0  0  0  0  0  0
   20.4640   20.4178   23.7012 C   0  0  0  0  0  0  0  0  0  0  0  0
   20.4298   21.3280   24.3147 H   0  0  0  0  0  0  0  0  0  0  0  0
   21.5184   20.1214   23.7116 H   0  0  0  0  0  0  0  0  0  0  0  0
   20.0006   20.7667   22.2615 C   0  0  0  0  0  0  0  0  0  0  0  0
   19.7807   21.8419   22.2119 H   0  0  0  0  0  0  0  0  0  0  0  0
   19.0523   20.2739   22.0189 H   0  0  0  0  0  0  0  0  0  0  0  0
   21.0433   20.4364   21.1667 C   0  0  0  0  0  0  0  0  0  0  0  0
   21.8392   21.1929   21.1979 H   0  0  0  0  0  0  0  0  0  0  0  0
   20.5608   20.5509   20.1865 H   0  0  0  0  0  0  0  0  0  0  0  0
   18.4049   19.9097   24.8332 O   0  0  0  0  0  0  0  0  0  0  0  0
   18.0045   20.3057   24.0328 H   0  0  0  0  0  0  0  0  0  0  0  0
  1  2  1  0  0  0  0
  1  3  1  0  0  0  0
  1  4  1  0  0  0  0
  4  5  1  0  0  0  0
  4  6  1  0  0  0  0
  4  7  1  0  0  0  0
  7  8  1  0  0  0  0
  7  9  1  0  0  0  0
  7 10  1  0  0  0  0
 10 11  1  0  0  0  0
 10 12  1  0  0  0  0
 10 13  1  0  0  0  0
 13 14  1  0  0  0  0
 13 15  1  0  0  0  0
 15 16  1  0  0  0  0
 15 17  1  0  0  0  0
 15 18  1  0  0  0  0
 18 19  1  0  0  0  0
 18 20  1  0  0  0  0
  1 21  1  0  0  0  0
 18 21  1  0  0  0  0
 21 22  1  0  0  0  0
 21 23  1  0  0  0  0
 13 24  1  0  0  0  0
 24 25  1  0  0  0  0
M  END
> <VConfSearch Rank>
606

> <Conf_Id>
164

> <Delta U+W>
0.008

> <U+W>
10.922

> <U>
12.433

> <W>
-1.511

> <W(PB)>
-3.669

> <W(SA)>
2.157

> <Valence>
19.007

> <Coulomb>
-9.373

> <VdW>
2.799

> <VdW6>
-12.597

> <VdW12>
15.396

> <Bond>
0.425

> <Angle>
4.784

> <Pdih>
13.799

> <Idih>
0.000

> <Tether>
0.000

$$$$
VeraChem MOL file


 25 25  0  0  0  0  0  0  0  0999 V2000     
   20.3787   19.1869   24.4542 C   0  0  0  0  0  0  0  0  0  0  0  0
   21.4131   19.3524   24.1324 H   0  0  0  0  0  0  0  0  0  0  0  0
   20.4296   19.1737   25.5514 H   0  0  0  0  0  0  0  0  0  0  0  0
   19.8881   17.7896   23.9998 C   0  0  0  0  0  0  0  0  0  0  0  0
   20.5508   17.0432   24.4587 H   0  0  0  0  0  0  0  0  0  0  0  0
   18.8914   17.6004   24.4209 H   0  0  0  0  0  0  0  0  0  0  0  0
   19.8501   17.5153   22.4747 C   0  0  0  0  0  0  0  0  0  0  0  0
   18.9261   17.9087   22.0357 H   0  0  0  0  0  0  0  0  0  0  0  0
   19.7751   16.4272   22.3430 H   0  0  0  0  0  0  0  0  0  0  0  0
   21.0861   18.0155   21.6804 C   0  0  0  0  0  0  0  0  0  0  0  0
   21.9653   18.0945   22.3311 H   0  0  0  0  0  0  0  0  0  0  0  0
   21.3377   17.2389   20.9456 H   0  0  0  0  0  0  0  0  0  0  0  0
   20.8654   19.3303   20.8910 C   0  0  0  0  0  0  0  0  0  0  0  0
   19.9741   19.2052   20.2597 H   0  0  0  0  0  0  0  0  0  0  0  0
   20.6851   20.6200   21.7304 C   0  0  0  0  0  0  0  0  0  0  0  0
   21.5511   20.7847   22.3828 H   0  0  0  0  0  0  0  0  0  0  0  0
   20.6872   21.4633   21.0267 H   0  0  0  0  0  0  0  0  0  0  0  0
   19.3605   20.6952   22.5357 C   0  0  0  0  0  0  0  0  0  0  0  0
   18.5950   20.0591   22.0770 H   0  0  0  0  0  0  0  0  0  0  0  0
   18.9610   21.7146   22.4446 H   0  0  0  0  0  0  0  0  0  0  0  0
   19.4880   20.3881   24.0497 C   0  0  0  0  0  0  0  0  0  0  0  0
   18.4830   20.2530   24.4719 H   0  0  0  0  0  0  0  0  0  0  0  0
   19.8983   21.2815   24.5401 H   0  0  0  0  0  0  0  0  0  0  0  0
   21.9923   19.5200   20.0464 O   0  0  0  0  0  0  0  0  0  0  0  0
   22.7654   19.6276   20.6376 H   0  0  0  0  0  0  0  0  0  0  0  0
  1  2  1  0  0  0  0
  1  3  1  0  0  0  0
  1  4  1  0  0  0  0
  4  5  1  0  0  0  0
  4  6  1  0  0  0  0
  4  7  1  0  0  0  0
  7  8  1  0  0  0  0
  7  9  1  0  0  0  0
  7 10  1  0  0  0  0
 10 11  1  0  0  0  0
 10 12  1  0  0  0  0
 10 13  1  0  0  0  0
 13 14  1  0  0  0  0
 13 15  1  0  0  0  0
 15 16  1  0  0  0  0
 15 17  1  0  0  0  0
 15 18  1  0  0  0  0
 18 19  1  0  0  0  0
 18 20  1  0  0  0  0
  1 21  1  0  0  0  0
 18 21  1  0  0  0  0
 21 22  1  0  0  0  0
 21 23  1  0  0  0  0
 13 24  1  0  0  0  0
 24 25  1  0  0  0  0
M  END
> <VConfSearch Rank>
607

> <Conf_Id>
15

> <Delta U+W>
-1.271

> <U+W>
9.643

> <U>
11.413

> <W>
-1.770

> <W(PB)>
-3.908

> <W(SA)>
2.138

> <Valence>
17.496

> <Coulomb>
-8.736

> <VdW>
2.653

> <VdW6>
-12.485

> <VdW12>
15.138

> <Bond>
0.414

> <Angle>
5.295

> <Pdih>
11.787

> <Idih>
0.000

> <Tether>
0.000

$$$$
VeraChem MOL file


 25 25  0  0  0  0  0  0  0  0999 V2000     
   19.6308   19.5192   24.4010 C   0  0  0  0  0  0  0  0  0  0  0  0
   19.1065   19.8249   25.3168 H   0  0  0  0  0  0  0  0  0  0  0  0
   20.6194   19.1871   24.7423 H   0  0  0  0  0  0  0  0  0  0  0  0
   18.8336   18.3332   23.7971 C   0  0  0  0  0  0  0  0  0  0  0  0
   18.9184   17.4804   24.4844 H   0  0  0  0  0  0  0  0  0  0  0  0
   17.7670   18.5954   23.7771 H   0  0  0  0  0  0  0  0  0  0  0  0
   19.2459   17.8700   22.3791 C   0  0  0  0  0  0  0  0  0  0  0  0
   18.8262   18.5548   21.6330 H   0  0  0  0  0  0  0  0  0  0  0  0
   18.7585   16.9058   22.1803 H   0  0  0  0  0  0  0  0  0  0  0  0
   20.7759   17.7040   22.1862 C   0  0  0  0  0  0  0  0  0  0  0  0
   21.3024   17.7912   23.1431 H   0  0  0  0  0  0  0  0  0  0  0  0
   20.9736   16.6785   21.8479 H   0  0  0  0  0  0  0  0  0  0  0  0
   21.3993   18.6654   21.1483 C   0  0  0  0  0  0  0  0  0  0  0  0
   21.1029   18.3138   20.1496 H   0  0  0  0  0  0  0  0  0  0  0  0
   20.9852   20.1564   21.2483 C   0  0  0  0  0  0  0  0  0  0  0  0
   21.6368   20.7165   20.5641 H   0  0  0  0  0  0  0  0  0  0  0  0
   19.9771   20.2940   20.8394 H   0  0  0  0  0  0  0  0  0  0  0  0
   21.0775   20.8196   22.6485 C   0  0  0  0  0  0  0  0  0  0  0  0
   21.3028   21.8819   22.4811 H   0  0  0  0  0  0  0  0  0  0  0  0
   21.9319   20.4298   23.2167 H   0  0  0  0  0  0  0  0  0  0  0  0
   19.7752   20.7663   23.4941 C   0  0  0  0  0  0  0  0  0  0  0  0
   18.8859   20.8952   22.8628 H   0  0  0  0  0  0  0  0  0  0  0  0
   19.7903   21.6424   24.1570 H   0  0  0  0  0  0  0  0  0  0  0  0
   22.8131   18.5821   21.2597 O   0  0  0  0  0  0  0  0  0  0  0  0
   23.0385   18.9909   22.1195 H   0  0  0  0  0  0  0  0  0  0  0  0
  1  2  1  0  0  0  0
  1  3  1  0  0  0  0
  1  4  1  0  0  0  0
  4  5  1  0  0  0  0
  4  6  1  0  0  0  0
  4  7  1  0  0  0  0
  7  8  1  0  0  0  0
  7  9  1  0  0  0  0
  7 10  1  0  0  0  0
 10 11  1  0  0  0  0
 10 12  1  0  0  0  0
 10 13  1  0  0  0  0
 13 14  1  0  0  0  0
 13 15  1  0  0  0  0
 15 16  1  0  0  0  0
 15 17  1  0  0  0  0
 15 18  1  0  0  0  0
 18 19  1  0  0  0  0
 18 20  1  0  0  0  0
  1 21  1  0  0  0  0
 18 21  1  0  0  0  0
 21 22  1  0  0  0  0
 21 23  1  0  0  0  0
 13 24  1  0  0  0  0
 24 25  1  0  0  0  0
M  END
> <VConfSearch Rank>
608

> <Conf_Id>
115

> <Delta U+W>
0.038

> <U+W>
10.952

> <U>
12.526

> <W>
-1.575

> <W(PB)>
-3.698

> <W(SA)>
2.123

> <Valence>
19.016

> <Coulomb>
-9.226

> <VdW>
2.737

> <VdW6>
-12.612

> <VdW12>
15.349

> <Bond>
0.421

> <Angle>
4.883

> <Pdih>
13.711

> <Idih>
0.000

> <Tether>
0.000

$$$$
VeraChem MOL file


 25 25  0  0  0  0  0  0  0  0999 V2000     
   20.5512   17.2884   21.8368 C   0  0  0  0  0  0  0  0  0  0  0  0
   21.0653   16.3258   21.7098 H   0  0  0  0  0  0  0  0  0  0  0  0
   19.5552   17.1505   21.3946 H   0  0  0  0  0  0  0  0  0  0  0  0
   21.3466   18.3447   21.0348 C   0  0  0  0  0  0  0  0  0  0  0  0
   22.3815   18.3945   21.3997 H   0  0  0  0  0  0  0  0  0  0  0  0
   21.4161   17.9863   19.9986 H   0  0  0  0  0  0  0  0  0  0  0  0
   20.7208   19.7584   21.0085 C   0  0  0  0  0  0  0  0  0  0  0  0
   19.6330   19.6915   20.8741 H   0  0  0  0  0  0  0  0  0  0  0  0
   21.0948   20.2665   20.1090 H   0  0  0  0  0  0  0  0  0  0  0  0
   21.0887   20.6428   22.2302 C   0  0  0  0  0  0  0  0  0  0  0  0
   21.9215   20.2107   22.7989 H   0  0  0  0  0  0  0  0  0  0  0  0
   21.4654   21.5984   21.8409 H   0  0  0  0  0  0  0  0  0  0  0  0
   19.9059   20.9493   23.1763 C   0  0  0  0  0  0  0  0  0  0  0  0
   18.9918   21.0662   22.5768 H   0  0  0  0  0  0  0  0  0  0  0  0
   19.6588   19.8821   24.2654 C   0  0  0  0  0  0  0  0  0  0  0  0
   20.5414   19.7964   24.9129 H   0  0  0  0  0  0  0  0  0  0  0  0
   18.8496   20.2488   24.9106 H   0  0  0  0  0  0  0  0  0  0  0  0
   19.2430   18.4849   23.7442 C   0  0  0  0  0  0  0  0  0  0  0  0
   18.5235   18.5824   22.9203 H   0  0  0  0  0  0  0  0  0  0  0  0
   18.6926   17.9849   24.5530 H   0  0  0  0  0  0  0  0  0  0  0  0
   20.4294   17.5651   23.3537 C   0  0  0  0  0  0  0  0  0  0  0  0
   20.2719   16.5977   23.8502 H   0  0  0  0  0  0  0  0  0  0  0  0
   21.3802   17.9440   23.7517 H   0  0  0  0  0  0  0  0  0  0  0  0
   20.1783   22.1792   23.8372 O   0  0  0  0  0  0  0  0  0  0  0  0
   19.3954   22.3831   24.3901 H   0  0  0  0  0  0  0  0  0  0  0  0
  1  2  1  0  0  0  0
  1  3  1  0  0  0  0
  1  4  1  0  0  0  0
  4  5  1  0  0  0  0
  4  6  1  0  0  0  0
  4  7  1  0  0  0  0
  7  8  1  0  0  0  0
  7  9  1  0  0  0  0
  7 10  1  0  0  0  0
 10 11  1  0  0  0  0
 10 12  1  0  0  0  0
 10 13  1  0  0  0  0
 13 14  1  0  0  0  0
 13 15  1  0  0  0  0
 15 16  1  0  0  0  0
 15 17  1  0  0  0  0
 15 18  1  0  0  0  0
 18 19  1  0  0  0  0
 18 20  1  0  0  0  0
  1 21  1  0  0  0  0
 18 21  1  0  0  0  0
 21 22  1  0  0  0  0
 21 23  1  0  0  0  0
 13 24  1  0  0  0  0
 24 25  1  0  0  0  0
M  END
> <VConfSearch Rank>
609

> <Conf_Id>
30

> <Delta U+W>
0.000

> <U+W>
10.913

> <U>
13.140

> <W>
-2.227

> <W(PB)>
-4.367

> <W(SA)>
2.140

> <Valence>
19.155

> <Coulomb>
-8.157

> <VdW>
2.142

> <VdW6>
-11.576

> <VdW12>
13.718

> <Bond>
0.294

> <Angle>
3.547

> <Pdih>
15.314

> <Idih>
0.000

> <Tether>
0.000

$$$$
VeraChem MOL file


 25 25  0  0  0  0  0  0  0  0999 V2000     
   18.4391   18.5538   21.8533 C   0  0  0  0  0  0  0  0  0  0  0  0
   18.0875   17.5689   21.5170 H   0  0  0  0  0  0  0  0  0  0  0  0
   17.6164   19.2505   21.6423 H   0  0  0  0  0  0  0  0  0  0  0  0
   19.6555   18.9631   20.9867 C   0  0  0  0  0  0  0  0  0  0  0  0
   19.4211   18.7241   19.9404 H   0  0  0  0  0  0  0  0  0  0  0  0
   19.7688   20.0533   21.0028 H   0  0  0  0  0  0  0  0  0  0  0  0
   20.9814   18.2584   21.3701 C   0  0  0  0  0  0  0  0  0  0  0  0
   21.3827   17.7537   20.4808 H   0  0  0  0  0  0  0  0  0  0  0  0
   20.8045   17.4532   22.0926 H   0  0  0  0  0  0  0  0  0  0  0  0
   22.0726   19.2161   21.9120 C   0  0  0  0  0  0  0  0  0  0  0  0
   22.8895   18.6112   22.3275 H   0  0  0  0  0  0  0  0  0  0  0  0
   22.5048   19.7649   21.0651 H   0  0  0  0  0  0  0  0  0  0  0  0
   21.6274   20.2578   22.9688 C   0  0  0  0  0  0  0  0  0  0  0  0
   21.0050   21.0215   22.4837 H   0  0  0  0  0  0  0  0  0  0  0  0
   20.8492   19.6788   24.1756 C   0  0  0  0  0  0  0  0  0  0  0  0
   21.1893   18.6586   24.3948 H   0  0  0  0  0  0  0  0  0  0  0  0
   21.1098   20.2686   25.0645 H   0  0  0  0  0  0  0  0  0  0  0  0
   19.3008   19.7305   24.0430 C   0  0  0  0  0  0  0  0  0  0  0  0
   18.9753   20.6490   23.5362 H   0  0  0  0  0  0  0  0  0  0  0  0
   18.8957   19.8008   25.0619 H   0  0  0  0  0  0  0  0  0  0  0  0
   18.6559   18.4837   23.3884 C   0  0  0  0  0  0  0  0  0  0  0  0
   17.6670   18.3371   23.8442 H   0  0  0  0  0  0  0  0  0  0  0  0
   19.2230   17.5835   23.6576 H   0  0  0  0  0  0  0  0  0  0  0  0
   22.8045   20.8916   23.4556 O   0  0  0  0  0  0  0  0  0  0  0  0
   22.5117   21.6028   24.0629 H   0  0  0  0  0  0  0  0  0  0  0  0
  1  2  1  0  0  0  0
  1  3  1  0  0  0  0
  1  4  1  0  0  0  0
  4  5  1  0  0  0  0
  4  6  1  0  0  0  0
  4  7  1  0  0  0  0
  7  8  1  0  0  0  0
  7  9  1  0  0  0  0
  7 10  1  0  0  0  0
 10 11  1  0  0  0  0
 10 12  1  0  0  0  0
 10 13  1  0  0  0  0
 13 14  1  0  0  0  0
 13 15  1  0  0  0  0
 15 16  1  0  0  0  0
 15 17  1  0  0  0  0
 15 18  1  0  0  0  0
 18 19  1  0  0  0  0
 18 20  1  0  0  0  0
  1 21  1  0  0  0  0
 18 21  1  0  0  0  0
 21 22  1  0  0  0  0
 21 23  1  0  0  0  0
 13 24  1  0  0  0  0
 24 25  1  0  0  0  0
M  END
> <VConfSearch Rank>
610

> <Conf_Id>
162

> <Delta U+W>
0.219

> <U+W>
11.132

> <U>
13.296

> <W>
-2.164

> <W(PB)>
-4.311

> <W(SA)>
2.148

> <Valence>
18.607

> <Coulomb>
-8.339

> <VdW>
3.028

> <VdW6>
-12.271

> <VdW12>
15.299

> <Bond>
0.423

> <Angle>
4.488

> <Pdih>
13.696

> <Idih>
0.000

> <Tether>
0.000

$$$$
VeraChem MOL file


 25 25  0  0  0  0  0  0  0  0999 V2000     
   21.5017   20.2732   21.4035 C   0  0  0  0  0  0  0  0  0  0  0  0
   20.7019   21.0237   21.3677 H   0  0  0  0  0  0  0  0  0  0  0  0
   22.3014   20.6865   20.7738 H   0  0  0  0  0  0  0  0  0  0  0  0
   22.0464   20.1498   22.8484 C   0  0  0  0  0  0  0  0  0  0  0  0
   22.5704   19.1946   22.9872 H   0  0  0  0  0  0  0  0  0  0  0  0
   22.8174   20.9238   22.9653 H   0  0  0  0  0  0  0  0  0  0  0  0
   20.9993   20.3844   23.9728 C   0  0  0  0  0  0  0  0  0  0  0  0
   20.2882   21.1737   23.6945 H   0  0  0  0  0  0  0  0  0  0  0  0
   21.5474   20.7798   24.8391 H   0  0  0  0  0  0  0  0  0  0  0  0
   20.2523   19.1143   24.4565 C   0  0  0  0  0  0  0  0  0  0  0  0
   20.9193   18.2450   24.4041 H   0  0  0  0  0  0  0  0  0  0  0  0
   20.0351   19.2397   25.5253 H   0  0  0  0  0  0  0  0  0  0  0  0
   18.9003   18.8060   23.7649 C   0  0  0  0  0  0  0  0  0  0  0  0
   18.1725   19.5602   24.0974 H   0  0  0  0  0  0  0  0  0  0  0  0
   18.9031   18.8205   22.2177 C   0  0  0  0  0  0  0  0  0  0  0  0
   17.9599   18.3857   21.8623 H   0  0  0  0  0  0  0  0  0  0  0  0
   18.8716   19.8592   21.8718 H   0  0  0  0  0  0  0  0  0  0  0  0
   20.0830   18.0547   21.5628 C   0  0  0  0  0  0  0  0  0  0  0  0
   19.6762   17.2814   20.8973 H   0  0  0  0  0  0  0  0  0  0  0  0
   20.6564   17.5011   22.3157 H   0  0  0  0  0  0  0  0  0  0  0  0
   21.0396   18.9495   20.7383 C   0  0  0  0  0  0  0  0  0  0  0  0
   20.5549   19.1979   19.7843 H   0  0  0  0  0  0  0  0  0  0  0  0
   21.9259   18.3554   20.4770 H   0  0  0  0  0  0  0  0  0  0  0  0
   18.4694   17.5235   24.2052 O   0  0  0  0  0  0  0  0  0  0  0  0
   17.6171   17.3437   23.7577 H   0  0  0  0  0  0  0  0  0  0  0  0
  1  2  1  0  0  0  0
  1  3  1  0  0  0  0
  1  4  1  0  0  0  0
  4  5  1  0  0  0  0
  4  6  1  0  0  0  0
  4  7  1  0  0  0  0
  7  8  1  0  0  0  0
  7  9  1  0  0  0  0
  7 10  1  0  0  0  0
 10 11  1  0  0  0  0
 10 12  1  0  0  0  0
 10 13  1  0  0  0  0
 13 14  1  0  0  0  0
 13 15  1  0  0  0  0
 15 16  1  0  0  0  0
 15 17  1  0  0  0  0
 15 18  1  0  0  0  0
 18 19  1  0  0  0  0
 18 20  1  0  0  0  0
  1 21  1  0  0  0  0
 18 21  1  0  0  0  0
 21 22  1  0  0  0  0
 21 23  1  0  0  0  0
 13 24  1  0  0  0  0
 24 25  1  0  0  0  0
M  END
> <VConfSearch Rank>
611

> <Conf_Id>
155

> <Delta U+W>
0.339

> <U+W>
11.252

> <U>
13.420

> <W>
-2.167

> <W(PB)>
-4.325

> <W(SA)>
2.157

> <Valence>
18.609

> <Coulomb>
-8.052

> <VdW>
2.863

> <VdW6>
-12.524

> <VdW12>
15.387

> <Bond>
0.430

> <Angle>
4.724

> <Pdih>
13.455

> <Idih>
0.000

> <Tether>
0.000

$$$$
VeraChem MOL file


 25 25  0  0  0  0  0  0  0  0999 V2000     
   19.5083   20.8906   21.9474 C   0  0  0  0  0  0  0  0  0  0  0  0
   19.3506   20.8841   20.8605 H   0  0  0  0  0  0  0  0  0  0  0  0
   19.1158   21.8564   22.2939 H   0  0  0  0  0  0  0  0  0  0  0  0
   18.6314   19.7882   22.5976 C   0  0  0  0  0  0  0  0  0  0  0  0
   18.6974   19.8696   23.6872 H   0  0  0  0  0  0  0  0  0  0  0  0
   17.5814   20.0311   22.3851 H   0  0  0  0  0  0  0  0  0  0  0  0
   18.8630   18.3193   22.1373 C   0  0  0  0  0  0  0  0  0  0  0  0
   18.2479   18.1542   21.2423 H   0  0  0  0  0  0  0  0  0  0  0  0
   18.4600   17.6394   22.9002 H   0  0  0  0  0  0  0  0  0  0  0  0
   20.3100   17.8825   21.7803 C   0  0  0  0  0  0  0  0  0  0  0  0
   20.2512   16.8749   21.3483 H   0  0  0  0  0  0  0  0  0  0  0  0
   20.6730   18.4893   20.9462 H   0  0  0  0  0  0  0  0  0  0  0  0
   21.3659   17.8495   22.9241 C   0  0  0  0  0  0  0  0  0  0  0  0
   22.3605   17.9396   22.4643 H   0  0  0  0  0  0  0  0  0  0  0  0
   21.2566   18.9229   24.0360 C   0  0  0  0  0  0  0  0  0  0  0  0
   20.2972   18.8095   24.5490 H   0  0  0  0  0  0  0  0  0  0  0  0
   21.9948   18.6730   24.8094 H   0  0  0  0  0  0  0  0  0  0  0  0
   21.5010   20.4101   23.6397 C   0  0  0  0  0  0  0  0  0  0  0  0
   22.5827   20.5925   23.6983 H   0  0  0  0  0  0  0  0  0  0  0  0
   21.0530   21.0593   24.4040 H   0  0  0  0  0  0  0  0  0  0  0  0
   21.0382   20.8804   22.2356 C   0  0  0  0  0  0  0  0  0  0  0  0
   21.5755   20.3151   21.4677 H   0  0  0  0  0  0  0  0  0  0  0  0
   21.3989   21.9086   22.0955 H   0  0  0  0  0  0  0  0  0  0  0  0
   21.2767   16.5809   23.5633 O   0  0  0  0  0  0  0  0  0  0  0  0
   21.3978   15.9036   22.8663 H   0  0  0  0  0  0  0  0  0  0  0  0
  1  2  1  0  0  0  0
  1  3  1  0  0  0  0
  1  4  1  0  0  0  0
  4  5  1  0  0  0  0
  4  6  1  0  0  0  0
  4  7  1  0  0  0  0
  7  8  1  0  0  0  0
  7  9  1  0  0  0  0
  7 10  1  0  0  0  0
 10 11  1  0  0  0  0
 10 12  1  0  0  0  0
 10 13  1  0  0  0  0
 13 14  1  0  0  0  0
 13 15  1  0  0  0  0
 15 16  1  0  0  0  0
 15 17  1  0  0  0  0
 15 18  1  0  0  0  0
 18 19  1  0  0  0  0
 18 20  1  0  0  0  0
  1 21  1  0  0  0  0
 18 21  1  0  0  0  0
 21 22  1  0  0  0  0
 21 23  1  0  0  0  0
 13 24  1  0  0  0  0
 24 25  1  0  0  0  0
M  END
> <VConfSearch Rank>
612

> <Conf_Id>
146

> <Delta U+W>
2.553

> <U+W>
13.466

> <U>
15.643

> <W>
-2.176

> <W(PB)>
-4.307

> <W(SA)>
2.131

> <Valence>
18.916

> <Coulomb>
-7.506

> <VdW>
4.232

> <VdW6>
-13.632

> <VdW12>
17.864

> <Bond>
0.735

> <Angle>
9.140

> <Pdih>
9.042

> <Idih>
0.000

> <Tether>
0.000

$$$$
VeraChem MOL file


 25 25  0  0  0  0  0  0  0  0999 V2000     
   22.3800   19.2182   22.4637 C   0  0  0  0  0  0  0  0  0  0  0  0
   22.9938   18.3697   22.7951 H   0  0  0  0  0  0  0  0  0  0  0  0
   23.0865   19.9514   22.0511 H   0  0  0  0  0  0  0  0  0  0  0  0
   21.7025   19.8709   23.6946 C   0  0  0  0  0  0  0  0  0  0  0  0
   22.5035   20.2219   24.3593 H   0  0  0  0  0  0  0  0  0  0  0  0
   21.1710   20.7824   23.3985 H   0  0  0  0  0  0  0  0  0  0  0  0
   20.7797   18.9512   24.5331 C   0  0  0  0  0  0  0  0  0  0  0  0
   20.4724   19.5152   25.4244 H   0  0  0  0  0  0  0  0  0  0  0  0
   21.3605   18.0971   24.9067 H   0  0  0  0  0  0  0  0  0  0  0  0
   19.4963   18.4231   23.8404 C   0  0  0  0  0  0  0  0  0  0  0  0
   19.7297   17.5514   23.2210 H   0  0  0  0  0  0  0  0  0  0  0  0
   18.8416   18.0307   24.6303 H   0  0  0  0  0  0  0  0  0  0  0  0
   18.7151   19.4752   23.0115 C   0  0  0  0  0  0  0  0  0  0  0  0
   18.9985   20.4850   23.3374 H   0  0  0  0  0  0  0  0  0  0  0  0
   18.9189   19.3540   21.4800 C   0  0  0  0  0  0  0  0  0  0  0  0
   18.6664   18.3337   21.1624 H   0  0  0  0  0  0  0  0  0  0  0  0
   18.1868   20.0075   20.9879 H   0  0  0  0  0  0  0  0  0  0  0  0
   20.3197   19.7317   20.9263 C   0  0  0  0  0  0  0  0  0  0  0  0
   20.5807   20.7630   21.1967 H   0  0  0  0  0  0  0  0  0  0  0  0
   20.2411   19.7342   19.8305 H   0  0  0  0  0  0  0  0  0  0  0  0
   21.4573   18.7498   21.3088 C   0  0  0  0  0  0  0  0  0  0  0  0
   22.0947   18.6049   20.4257 H   0  0  0  0  0  0  0  0  0  0  0  0
   21.0518   17.7536   21.5181 H   0  0  0  0  0  0  0  0  0  0  0  0
   17.3267   19.2983   23.2689 O   0  0  0  0  0  0  0  0  0  0  0  0
   16.8560   20.0078   22.7837 H   0  0  0  0  0  0  0  0  0  0  0  0
  1  2  1  0  0  0  0
  1  3  1  0  0  0  0
  1  4  1  0  0  0  0
  4  5  1  0  0  0  0
  4  6  1  0  0  0  0
  4  7  1  0  0  0  0
  7  8  1  0  0  0  0
  7  9  1  0  0  0  0
  7 10  1  0  0  0  0
 10 11  1  0  0  0  0
 10 12  1  0  0  0  0
 10 13  1  0  0  0  0
 13 14  1  0  0  0  0
 13 15  1  0  0  0  0
 15 16  1  0  0  0  0
 15 17  1  0  0  0  0
 15 18  1  0  0  0  0
 18 19  1  0  0  0  0
 18 20  1  0  0  0  0
  1 21  1  0  0  0  0
 18 21  1  0  0  0  0
 21 22  1  0  0  0  0
 21 23  1  0  0  0  0
 13 24  1  0  0  0  0
 24 25  1  0  0  0  0
M  END
> <VConfSearch Rank>
613

> <Conf_Id>
62

> <Delta U+W>
-1.779

> <U+W>
9.134

> <U>
11.364

> <W>
-2.230

> <W(PB)>
-4.359

> <W(SA)>
2.129

> <Valence>
16.582

> <Coulomb>
-8.150

> <VdW>
2.933

> <VdW6>
-12.531

> <VdW12>
15.464

> <Bond>
0.439

> <Angle>
5.099

> <Pdih>
11.044

> <Idih>
0.000

> <Tether>
0.000

$$$$
VeraChem MOL file


 25 25  0  0  0  0  0  0  0  0999 V2000     
   19.9973   20.9858   22.2811 C   0  0  0  0  0  0  0  0  0  0  0  0
   19.1337   20.4406   21.8834 H   0  0  0  0  0  0  0  0  0  0  0  0
   19.7953   22.0381   22.0392 H   0  0  0  0  0  0  0  0  0  0  0  0
   21.2872   20.5794   21.5258 C   0  0  0  0  0  0  0  0  0  0  0  0
   21.1391   20.8262   20.4656 H   0  0  0  0  0  0  0  0  0  0  0  0
   22.1199   21.2108   21.8640 H   0  0  0  0  0  0  0  0  0  0  0  0
   21.7169   19.0925   21.6105 C   0  0  0  0  0  0  0  0  0  0  0  0
   22.2766   18.9058   22.5340 H   0  0  0  0  0  0  0  0  0  0  0  0
   22.4467   18.9203   20.8076 H   0  0  0  0  0  0  0  0  0  0  0  0
   20.5685   18.0603   21.4515 C   0  0  0  0  0  0  0  0  0  0  0  0
   19.7246   18.4910   20.8986 H   0  0  0  0  0  0  0  0  0  0  0  0
   20.9473   17.2495   20.8155 H   0  0  0  0  0  0  0  0  0  0  0  0
   20.0798   17.4188   22.7747 C   0  0  0  0  0  0  0  0  0  0  0  0
   20.9529   17.0070   23.3011 H   0  0  0  0  0  0  0  0  0  0  0  0
   19.3233   18.3511   23.7538 C   0  0  0  0  0  0  0  0  0  0  0  0
   18.4431   18.7876   23.2664 H   0  0  0  0  0  0  0  0  0  0  0  0
   18.9236   17.7160   24.5554 H   0  0  0  0  0  0  0  0  0  0  0  0
   20.1956   19.4472   24.4225 C   0  0  0  0  0  0  0  0  0  0  0  0
   21.2489   19.1448   24.4359 H   0  0  0  0  0  0  0  0  0  0  0  0
   19.9144   19.5096   25.4826 H   0  0  0  0  0  0  0  0  0  0  0  0
   20.0449   20.8696   23.8251 C   0  0  0  0  0  0  0  0  0  0  0  0
   20.8518   21.5064   24.2124 H   0  0  0  0  0  0  0  0  0  0  0  0
   19.1130   21.3006   24.2160 H   0  0  0  0  0  0  0  0  0  0  0  0
   19.2036   16.3504   22.4384 O   0  0  0  0  0  0  0  0  0  0  0  0
   19.7140   15.7324   21.8747 H   0  0  0  0  0  0  0  0  0  0  0  0
  1  2  1  0  0  0  0
  1  3  1  0  0  0  0
  1  4  1  0  0  0  0
  4  5  1  0  0  0  0
  4  6  1  0  0  0  0
  4  7  1  0  0  0  0
  7  8  1  0  0  0  0
  7  9  1  0  0  0  0
  7 10  1  0  0  0  0
 10 11  1  0  0  0  0
 10 12  1  0  0  0  0
 10 13  1  0  0  0  0
 13 14  1  0  0  0  0
 13 15  1  0  0  0  0
 15 16  1  0  0  0  0
 15 17  1  0  0  0  0
 15 18  1  0  0  0  0
 18 19  1  0  0  0  0
 18 20  1  0  0  0  0
  1 21  1  0  0  0  0
 18 21  1  0  0  0  0
 21 22  1  0  0  0  0
 21 23  1  0  0  0  0
 13 24  1  0  0  0  0
 24 25  1  0  0  0  0
M  END
> <VConfSearch Rank>
614

> <Conf_Id>
121

> <Delta U+W>
-1.283

> <U+W>
9.630

> <U>
11.876

> <W>
-2.246

> <W(PB)>
-4.376

> <W(SA)>
2.130

> <Valence>
17.153

> <Coulomb>
-7.966

> <VdW>
2.689

> <VdW6>
-12.458

> <VdW12>
15.147

> <Bond>
0.421

> <Angle>
5.258

> <Pdih>
11.475

> <Idih>
0.000

> <Tether>
0.000

$$$$
VeraChem MOL file


 25 25  0  0  0  0  0  0  0  0999 V2000     
   18.8740   19.4889   21.5425 C   0  0  0  0  0  0  0  0  0  0  0  0
   19.6385   20.1556   21.1274 H   0  0  0  0  0  0  0  0  0  0  0  0
   18.0116   19.6060   20.8724 H   0  0  0  0  0  0  0  0  0  0  0  0
   18.4360   19.9774   22.9458 C   0  0  0  0  0  0  0  0  0  0  0  0
   18.0301   20.9915   22.8289 H   0  0  0  0  0  0  0  0  0  0  0  0
   17.5982   19.3613   23.2995 H   0  0  0  0  0  0  0  0  0  0  0  0
   19.5245   20.0274   24.0483 C   0  0  0  0  0  0  0  0  0  0  0  0
   19.6531   19.0406   24.5075 H   0  0  0  0  0  0  0  0  0  0  0  0
   19.1357   20.6588   24.8589 H   0  0  0  0  0  0  0  0  0  0  0  0
   20.8953   20.6025   23.6014 C   0  0  0  0  0  0  0  0  0  0  0  0
   20.7837   21.2643   22.7341 H   0  0  0  0  0  0  0  0  0  0  0  0
   21.2597   21.2481   24.4115 H   0  0  0  0  0  0  0  0  0  0  0  0
   21.9955   19.5439   23.3390 C   0  0  0  0  0  0  0  0  0  0  0  0
   22.0716   18.9025   24.2288 H   0  0  0  0  0  0  0  0  0  0  0  0
   21.7949   18.6344   22.1004 C   0  0  0  0  0  0  0  0  0  0  0  0
   21.7065   19.2394   21.1897 H   0  0  0  0  0  0  0  0  0  0  0  0
   22.7155   18.0503   21.9713 H   0  0  0  0  0  0  0  0  0  0  0  0
   20.6228   17.6233   22.2150 C   0  0  0  0  0  0  0  0  0  0  0  0
   20.3954   17.4157   23.2668 H   0  0  0  0  0  0  0  0  0  0  0  0
   20.9609   16.6588   21.8118 H   0  0  0  0  0  0  0  0  0  0  0  0
   19.3345   18.0130   21.4463 C   0  0  0  0  0  0  0  0  0  0  0  0
   18.5152   17.3556   21.7674 H   0  0  0  0  0  0  0  0  0  0  0  0
   19.4967   17.7878   20.3833 H   0  0  0  0  0  0  0  0  0  0  0  0
   23.2252   20.2380   23.1699 O   0  0  0  0  0  0  0  0  0  0  0  0
   23.9234   19.5575   23.0729 H   0  0  0  0  0  0  0  0  0  0  0  0
  1  2  1  0  0  0  0
  1  3  1  0  0  0  0
  1  4  1  0  0  0  0
  4  5  1  0  0  0  0
  4  6  1  0  0  0  0
  4  7  1  0  0  0  0
  7  8  1  0  0  0  0
  7  9  1  0  0  0  0
  7 10  1  0  0  0  0
 10 11  1  0  0  0  0
 10 12  1  0  0  0  0
 10 13  1  0  0  0  0
 13 14  1  0  0  0  0
 13 15  1  0  0  0  0
 15 16  1  0  0  0  0
 15 17  1  0  0  0  0
 15 18  1  0  0  0  0
 18 19  1  0  0  0  0
 18 20  1  0  0  0  0
  1 21  1  0  0  0  0
 18 21  1  0  0  0  0
 21 22  1  0  0  0  0
 21 23  1  0  0  0  0
 13 24  1  0  0  0  0
 24 25  1  0  0  0  0
M  END
> <VConfSearch Rank>
615

> <Conf_Id>
24

> <Delta U+W>
-1.236

> <U+W>
9.678

> <U>
11.876

> <W>
-2.199

> <W(PB)>
-4.335

> <W(SA)>
2.137

> <Valence>
17.153

> <Coulomb>
-7.966

> <VdW>
2.689

> <VdW6>
-12.458

> <VdW12>
15.147

> <Bond>
0.421

> <Angle>
5.258

> <Pdih>
11.475

> <Idih>
0.000

> <Tether>
0.000

$$$$
VeraChem MOL file


 25 25  0  0  0  0  0  0  0  0999 V2000     
   19.3092   20.4973   21.2359 C   0  0  0  0  0  0  0  0  0  0  0  0
   19.6402   20.5954   20.1930 H   0  0  0  0  0  0  0  0  0  0  0  0
   18.4954   21.2249   21.3589 H   0  0  0  0  0  0  0  0  0  0  0  0
   18.7162   19.0783   21.4428 C   0  0  0  0  0  0  0  0  0  0  0  0
   18.0912   19.0482   22.3443 H   0  0  0  0  0  0  0  0  0  0  0  0
   18.0182   18.8996   20.6133 H   0  0  0  0  0  0  0  0  0  0  0  0
   19.7354   17.9124   21.4664 C   0  0  0  0  0  0  0  0  0  0  0  0
   20.5698   18.1098   20.7798 H   0  0  0  0  0  0  0  0  0  0  0  0
   19.2224   17.0321   21.0552 H   0  0  0  0  0  0  0  0  0  0  0  0
   20.2517   17.5148   22.8783 C   0  0  0  0  0  0  0  0  0  0  0  0
   19.4537   17.6071   23.6261 H   0  0  0  0  0  0  0  0  0  0  0  0
   20.4912   16.4436   22.8339 H   0  0  0  0  0  0  0  0  0  0  0  0
   21.5232   18.2647   23.3450 C   0  0  0  0  0  0  0  0  0  0  0  0
   22.1078   18.5453   22.4588 H   0  0  0  0  0  0  0  0  0  0  0  0
   21.2708   19.5244   24.2117 C   0  0  0  0  0  0  0  0  0  0  0  0
   20.9262   19.2180   25.2081 H   0  0  0  0  0  0  0  0  0  0  0  0
   22.2379   20.0208   24.3662 H   0  0  0  0  0  0  0  0  0  0  0  0
   20.2705   20.5682   23.6542 C   0  0  0  0  0  0  0  0  0  0  0  0
   20.3743   21.4886   24.2447 H   0  0  0  0  0  0  0  0  0  0  0  0
   19.2437   20.2318   23.8393 H   0  0  0  0  0  0  0  0  0  0  0  0
   20.4824   20.9109   22.1579 C   0  0  0  0  0  0  0  0  0  0  0  0
   21.4165   20.4778   21.7818 H   0  0  0  0  0  0  0  0  0  0  0  0
   20.6216   21.9965   22.0627 H   0  0  0  0  0  0  0  0  0  0  0  0
   22.3103   17.3703   24.1210 O   0  0  0  0  0  0  0  0  0  0  0  0
   21.7630   17.1180   24.8929 H   0  0  0  0  0  0  0  0  0  0  0  0
  1  2  1  0  0  0  0
  1  3  1  0  0  0  0
  1  4  1  0  0  0  0
  4  5  1  0  0  0  0
  4  6  1  0  0  0  0
  4  7  1  0  0  0  0
  7  8  1  0  0  0  0
  7  9  1  0  0  0  0
  7 10  1  0  0  0  0
 10 11  1  0  0  0  0
 10 12  1  0  0  0  0
 10 13  1  0  0  0  0
 13 14  1  0  0  0  0
 13 15  1  0  0  0  0
 15 16  1  0  0  0  0
 15 17  1  0  0  0  0
 15 18  1  0  0  0  0
 18 19  1  0  0  0  0
 18 20  1  0  0  0  0
  1 21  1  0  0  0  0
 18 21  1  0  0  0  0
 21 22  1  0  0  0  0
 21 23  1  0  0  0  0
 13 24  1  0  0  0  0
 24 25  1  0  0  0  0
M  END
> <VConfSearch Rank>
616

> <Conf_Id>
167

> <Delta U+W>
0.388

> <U+W>
11.301

> <U>
13.202

> <W>
-1.901

> <W(PB)>
-4.065

> <W(SA)>
2.163

> <Valence>
18.957

> <Coulomb>
-8.753

> <VdW>
2.998

> <VdW6>
-12.294

> <VdW12>
15.292

> <Bond>
0.419

> <Angle>
4.543

> <Pdih>
13.996

> <Idih>
0.000

> <Tether>
0.000

$$$$
VeraChem MOL file


 25 25  0  0  0  0  0  0  0  0999 V2000     
   18.2446   19.2616   22.6173 C   0  0  0  0  0  0  0  0  0  0  0  0
   17.6635   18.3337   22.5285 H   0  0  0  0  0  0  0  0  0  0  0  0
   17.5032   20.0682   22.6994 H   0  0  0  0  0  0  0  0  0  0  0  0
   19.0397   19.4838   21.3044 C   0  0  0  0  0  0  0  0  0  0  0  0
   19.4557   18.5379   20.9397 H   0  0  0  0  0  0  0  0  0  0  0  0
   18.3134   19.7771   20.5340 H   0  0  0  0  0  0  0  0  0  0  0  0
   20.1407   20.5740   21.3679 C   0  0  0  0  0  0  0  0  0  0  0  0
   19.9165   21.3165   22.1446 H   0  0  0  0  0  0  0  0  0  0  0  0
   20.1090   21.1308   20.4214 H   0  0  0  0  0  0  0  0  0  0  0  0
   21.5874   20.0314   21.5257 C   0  0  0  0  0  0  0  0  0  0  0  0
   21.8018   19.3226   20.7152 H   0  0  0  0  0  0  0  0  0  0  0  0
   22.2746   20.8738   21.3717 H   0  0  0  0  0  0  0  0  0  0  0  0
   21.9448   19.3765   22.8832 C   0  0  0  0  0  0  0  0  0  0  0  0
   21.6989   20.0746   23.6946 H   0  0  0  0  0  0  0  0  0  0  0  0
   21.2462   18.0147   23.1326 C   0  0  0  0  0  0  0  0  0  0  0  0
   20.9387   17.5694   22.1810 H   0  0  0  0  0  0  0  0  0  0  0  0
   21.9718   17.3008   23.5448 H   0  0  0  0  0  0  0  0  0  0  0  0
   20.0460   18.0638   24.1134 C   0  0  0  0  0  0  0  0  0  0  0  0
   20.4467   18.1167   25.1350 H   0  0  0  0  0  0  0  0  0  0  0  0
   19.5003   17.1122   24.0567 H   0  0  0  0  0  0  0  0  0  0  0  0
   19.0482   19.2367   23.9418 C   0  0  0  0  0  0  0  0  0  0  0  0
   19.5517   20.1973   24.0996 H   0  0  0  0  0  0  0  0  0  0  0  0
   18.3212   19.1682   24.7625 H   0  0  0  0  0  0  0  0  0  0  0  0
   23.3514   19.1635   22.8931 O   0  0  0  0  0  0  0  0  0  0  0  0
   23.5761   18.8138   23.7806 H   0  0  0  0  0  0  0  0  0  0  0  0
  1  2  1  0  0  0  0
  1  3  1  0  0  0  0
  1  4  1  0  0  0  0
  4  5  1  0  0  0  0
  4  6  1  0  0  0  0
  4  7  1  0  0  0  0
  7  8  1  0  0  0  0
  7  9  1  0  0  0  0
  7 10  1  0  0  0  0
 10 11  1  0  0  0  0
 10 12  1  0  0  0  0
 10 13  1  0  0  0  0
 13 14  1  0  0  0  0
 13 15  1  0  0  0  0
 15 16  1  0  0  0  0
 15 17  1  0  0  0  0
 15 18  1  0  0  0  0
 18 19  1  0  0  0  0
 18 20  1  0  0  0  0
  1 21  1  0  0  0  0
 18 21  1  0  0  0  0
 21 22  1  0  0  0  0
 21 23  1  0  0  0  0
 13 24  1  0  0  0  0
 24 25  1  0  0  0  0
M  END
> <VConfSearch Rank>
617

> <Conf_Id>
60

> <Delta U+W>
-1.838

> <U+W>
9.075

> <U>
11.150

> <W>
-2.074

> <W(PB)>
-4.196

> <W(SA)>
2.121

> <Valence>
16.582

> <Coulomb>
-8.361

> <VdW>
2.928

> <VdW6>
-12.539

> <VdW12>
15.467

> <Bond>
0.441

> <Angle>
5.093

> <Pdih>
11.049

> <Idih>
0.000

> <Tether>
0.000

$$$$
VeraChem MOL file


 25 25  0  0  0  0  0  0  0  0999 V2000     
   21.2087   20.9473   23.2722 C   0  0  0  0  0  0  0  0  0  0  0  0
   22.2573   20.9751   23.5982 H   0  0  0  0  0  0  0  0  0  0  0  0
   20.8346   21.9734   23.3910 H   0  0  0  0  0  0  0  0  0  0  0  0
   20.3974   20.0457   24.2364 C   0  0  0  0  0  0  0  0  0  0  0  0
   20.4684   20.4929   25.2373 H   0  0  0  0  0  0  0  0  0  0  0  0
   19.3302   20.0890   23.9907 H   0  0  0  0  0  0  0  0  0  0  0  0
   20.8698   18.5748   24.3562 C   0  0  0  0  0  0  0  0  0  0  0  0
   20.2794   18.1013   25.1525 H   0  0  0  0  0  0  0  0  0  0  0  0
   21.9108   18.5557   24.7060 H   0  0  0  0  0  0  0  0  0  0  0  0
   20.7496   17.6939   23.0857 C   0  0  0  0  0  0  0  0  0  0  0  0
   21.5974   17.8763   22.4177 H   0  0  0  0  0  0  0  0  0  0  0  0
   20.8734   16.6499   23.4030 H   0  0  0  0  0  0  0  0  0  0  0  0
   19.4163   17.8435   22.3083 C   0  0  0  0  0  0  0  0  0  0  0  0
   18.6506   18.2799   22.9637 H   0  0  0  0  0  0  0  0  0  0  0  0
   19.5273   18.6974   21.0206 C   0  0  0  0  0  0  0  0  0  0  0  0
   20.3150   18.2819   20.3786 H   0  0  0  0  0  0  0  0  0  0  0  0
   18.5920   18.5748   20.4585 H   0  0  0  0  0  0  0  0  0  0  0  0
   19.7636   20.2210   21.2075 C   0  0  0  0  0  0  0  0  0  0  0  0
   18.9647   20.6674   21.8136 H   0  0  0  0  0  0  0  0  0  0  0  0
   19.6645   20.6844   20.2164 H   0  0  0  0  0  0  0  0  0  0  0  0
   21.1616   20.6000   21.7614 C   0  0  0  0  0  0  0  0  0  0  0  0
   21.5157   21.4859   21.2164 H   0  0  0  0  0  0  0  0  0  0  0  0
   21.8946   19.8219   21.5206 H   0  0  0  0  0  0  0  0  0  0  0  0
   18.9796   16.5464   21.9196 O   0  0  0  0  0  0  0  0  0  0  0  0
   18.8462   16.0360   22.7455 H   0  0  0  0  0  0  0  0  0  0  0  0
  1  2  1  0  0  0  0
  1  3  1  0  0  0  0
  1  4  1  0  0  0  0
  4  5  1  0  0  0  0
  4  6  1  0  0  0  0
  4  7  1  0  0  0  0
  7  8  1  0  0  0  0
  7  9  1  0  0  0  0
  7 10  1  0  0  0  0
 10 11  1  0  0  0  0
 10 12  1  0  0  0  0
 10 13  1  0  0  0  0
 13 14  1  0  0  0  0
 13 15  1  0  0  0  0
 15 16  1  0  0  0  0
 15 17  1  0  0  0  0
 15 18  1  0  0  0  0
 18 19  1  0  0  0  0
 18 20  1  0  0  0  0
  1 21  1  0  0  0  0
 18 21  1  0  0  0  0
 21 22  1  0  0  0  0
 21 23  1  0  0  0  0
 13 24  1  0  0  0  0
 24 25  1  0  0  0  0
M  END
> <VConfSearch Rank>
618

> <Conf_Id>
129

> <Delta U+W>
-1.846

> <U+W>
9.067

> <U>
11.150

> <W>
-2.083

> <W(PB)>
-4.217

> <W(SA)>
2.134

> <Valence>
16.583

> <Coulomb>
-8.361

> <VdW>
2.928

> <VdW6>
-12.539

> <VdW12>
15.467

> <Bond>
0.441

> <Angle>
5.093

> <Pdih>
11.049

> <Idih>
0.000

> <Tether>
0.000

$$$$
VeraChem MOL file


 25 25  0  0  0  0  0  0  0  0999 V2000     
   20.5583   18.3794   20.7855 C   0  0  0  0  0  0  0  0  0  0  0  0
   21.5681   18.1312   20.4318 H   0  0  0  0  0  0  0  0  0  0  0  0
   19.8791   18.0811   19.9752 H   0  0  0  0  0  0  0  0  0  0  0  0
   20.4365   19.9153   20.9485 C   0  0  0  0  0  0  0  0  0  0  0  0
   20.6088   20.3623   19.9599 H   0  0  0  0  0  0  0  0  0  0  0  0
   19.4062   20.1916   21.1999 H   0  0  0  0  0  0  0  0  0  0  0  0
   21.4328   20.5785   21.9323 C   0  0  0  0  0  0  0  0  0  0  0  0
   21.3021   21.6664   21.8515 H   0  0  0  0  0  0  0  0  0  0  0  0
   22.4600   20.3765   21.5999 H   0  0  0  0  0  0  0  0  0  0  0  0
   21.3033   20.1952   23.4295 C   0  0  0  0  0  0  0  0  0  0  0  0
   21.8106   19.2441   23.6210 H   0  0  0  0  0  0  0  0  0  0  0  0
   21.8794   20.9363   24.0000 H   0  0  0  0  0  0  0  0  0  0  0  0
   19.8514   20.1487   23.9719 C   0  0  0  0  0  0  0  0  0  0  0  0
   19.1921   20.7317   23.3152 H   0  0  0  0  0  0  0  0  0  0  0  0
   19.2772   18.7185   24.1326 C   0  0  0  0  0  0  0  0  0  0  0  0
   19.9497   18.1234   24.7640 H   0  0  0  0  0  0  0  0  0  0  0  0
   18.3356   18.7982   24.6924 H   0  0  0  0  0  0  0  0  0  0  0  0
   18.9758   17.9333   22.8274 C   0  0  0  0  0  0  0  0  0  0  0  0
   18.2702   18.4863   22.1941 H   0  0  0  0  0  0  0  0  0  0  0  0
   18.4421   17.0185   23.1195 H   0  0  0  0  0  0  0  0  0  0  0  0
   20.2300   17.5042   22.0228 C   0  0  0  0  0  0  0  0  0  0  0  0
   20.0687   16.4801   21.6593 H   0  0  0  0  0  0  0  0  0  0  0  0
   21.1018   17.4248   22.6819 H   0  0  0  0  0  0  0  0  0  0  0  0
   19.8379   20.7558   25.2578 O   0  0  0  0  0  0  0  0  0  0  0  0
   20.4277   20.2171   25.8243 H   0  0  0  0  0  0  0  0  0  0  0  0
  1  2  1  0  0  0  0
  1  3  1  0  0  0  0
  1  4  1  0  0  0  0
  4  5  1  0  0  0  0
  4  6  1  0  0  0  0
  4  7  1  0  0  0  0
  7  8  1  0  0  0  0
  7  9  1  0  0  0  0
  7 10  1  0  0  0  0
 10 11  1  0  0  0  0
 10 12  1  0  0  0  0
 10 13  1  0  0  0  0
 13 14  1  0  0  0  0
 13 15  1  0  0  0  0
 15 16  1  0  0  0  0
 15 17  1  0  0  0  0
 15 18  1  0  0  0  0
 18 19  1  0  0  0  0
 18 20  1  0  0  0  0
  1 21  1  0  0  0  0
 18 21  1  0  0  0  0
 21 22  1  0  0  0  0
 21 23  1  0  0  0  0
 13 24  1  0  0  0  0
 24 25  1  0  0  0  0
M  END
> <VConfSearch Rank>
619

> <Conf_Id>
140

> <Delta U+W>
-1.702

> <U+W>
9.211

> <U>
11.181

> <W>
-1.969

> <W(PB)>
-4.093

> <W(SA)>
2.124

> <Valence>
16.954

> <Coulomb>
-8.661

> <VdW>
2.887

> <VdW6>
-12.561

> <VdW12>
15.448

> <Bond>
0.433

> <Angle>
5.120

> <Pdih>
11.401

> <Idih>
0.000

> <Tether>
0.000

$$$$
VeraChem MOL file


 25 25  0  0  0  0  0  0  0  0999 V2000     
   18.8252   18.3664   21.4319 C   0  0  0  0  0  0  0  0  0  0  0  0
   18.1065   19.0093   20.9059 H   0  0  0  0  0  0  0  0  0  0  0  0
   18.5576   17.3368   21.1574 H   0  0  0  0  0  0  0  0  0  0  0  0
   18.6105   18.5184   22.9600 C   0  0  0  0  0  0  0  0  0  0  0  0
   18.4285   19.5667   23.2221 H   0  0  0  0  0  0  0  0  0  0  0  0
   17.6688   18.0084   23.2054 H   0  0  0  0  0  0  0  0  0  0  0  0
   19.7292   17.9201   23.8518 C   0  0  0  0  0  0  0  0  0  0  0  0
   20.2641   17.1168   23.3290 H   0  0  0  0  0  0  0  0  0  0  0  0
   19.2433   17.4311   24.7072 H   0  0  0  0  0  0  0  0  0  0  0  0
   20.7262   18.9603   24.4307 C   0  0  0  0  0  0  0  0  0  0  0  0
   20.1670   19.7264   24.9836 H   0  0  0  0  0  0  0  0  0  0  0  0
   21.3424   18.4433   25.1785 H   0  0  0  0  0  0  0  0  0  0  0  0
   21.6843   19.6463   23.4245 C   0  0  0  0  0  0  0  0  0  0  0  0
   22.2194   18.8769   22.8522 H   0  0  0  0  0  0  0  0  0  0  0  0
   20.9871   20.6315   22.4510 C   0  0  0  0  0  0  0  0  0  0  0  0
   20.0378   20.9752   22.8742 H   0  0  0  0  0  0  0  0  0  0  0  0
   21.5954   21.5415   22.3596 H   0  0  0  0  0  0  0  0  0  0  0  0
   20.7673   20.0897   21.0145 C   0  0  0  0  0  0  0  0  0  0  0  0
   21.7273   20.1473   20.4832 H   0  0  0  0  0  0  0  0  0  0  0  0
   20.0890   20.7666   20.4778 H   0  0  0  0  0  0  0  0  0  0  0  0
   20.2490   18.6356   20.8836 C   0  0  0  0  0  0  0  0  0  0  0  0
   20.9656   17.9309   21.3208 H   0  0  0  0  0  0  0  0  0  0  0  0
   20.2377   18.3890   19.8131 H   0  0  0  0  0  0  0  0  0  0  0  0
   22.6420   20.3742   24.1829 O   0  0  0  0  0  0  0  0  0  0  0  0
   22.1415   21.0490   24.6859 H   0  0  0  0  0  0  0  0  0  0  0  0
  1  2  1  0  0  0  0
  1  3  1  0  0  0  0
  1  4  1  0  0  0  0
  4  5  1  0  0  0  0
  4  6  1  0  0  0  0
  4  7  1  0  0  0  0
  7  8  1  0  0  0  0
  7  9  1  0  0  0  0
  7 10  1  0  0  0  0
 10 11  1  0  0  0  0
 10 12  1  0  0  0  0
 10 13  1  0  0  0  0
 13 14  1  0  0  0  0
 13 15  1  0  0  0  0
 15 16  1  0  0  0  0
 15 17  1  0  0  0  0
 15 18  1  0  0  0  0
 18 19  1  0  0  0  0
 18 20  1  0  0  0  0
  1 21  1  0  0  0  0
 18 21  1  0  0  0  0
 21 22  1  0  0  0  0
 21 23  1  0  0  0  0
 13 24  1  0  0  0  0
 24 25  1  0  0  0  0
M  END
> <VConfSearch Rank>
620

> <Conf_Id>
68

> <Delta U+W>
-1.765

> <U+W>
9.148

> <U>
11.181

> <W>
-2.032

> <W(PB)>
-4.147

> <W(SA)>
2.114

> <Valence>
16.955

> <Coulomb>
-8.661

> <VdW>
2.887

> <VdW6>
-12.561

> <VdW12>
15.448

> <Bond>
0.433

> <Angle>
5.121

> <Pdih>
11.402

> <Idih>
0.000

> <Tether>
0.000

$$$$
VeraChem MOL file


 25 25  0  0  0  0  0  0  0  0999 V2000     
   22.0979   19.0336   22.5470 C   0  0  0  0  0  0  0  0  0  0  0  0
   23.1801   18.8441   22.5506 H   0  0  0  0  0  0  0  0  0  0  0  0
   22.0040   20.0625   22.1817 H   0  0  0  0  0  0  0  0  0  0  0  0
   21.5856   18.9240   24.0067 C   0  0  0  0  0  0  0  0  0  0  0  0
   21.1987   17.9184   24.2159 H   0  0  0  0  0  0  0  0  0  0  0  0
   22.4533   19.0399   24.6705 H   0  0  0  0  0  0  0  0  0  0  0  0
   20.5539   20.0072   24.4177 C   0  0  0  0  0  0  0  0  0  0  0  0
   20.9828   21.0036   24.2434 H   0  0  0  0  0  0  0  0  0  0  0  0
   20.4094   19.9350   25.5043 H   0  0  0  0  0  0  0  0  0  0  0  0
   19.1557   19.9269   23.7491 C   0  0  0  0  0  0  0  0  0  0  0  0
   18.6982   18.9483   23.9378 H   0  0  0  0  0  0  0  0  0  0  0  0
   18.5142   20.6503   24.2704 H   0  0  0  0  0  0  0  0  0  0  0  0
   19.1472   20.2599   22.2345 C   0  0  0  0  0  0  0  0  0  0  0  0
   20.0545   20.8232   21.9874 H   0  0  0  0  0  0  0  0  0  0  0  0
   19.0432   19.0293   21.3003 C   0  0  0  0  0  0  0  0  0  0  0  0
   18.0014   18.6825   21.2954 H   0  0  0  0  0  0  0  0  0  0  0  0
   19.2563   19.3548   20.2738 H   0  0  0  0  0  0  0  0  0  0  0  0
   19.9359   17.8071   21.6370 C   0  0  0  0  0  0  0  0  0  0  0  0
   19.6799   17.0096   20.9264 H   0  0  0  0  0  0  0  0  0  0  0  0
   19.6713   17.3979   22.6188 H   0  0  0  0  0  0  0  0  0  0  0  0
   21.4655   18.0348   21.5432 C   0  0  0  0  0  0  0  0  0  0  0  0
   21.7250   18.3437   20.5216 H   0  0  0  0  0  0  0  0  0  0  0  0
   21.9512   17.0604   21.6902 H   0  0  0  0  0  0  0  0  0  0  0  0
   18.0319   21.0992   21.9616 O   0  0  0  0  0  0  0  0  0  0  0  0
   17.2336   20.5868   22.2046 H   0  0  0  0  0  0  0  0  0  0  0  0
  1  2  1  0  0  0  0
  1  3  1  0  0  0  0
  1  4  1  0  0  0  0
  4  5  1  0  0  0  0
  4  6  1  0  0  0  0
  4  7  1  0  0  0  0
  7  8  1  0  0  0  0
  7  9  1  0  0  0  0
  7 10  1  0  0  0  0
 10 11  1  0  0  0  0
 10 12  1  0  0  0  0
 10 13  1  0  0  0  0
 13 14  1  0  0  0  0
 13 15  1  0  0  0  0
 15 16  1  0  0  0  0
 15 17  1  0  0  0  0
 15 18  1  0  0  0  0
 18 19  1  0  0  0  0
 18 20  1  0  0  0  0
  1 21  1  0  0  0  0
 18 21  1  0  0  0  0
 21 22  1  0  0  0  0
 21 23  1  0  0  0  0
 13 24  1  0  0  0  0
 24 25  1  0  0  0  0
M  END
> <VConfSearch Rank>
621

> <Conf_Id>
165

> <Delta U+W>
-1.999

> <U+W>
8.915

> <U>
10.935

> <W>
-2.020

> <W(PB)>
-4.135

> <W(SA)>
2.115

> <Valence>
16.757

> <Coulomb>
-8.731

> <VdW>
2.908

> <VdW6>
-12.597

> <VdW12>
15.506

> <Bond>
0.434

> <Angle>
5.069

> <Pdih>
11.254

> <Idih>
0.000

> <Tether>
0.000

$$$$
VeraChem MOL file


 25 25  0  0  0  0  0  0  0  0999 V2000     
   21.2439   17.6472   23.0462 C   0  0  0  0  0  0  0  0  0  0  0  0
   21.7521   16.7222   23.3513 H   0  0  0  0  0  0  0  0  0  0  0  0
   21.6454   17.8610   22.0493 H   0  0  0  0  0  0  0  0  0  0  0  0
   21.6622   18.7485   24.0550 C   0  0  0  0  0  0  0  0  0  0  0  0
   21.6510   18.3033   25.0593 H   0  0  0  0  0  0  0  0  0  0  0  0
   22.7080   19.0264   23.8663 H   0  0  0  0  0  0  0  0  0  0  0  0
   20.7926   20.0297   24.1085 C   0  0  0  0  0  0  0  0  0  0  0  0
   21.1707   20.6477   24.9343 H   0  0  0  0  0  0  0  0  0  0  0  0
   19.7652   19.7809   24.3978 H   0  0  0  0  0  0  0  0  0  0  0  0
   20.7981   20.9108   22.8328 C   0  0  0  0  0  0  0  0  0  0  0  0
   20.2322   21.8240   23.0616 H   0  0  0  0  0  0  0  0  0  0  0  0
   21.8270   21.2350   22.6302 H   0  0  0  0  0  0  0  0  0  0  0  0
   20.2111   20.2891   21.5418 C   0  0  0  0  0  0  0  0  0  0  0  0
   20.9456   19.6025   21.1047 H   0  0  0  0  0  0  0  0  0  0  0  0
   18.8714   19.5339   21.7394 C   0  0  0  0  0  0  0  0  0  0  0  0
   18.3555   19.8837   22.6414 H   0  0  0  0  0  0  0  0  0  0  0  0
   18.2014   19.7931   20.9085 H   0  0  0  0  0  0  0  0  0  0  0  0
   18.9986   17.9871   21.7513 C   0  0  0  0  0  0  0  0  0  0  0  0
   19.4892   17.6564   20.8256 H   0  0  0  0  0  0  0  0  0  0  0  0
   17.9838   17.5682   21.7123 H   0  0  0  0  0  0  0  0  0  0  0  0
   19.7221   17.3572   22.9705 C   0  0  0  0  0  0  0  0  0  0  0  0
   19.5972   16.2686   22.8897 H   0  0  0  0  0  0  0  0  0  0  0  0
   19.2198   17.6332   23.9065 H   0  0  0  0  0  0  0  0  0  0  0  0
   19.9999   21.3494   20.6163 O   0  0  0  0  0  0  0  0  0  0  0  0
   20.8694   21.7795   20.4765 H   0  0  0  0  0  0  0  0  0  0  0  0
  1  2  1  0  0  0  0
  1  3  1  0  0  0  0
  1  4  1  0  0  0  0
  4  5  1  0  0  0  0
  4  6  1  0  0  0  0
  4  7  1  0  0  0  0
  7  8  1  0  0  0  0
  7  9  1  0  0  0  0
  7 10  1  0  0  0  0
 10 11  1  0  0  0  0
 10 12  1  0  0  0  0
 10 13  1  0  0  0  0
 13 14  1  0  0  0  0
 13 15  1  0  0  0  0
 15 16  1  0  0  0  0
 15 17  1  0  0  0  0
 15 18  1  0  0  0  0
 18 19  1  0  0  0  0
 18 20  1  0  0  0  0
  1 21  1  0  0  0  0
 18 21  1  0  0  0  0
 21 22  1  0  0  0  0
 21 23  1  0  0  0  0
 13 24  1  0  0  0  0
 24 25  1  0  0  0  0
M  END
> <VConfSearch Rank>
622

> <Conf_Id>
133

> <Delta U+W>
-2.139

> <U+W>
8.774

> <U>
10.905

> <W>
-2.131

> <W(PB)>
-4.281

> <W(SA)>
2.150

> <Valence>
16.378

> <Coulomb>
-8.448

> <VdW>
2.976

> <VdW6>
-12.570

> <VdW12>
15.545

> <Bond>
0.439

> <Angle>
5.049

> <Pdih>
10.889

> <Idih>
0.000

> <Tether>
0.000

$$$$
VeraChem MOL file


 25 25  0  0  0  0  0  0  0  0999 V2000     
   19.9722   20.2322   24.1670 C   0  0  0  0  0  0  0  0  0  0  0  0
   19.7542   20.7531   25.1095 H   0  0  0  0  0  0  0  0  0  0  0  0
   20.2092   21.0364   23.4614 H   0  0  0  0  0  0  0  0  0  0  0  0
   18.6896   19.4799   23.7258 C   0  0  0  0  0  0  0  0  0  0  0  0
   18.7057   18.4369   24.0671 H   0  0  0  0  0  0  0  0  0  0  0  0
   17.8406   19.9390   24.2506 H   0  0  0  0  0  0  0  0  0  0  0  0
   18.3784   19.5574   22.2079 C   0  0  0  0  0  0  0  0  0  0  0  0
   18.3186   20.6107   21.9015 H   0  0  0  0  0  0  0  0  0  0  0  0
   17.3709   19.1480   22.0524 H   0  0  0  0  0  0  0  0  0  0  0  0
   19.3464   18.8017   21.2588 C   0  0  0  0  0  0  0  0  0  0  0  0
   19.3969   17.7399   21.5276 H   0  0  0  0  0  0  0  0  0  0  0  0
   18.8935   18.8217   20.2583 H   0  0  0  0  0  0  0  0  0  0  0  0
   20.7672   19.4157   21.1653 C   0  0  0  0  0  0  0  0  0  0  0  0
   20.7289   20.4556   21.5102 H   0  0  0  0  0  0  0  0  0  0  0  0
   21.8537   18.6527   21.9623 C   0  0  0  0  0  0  0  0  0  0  0  0
   22.1256   17.7519   21.3957 H   0  0  0  0  0  0  0  0  0  0  0  0
   22.7598   19.2709   22.0013 H   0  0  0  0  0  0  0  0  0  0  0  0
   21.4914   18.2038   23.4015 C   0  0  0  0  0  0  0  0  0  0  0  0
   22.3391   17.6198   23.7849 H   0  0  0  0  0  0  0  0  0  0  0  0
   20.6546   17.4963   23.3829 H   0  0  0  0  0  0  0  0  0  0  0  0
   21.2145   19.3386   24.4193 C   0  0  0  0  0  0  0  0  0  0  0  0
   22.1035   19.9786   24.5013 H   0  0  0  0  0  0  0  0  0  0  0  0
   21.0947   18.8709   25.4062 H   0  0  0  0  0  0  0  0  0  0  0  0
   21.1673   19.4232   19.7995 O   0  0  0  0  0  0  0  0  0  0  0  0
   22.0459   19.8559   19.7651 H   0  0  0  0  0  0  0  0  0  0  0  0
  1  2  1  0  0  0  0
  1  3  1  0  0  0  0
  1  4  1  0  0  0  0
  4  5  1  0  0  0  0
  4  6  1  0  0  0  0
  4  7  1  0  0  0  0
  7  8  1  0  0  0  0
  7  9  1  0  0  0  0
  7 10  1  0  0  0  0
 10 11  1  0  0  0  0
 10 12  1  0  0  0  0
 10 13  1  0  0  0  0
 13 14  1  0  0  0  0
 13 15  1  0  0  0  0
 15 16  1  0  0  0  0
 15 17  1  0  0  0  0
 15 18  1  0  0  0  0
 18 19  1  0  0  0  0
 18 20  1  0  0  0  0
  1 21  1  0  0  0  0
 18 21  1  0  0  0  0
 21 22  1  0  0  0  0
 21 23  1  0  0  0  0
 13 24  1  0  0  0  0
 24 25  1  0  0  0  0
M  END
> <VConfSearch Rank>
623

> <Conf_Id>
95

> <Delta U+W>
-2.190

> <U+W>
8.723

> <U>
10.905

> <W>
-2.182

> <W(PB)>
-4.296

> <W(SA)>
2.114

> <Valence>
16.377

> <Coulomb>
-8.448

> <VdW>
2.976

> <VdW6>
-12.570

> <VdW12>
15.546

> <Bond>
0.439

> <Angle>
5.049

> <Pdih>
10.889

> <Idih>
0.000

> <Tether>
0.000

$$$$
VeraChem MOL file


 25 25  0  0  0  0  0  0  0  0999 V2000     
   18.4995   18.8493   22.7679 C   0  0  0  0  0  0  0  0  0  0  0  0
   17.4059   18.7739   22.8406 H   0  0  0  0  0  0  0  0  0  0  0  0
   18.8415   17.8440   23.0338 H   0  0  0  0  0  0  0  0  0  0  0  0
   18.9556   19.8923   23.8301 C   0  0  0  0  0  0  0  0  0  0  0  0
   18.1756   20.6638   23.8878 H   0  0  0  0  0  0  0  0  0  0  0  0
   18.9658   19.4133   24.8185 H   0  0  0  0  0  0  0  0  0  0  0  0
   20.3020   20.6287   23.6037 C   0  0  0  0  0  0  0  0  0  0  0  0
   20.3944   21.3992   24.3813 H   0  0  0  0  0  0  0  0  0  0  0  0
   20.2463   21.2069   22.6760 H   0  0  0  0  0  0  0  0  0  0  0  0
   21.6037   19.7741   23.6475 C   0  0  0  0  0  0  0  0  0  0  0  0
   22.4026   20.3176   23.1261 H   0  0  0  0  0  0  0  0  0  0  0  0
   21.9176   19.7208   24.6981 H   0  0  0  0  0  0  0  0  0  0  0  0
   21.5460   18.3213   23.1111 C   0  0  0  0  0  0  0  0  0  0  0  0
   20.7763   17.7825   23.6733 H   0  0  0  0  0  0  0  0  0  0  0  0
   21.2970   18.1425   21.5858 C   0  0  0  0  0  0  0  0  0  0  0  0
   22.2679   18.2014   21.0757 H   0  0  0  0  0  0  0  0  0  0  0  0
   20.9347   17.1211   21.4133 H   0  0  0  0  0  0  0  0  0  0  0  0
   20.3494   19.1413   20.8677 C   0  0  0  0  0  0  0  0  0  0  0  0
   20.3872   18.9196   19.7924 H   0  0  0  0  0  0  0  0  0  0  0  0
   20.7688   20.1500   20.9355 H   0  0  0  0  0  0  0  0  0  0  0  0
   18.8493   19.1359   21.2837 C   0  0  0  0  0  0  0  0  0  0  0  0
   18.3442   18.3682   20.6818 H   0  0  0  0  0  0  0  0  0  0  0  0
   18.3940   20.0892   20.9830 H   0  0  0  0  0  0  0  0  0  0  0  0
   22.7945   17.7079   23.4103 O   0  0  0  0  0  0  0  0  0  0  0  0
   22.9133   17.7669   24.3811 H   0  0  0  0  0  0  0  0  0  0  0  0
  1  2  1  0  0  0  0
  1  3  1  0  0  0  0
  1  4  1  0  0  0  0
  4  5  1  0  0  0  0
  4  6  1  0  0  0  0
  4  7  1  0  0  0  0
  7  8  1  0  0  0  0
  7  9  1  0  0  0  0
  7 10  1  0  0  0  0
 10 11  1  0  0  0  0
 10 12  1  0  0  0  0
 10 13  1  0  0  0  0
 13 14  1  0  0  0  0
 13 15  1  0  0  0  0
 15 16  1  0  0  0  0
 15 17  1  0  0  0  0
 15 18  1  0  0  0  0
 18 19  1  0  0  0  0
 18 20  1  0  0  0  0
  1 21  1  0  0  0  0
 18 21  1  0  0  0  0
 21 22  1  0  0  0  0
 21 23  1  0  0  0  0
 13 24  1  0  0  0  0
 24 25  1  0  0  0  0
M  END
> <VConfSearch Rank>
624

> <Conf_Id>
161

> <Delta U+W>
2.120

> <U+W>
13.033

> <U>
15.076

> <W>
-2.043

> <W(PB)>
-4.186

> <W(SA)>
2.143

> <Valence>
18.884

> <Coulomb>
-8.074

> <VdW>
4.266

> <VdW6>
-13.486

> <VdW12>
17.752

> <Bond>
0.713

> <Angle>
8.955

> <Pdih>
9.215

> <Idih>
0.000

> <Tether>
0.000

$$$$
VeraChem MOL file


 25 25  0  0  0  0  0  0  0  0999 V2000     
   18.6498   18.1538   22.4302 C   0  0  0  0  0  0  0  0  0  0  0  0
   17.7563   17.6337   22.0586 H   0  0  0  0  0  0  0  0  0  0  0  0
   18.5321   18.1669   23.5211 H   0  0  0  0  0  0  0  0  0  0  0  0
   18.6249   19.6011   21.8785 C   0  0  0  0  0  0  0  0  0  0  0  0
   19.0863   19.6474   20.8829 H   0  0  0  0  0  0  0  0  0  0  0  0
   17.5696   19.8638   21.7218 H   0  0  0  0  0  0  0  0  0  0  0  0
   19.2209   20.6801   22.8251 C   0  0  0  0  0  0  0  0  0  0  0  0
   18.9781   20.4646   23.8743 H   0  0  0  0  0  0  0  0  0  0  0  0
   18.7054   21.6228   22.5957 H   0  0  0  0  0  0  0  0  0  0  0  0
   20.7390   20.9459   22.6540 C   0  0  0  0  0  0  0  0  0  0  0  0
   21.0211   20.8280   21.6007 H   0  0  0  0  0  0  0  0  0  0  0  0
   20.9192   22.0056   22.8782 H   0  0  0  0  0  0  0  0  0  0  0  0
   21.6846   20.1342   23.5753 C   0  0  0  0  0  0  0  0  0  0  0  0
   21.5604   20.5097   24.6012 H   0  0  0  0  0  0  0  0  0  0  0  0
   21.4635   18.6043   23.6122 C   0  0  0  0  0  0  0  0  0  0  0  0
   22.3280   18.1435   24.1085 H   0  0  0  0  0  0  0  0  0  0  0  0
   20.6192   18.3827   24.2738 H   0  0  0  0  0  0  0  0  0  0  0  0
   21.2694   17.9380   22.2238 C   0  0  0  0  0  0  0  0  0  0  0  0
   22.0295   17.1548   22.0985 H   0  0  0  0  0  0  0  0  0  0  0  0
   21.4608   18.6486   21.4117 H   0  0  0  0  0  0  0  0  0  0  0  0
   19.8763   17.2950   22.0228 C   0  0  0  0  0  0  0  0  0  0  0  0
   19.8373   16.3538   22.5879 H   0  0  0  0  0  0  0  0  0  0  0  0
   19.7769   17.0130   20.9658 H   0  0  0  0  0  0  0  0  0  0  0  0
   23.0202   20.3789   23.1573 O   0  0  0  0  0  0  0  0  0  0  0  0
   23.1243   19.9097   22.3047 H   0  0  0  0  0  0  0  0  0  0  0  0
  1  2  1  0  0  0  0
  1  3  1  0  0  0  0
  1  4  1  0  0  0  0
  4  5  1  0  0  0  0
  4  6  1  0  0  0  0
  4  7  1  0  0  0  0
  7  8  1  0  0  0  0
  7  9  1  0  0  0  0
  7 10  1  0  0  0  0
 10 11  1  0  0  0  0
 10 12  1  0  0  0  0
 10 13  1  0  0  0  0
 13 14  1  0  0  0  0
 13 15  1  0  0  0  0
 15 16  1  0  0  0  0
 15 17  1  0  0  0  0
 15 18  1  0  0  0  0
 18 19  1  0  0  0  0
 18 20  1  0  0  0  0
  1 21  1  0  0  0  0
 18 21  1  0  0  0  0
 21 22  1  0  0  0  0
 21 23  1  0  0  0  0
 13 24  1  0  0  0  0
 24 25  1  0  0  0  0
M  END
> <VConfSearch Rank>
625

> <Conf_Id>
164

> <Delta U+W>
0.008

> <U+W>
10.922

> <U>
12.433

> <W>
-1.511

> <W(PB)>
-3.669

> <W(SA)>
2.157

> <Valence>
19.007

> <Coulomb>
-9.373

> <VdW>
2.799

> <VdW6>
-12.597

> <VdW12>
15.396

> <Bond>
0.425

> <Angle>
4.784

> <Pdih>
13.799

> <Idih>
0.000

> <Tether>
0.000

$$$$
VeraChem MOL file


 25 25  0  0  0  0  0  0  0  0999 V2000     
   20.0530   18.2493   21.1154 C   0  0  0  0  0  0  0  0  0  0  0  0
   20.9120   18.8956   20.9022 H   0  0  0  0  0  0  0  0  0  0  0  0
   19.9048   17.6732   20.1920 H   0  0  0  0  0  0  0  0  0  0  0  0
   18.7776   19.1005   21.3358 C   0  0  0  0  0  0  0  0  0  0  0  0
   18.6009   19.6727   20.4148 H   0  0  0  0  0  0  0  0  0  0  0  0
   17.9107   18.4345   21.4423 H   0  0  0  0  0  0  0  0  0  0  0  0
   18.7915   20.1011   22.5196 C   0  0  0  0  0  0  0  0  0  0  0  0
   18.5335   19.5933   23.4560 H   0  0  0  0  0  0  0  0  0  0  0  0
   17.9676   20.8090   22.3551 H   0  0  0  0  0  0  0  0  0  0  0  0
   20.1032   20.9142   22.6848 C   0  0  0  0  0  0  0  0  0  0  0  0
   20.6431   20.9858   21.7329 H   0  0  0  0  0  0  0  0  0  0  0  0
   19.8186   21.9449   22.9353 H   0  0  0  0  0  0  0  0  0  0  0  0
   21.0407   20.4168   23.8135 C   0  0  0  0  0  0  0  0  0  0  0  0
   20.4560   20.3563   24.7426 H   0  0  0  0  0  0  0  0  0  0  0  0
   21.7311   19.0482   23.5878 C   0  0  0  0  0  0  0  0  0  0  0  0
   22.3246   19.0585   22.6656 H   0  0  0  0  0  0  0  0  0  0  0  0
   22.4589   18.9185   24.3999 H   0  0  0  0  0  0  0  0  0  0  0  0
   20.7790   17.8230   23.6221 C   0  0  0  0  0  0  0  0  0  0  0  0
   19.8776   18.0528   24.2015 H   0  0  0  0  0  0  0  0  0  0  0  0
   21.2723   17.0210   24.1882 H   0  0  0  0  0  0  0  0  0  0  0  0
   20.4017   17.2390   22.2367 C   0  0  0  0  0  0  0  0  0  0  0  0
   19.5686   16.5341   22.3620 H   0  0  0  0  0  0  0  0  0  0  0  0
   21.2499   16.6364   21.8842 H   0  0  0  0  0  0  0  0  0  0  0  0
   22.0610   21.3906   23.9864 O   0  0  0  0  0  0  0  0  0  0  0  0
   22.5607   21.4195   23.1448 H   0  0  0  0  0  0  0  0  0  0  0  0
  1  2  1  0  0  0  0
  1  3  1  0  0  0  0
  1  4  1  0  0  0  0
  4  5  1  0  0  0  0
  4  6  1  0  0  0  0
  4  7  1  0  0  0  0
  7  8  1  0  0  0  0
  7  9  1  0  0  0  0
  7 10  1  0  0  0  0
 10 11  1  0  0  0  0
 10 12  1  0  0  0  0
 10 13  1  0  0  0  0
 13 14  1  0  0  0  0
 13 15  1  0  0  0  0
 15 16  1  0  0  0  0
 15 17  1  0  0  0  0
 15 18  1  0  0  0  0
 18 19  1  0  0  0  0
 18 20  1  0  0  0  0
  1 21  1  0  0  0  0
 18 21  1  0  0  0  0
 21 22  1  0  0  0  0
 21 23  1  0  0  0  0
 13 24  1  0  0  0  0
 24 25  1  0  0  0  0
M  END
> <VConfSearch Rank>
626

> <Conf_Id>
15

> <Delta U+W>
-1.271

> <U+W>
9.643

> <U>
11.413

> <W>
-1.770

> <W(PB)>
-3.908

> <W(SA)>
2.138

> <Valence>
17.496

> <Coulomb>
-8.736

> <VdW>
2.653

> <VdW6>
-12.485

> <VdW12>
15.138

> <Bond>
0.414

> <Angle>
5.295

> <Pdih>
11.787

> <Idih>
0.000

> <Tether>
0.000

$$$$
VeraChem MOL file


 25 25  0  0  0  0  0  0  0  0999 V2000     
   22.1743   19.6039   23.0507 C   0  0  0  0  0  0  0  0  0  0  0  0
   23.2625   19.7471   23.0996 H   0  0  0  0  0  0  0  0  0  0  0  0
   21.8635   19.4647   24.0938 H   0  0  0  0  0  0  0  0  0  0  0  0
   21.5713   20.9100   22.4699 C   0  0  0  0  0  0  0  0  0  0  0  0
   21.7307   21.7138   23.2015 H   0  0  0  0  0  0  0  0  0  0  0  0
   22.1438   21.2001   21.5783 H   0  0  0  0  0  0  0  0  0  0  0  0
   20.0708   20.8739   22.0923 C   0  0  0  0  0  0  0  0  0  0  0  0
   19.9473   20.3674   21.1279 H   0  0  0  0  0  0  0  0  0  0  0  0
   19.7399   21.9057   21.9114 H   0  0  0  0  0  0  0  0  0  0  0  0
   19.1593   20.2411   23.1759 C   0  0  0  0  0  0  0  0  0  0  0  0
   19.7166   20.0677   24.1031 H   0  0  0  0  0  0  0  0  0  0  0  0
   18.3834   20.9695   23.4451 H   0  0  0  0  0  0  0  0  0  0  0  0
   18.4462   18.9421   22.7350 C   0  0  0  0  0  0  0  0  0  0  0  0
   17.6440   19.2236   22.0379 H   0  0  0  0  0  0  0  0  0  0  0  0
   19.3204   17.8800   22.0194 C   0  0  0  0  0  0  0  0  0  0  0  0
   18.7117   16.9700   21.9318 H   0  0  0  0  0  0  0  0  0  0  0  0
   19.5072   18.1846   20.9826 H   0  0  0  0  0  0  0  0  0  0  0  0
   20.6606   17.4963   22.7020 C   0  0  0  0  0  0  0  0  0  0  0  0
   20.8592   16.4475   22.4416 H   0  0  0  0  0  0  0  0  0  0  0  0
   20.5669   17.5091   23.7955 H   0  0  0  0  0  0  0  0  0  0  0  0
   21.8978   18.3141   22.2392 C   0  0  0  0  0  0  0  0  0  0  0  0
   21.8508   18.5319   21.1638 H   0  0  0  0  0  0  0  0  0  0  0  0
   22.7744   17.6639   22.3659 H   0  0  0  0  0  0  0  0  0  0  0  0
   17.8623   18.3448   23.8843 O   0  0  0  0  0  0  0  0  0  0  0  0
   18.6097   18.0258   24.4291 H   0  0  0  0  0  0  0  0  0  0  0  0
  1  2  1  0  0  0  0
  1  3  1  0  0  0  0
  1  4  1  0  0  0  0
  4  5  1  0  0  0  0
  4  6  1  0  0  0  0
  4  7  1  0  0  0  0
  7  8  1  0  0  0  0
  7  9  1  0  0  0  0
  7 10  1  0  0  0  0
 10 11  1  0  0  0  0
 10 12  1  0  0  0  0
 10 13  1  0  0  0  0
 13 14  1  0  0  0  0
 13 15  1  0  0  0  0
 15 16  1  0  0  0  0
 15 17  1  0  0  0  0
 15 18  1  0  0  0  0
 18 19  1  0  0  0  0
 18 20  1  0  0  0  0
  1 21  1  0  0  0  0
 18 21  1  0  0  0  0
 21 22  1  0  0  0  0
 21 23  1  0  0  0  0
 13 24  1  0  0  0  0
 24 25  1  0  0  0  0
M  END
> <VConfSearch Rank>
627

> <Conf_Id>
115

> <Delta U+W>
0.038

> <U+W>
10.952

> <U>
12.526

> <W>
-1.575

> <W(PB)>
-3.698

> <W(SA)>
2.123

> <Valence>
19.016

> <Coulomb>
-9.226

> <VdW>
2.737

> <VdW6>
-12.612

> <VdW12>
15.349

> <Bond>
0.421

> <Angle>
4.883

> <Pdih>
13.711

> <Idih>
0.000

> <Tether>
0.000

$$$$
VeraChem MOL file


 25 25  0  0  0  0  0  0  0  0999 V2000     
   21.7652   18.2807   23.9180 C   0  0  0  0  0  0  0  0  0  0  0  0
   22.3719   18.1863   24.8290 H   0  0  0  0  0  0  0  0  0  0  0  0
   21.8391   17.3079   23.4133 H   0  0  0  0  0  0  0  0  0  0  0  0
   22.4120   19.3819   23.0458 C   0  0  0  0  0  0  0  0  0  0  0  0
   22.4483   20.3294   23.6003 H   0  0  0  0  0  0  0  0  0  0  0  0
   23.4601   19.0966   22.8807 H   0  0  0  0  0  0  0  0  0  0  0  0
   21.7538   19.5969   21.6633 C   0  0  0  0  0  0  0  0  0  0  0  0
   21.5023   18.6306   21.2063 H   0  0  0  0  0  0  0  0  0  0  0  0
   22.5116   20.0424   21.0043 H   0  0  0  0  0  0  0  0  0  0  0  0
   20.5307   20.5528   21.6798 C   0  0  0  0  0  0  0  0  0  0  0  0
   20.4714   21.1083   22.6241 H   0  0  0  0  0  0  0  0  0  0  0  0
   20.6983   21.3122   20.9041 H   0  0  0  0  0  0  0  0  0  0  0  0
   19.1784   19.8651   21.3859 C   0  0  0  0  0  0  0  0  0  0  0  0
   19.3372   19.0712   20.6421 H   0  0  0  0  0  0  0  0  0  0  0  0
   18.4805   19.2603   22.6243 C   0  0  0  0  0  0  0  0  0  0  0  0
   18.2583   20.0514   23.3526 H   0  0  0  0  0  0  0  0  0  0  0  0
   17.5066   18.8720   22.2987 H   0  0  0  0  0  0  0  0  0  0  0  0
   19.2388   18.0997   23.3134 C   0  0  0  0  0  0  0  0  0  0  0  0
   19.6702   17.4250   22.5620 H   0  0  0  0  0  0  0  0  0  0  0  0
   18.4943   17.4971   23.8517 H   0  0  0  0  0  0  0  0  0  0  0  0
   20.3039   18.5514   24.3466 C   0  0  0  0  0  0  0  0  0  0  0  0
   20.1249   17.9854   25.2712 H   0  0  0  0  0  0  0  0  0  0  0  0
   20.1746   19.6063   24.6228 H   0  0  0  0  0  0  0  0  0  0  0  0
   18.3004   20.8386   20.8336 O   0  0  0  0  0  0  0  0  0  0  0  0
   17.4691   20.3729   20.6046 H   0  0  0  0  0  0  0  0  0  0  0  0
  1  2  1  0  0  0  0
  1  3  1  0  0  0  0
  1  4  1  0  0  0  0
  4  5  1  0  0  0  0
  4  6  1  0  0  0  0
  4  7  1  0  0  0  0
  7  8  1  0  0  0  0
  7  9  1  0  0  0  0
  7 10  1  0  0  0  0
 10 11  1  0  0  0  0
 10 12  1  0  0  0  0
 10 13  1  0  0  0  0
 13 14  1  0  0  0  0
 13 15  1  0  0  0  0
 15 16  1  0  0  0  0
 15 17  1  0  0  0  0
 15 18  1  0  0  0  0
 18 19  1  0  0  0  0
 18 20  1  0  0  0  0
  1 21  1  0  0  0  0
 18 21  1  0  0  0  0
 21 22  1  0  0  0  0
 21 23  1  0  0  0  0
 13 24  1  0  0  0  0
 24 25  1  0  0  0  0
M  END
> <VConfSearch Rank>
628

> <Conf_Id>
30

> <Delta U+W>
0.000

> <U+W>
10.913

> <U>
13.140

> <W>
-2.227

> <W(PB)>
-4.367

> <W(SA)>
2.140

> <Valence>
19.155

> <Coulomb>
-8.157

> <VdW>
2.142

> <VdW6>
-11.576

> <VdW12>
13.718

> <Bond>
0.294

> <Angle>
3.547

> <Pdih>
15.314

> <Idih>
0.000

> <Tether>
0.000

$$$$
VeraChem MOL file


 25 25  0  0  0  0  0  0  0  0999 V2000     
   19.9055   17.4716   21.5254 C   0  0  0  0  0  0  0  0  0  0  0  0
   19.1383   17.2080   20.7847 H   0  0  0  0  0  0  0  0  0  0  0  0
   20.4961   16.5581   21.6789 H   0  0  0  0  0  0  0  0  0  0  0  0
   19.2007   17.8230   22.8588 C   0  0  0  0  0  0  0  0  0  0  0  0
   18.4158   17.0745   23.0340 H   0  0  0  0  0  0  0  0  0  0  0  0
   19.9008   17.6898   23.6916 H   0  0  0  0  0  0  0  0  0  0  0  0
   18.5565   19.2321   22.8910 C   0  0  0  0  0  0  0  0  0  0  0  0
   17.4929   19.1281   23.1452 H   0  0  0  0  0  0  0  0  0  0  0  0
   18.5624   19.6904   21.8951 H   0  0  0  0  0  0  0  0  0  0  0  0
   19.2027   20.1994   23.9149 C   0  0  0  0  0  0  0  0  0  0  0  0
   18.8124   21.2093   23.7319 H   0  0  0  0  0  0  0  0  0  0  0  0
   18.8594   19.9212   24.9199 H   0  0  0  0  0  0  0  0  0  0  0  0
   20.7506   20.2539   23.9457 C   0  0  0  0  0  0  0  0  0  0  0  0
   21.1367   19.3209   24.3776 H   0  0  0  0  0  0  0  0  0  0  0  0
   21.4280   20.4806   22.5720 C   0  0  0  0  0  0  0  0  0  0  0  0
   20.7846   21.0911   21.9256 H   0  0  0  0  0  0  0  0  0  0  0  0
   22.3324   21.0824   22.7326 H   0  0  0  0  0  0  0  0  0  0  0  0
   21.8778   19.1840   21.8409 C   0  0  0  0  0  0  0  0  0  0  0  0
   22.2557   18.4371   22.5520 H   0  0  0  0  0  0  0  0  0  0  0  0
   22.7402   19.4534   21.2157 H   0  0  0  0  0  0  0  0  0  0  0  0
   20.8181   18.5598   20.8996 C   0  0  0  0  0  0  0  0  0  0  0  0
   21.3483   18.0882   20.0608 H   0  0  0  0  0  0  0  0  0  0  0  0
   20.2143   19.3513   20.4378 H   0  0  0  0  0  0  0  0  0  0  0  0
   21.1161   21.3243   24.8089 O   0  0  0  0  0  0  0  0  0  0  0  0
   22.0927   21.3029   24.8872 H   0  0  0  0  0  0  0  0  0  0  0  0
  1  2  1  0  0  0  0
  1  3  1  0  0  0  0
  1  4  1  0  0  0  0
  4  5  1  0  0  0  0
  4  6  1  0  0  0  0
  4  7  1  0  0  0  0
  7  8  1  0  0  0  0
  7  9  1  0  0  0  0
  7 10  1  0  0  0  0
 10 11  1  0  0  0  0
 10 12  1  0  0  0  0
 10 13  1  0  0  0  0
 13 14  1  0  0  0  0
 13 15  1  0  0  0  0
 15 16  1  0  0  0  0
 15 17  1  0  0  0  0
 15 18  1  0  0  0  0
 18 19  1  0  0  0  0
 18 20  1  0  0  0  0
  1 21  1  0  0  0  0
 18 21  1  0  0  0  0
 21 22  1  0  0  0  0
 21 23  1  0  0  0  0
 13 24  1  0  0  0  0
 24 25  1  0  0  0  0
M  END
> <VConfSearch Rank>
629

> <Conf_Id>
162

> <Delta U+W>
0.219

> <U+W>
11.132

> <U>
13.296

> <W>
-2.164

> <W(PB)>
-4.311

> <W(SA)>
2.148

> <Valence>
18.607

> <Coulomb>
-8.339

> <VdW>
3.028

> <VdW6>
-12.271

> <VdW12>
15.299

> <Bond>
0.423

> <Angle>
4.488

> <Pdih>
13.696

> <Idih>
0.000

> <Tether>
0.000

$$$$
VeraChem MOL file


 25 25  0  0  0  0  0  0  0  0999 V2000     
   21.9456   19.3847   21.4677 C   0  0  0  0  0  0  0  0  0  0  0  0
   22.5223   18.8638   22.2425 H   0  0  0  0  0  0  0  0  0  0  0  0
   22.6569   19.5364   20.6443 H   0  0  0  0  0  0  0  0  0  0  0  0
   20.8058   18.4708   20.9528 C   0  0  0  0  0  0  0  0  0  0  0  0
   20.0224   19.0636   20.4619 H   0  0  0  0  0  0  0  0  0  0  0  0
   21.2348   17.8429   20.1598 H   0  0  0  0  0  0  0  0  0  0  0  0
   20.2005   17.5073   22.0116 C   0  0  0  0  0  0  0  0  0  0  0  0
   20.9748   17.1287   22.6922 H   0  0  0  0  0  0  0  0  0  0  0  0
   19.8366   16.6255   21.4666 H   0  0  0  0  0  0  0  0  0  0  0  0
   18.9948   18.0719   22.8070 C   0  0  0  0  0  0  0  0  0  0  0  0
   18.4032   18.7382   22.1671 H   0  0  0  0  0  0  0  0  0  0  0  0
   18.3243   17.2341   23.0389 H   0  0  0  0  0  0  0  0  0  0  0  0
   19.3222   18.7612   24.1557 C   0  0  0  0  0  0  0  0  0  0  0  0
   19.6352   17.9813   24.8649 H   0  0  0  0  0  0  0  0  0  0  0  0
   20.4404   19.8302   24.1251 C   0  0  0  0  0  0  0  0  0  0  0  0
   20.4246   20.3798   25.0752 H   0  0  0  0  0  0  0  0  0  0  0  0
   21.4132   19.3271   24.1175 H   0  0  0  0  0  0  0  0  0  0  0  0
   20.3345   20.8480   22.9587 C   0  0  0  0  0  0  0  0  0  0  0  0
   20.2864   21.8620   23.3781 H   0  0  0  0  0  0  0  0  0  0  0  0
   19.3895   20.7253   22.4166 H   0  0  0  0  0  0  0  0  0  0  0  0
   21.5155   20.7922   21.9598 C   0  0  0  0  0  0  0  0  0  0  0  0
   22.3888   21.2748   22.4195 H   0  0  0  0  0  0  0  0  0  0  0  0
   21.2576   21.4094   21.0884 H   0  0  0  0  0  0  0  0  0  0  0  0
   18.1280   19.3682   24.6347 O   0  0  0  0  0  0  0  0  0  0  0  0
   18.3528   19.8002   25.4844 H   0  0  0  0  0  0  0  0  0  0  0  0
  1  2  1  0  0  0  0
  1  3  1  0  0  0  0
  1  4  1  0  0  0  0
  4  5  1  0  0  0  0
  4  6  1  0  0  0  0
  4  7  1  0  0  0  0
  7  8  1  0  0  0  0
  7  9  1  0  0  0  0
  7 10  1  0  0  0  0
 10 11  1  0  0  0  0
 10 12  1  0  0  0  0
 10 13  1  0  0  0  0
 13 14  1  0  0  0  0
 13 15  1  0  0  0  0
 15 16  1  0  0  0  0
 15 17  1  0  0  0  0
 15 18  1  0  0  0  0
 18 19  1  0  0  0  0
 18 20  1  0  0  0  0
  1 21  1  0  0  0  0
 18 21  1  0  0  0  0
 21 22  1  0  0  0  0
 21 23  1  0  0  0  0
 13 24  1  0  0  0  0
 24 25  1  0  0  0  0
M  END
> <VConfSearch Rank>
630

> <Conf_Id>
155

> <Delta U+W>
0.339

> <U+W>
11.252

> <U>
13.420

> <W>
-2.167

> <W(PB)>
-4.325

> <W(SA)>
2.157

> <Valence>
18.609

> <Coulomb>
-8.052

> <VdW>
2.863

> <VdW6>
-12.524

> <VdW12>
15.387

> <Bond>
0.430

> <Angle>
4.724

> <Pdih>
13.455

> <Idih>
0.000

> <Tether>
0.000

$$$$
VeraChem MOL file


 25 25  0  0  0  0  0  0  0  0999 V2000     
   20.7606   21.1855   22.7155 C   0  0  0  0  0  0  0  0  0  0  0  0
   21.5399   21.5026   22.0094 H   0  0  0  0  0  0  0  0  0  0  0  0
   20.4371   22.1033   23.2251 H   0  0  0  0  0  0  0  0  0  0  0  0
   19.5374   20.6551   21.9223 C   0  0  0  0  0  0  0  0  0  0  0  0
   18.7175   20.4489   22.6176 H   0  0  0  0  0  0  0  0  0  0  0  0
   19.1536   21.4835   21.3113 H   0  0  0  0  0  0  0  0  0  0  0  0
   19.7678   19.4496   20.9649 C   0  0  0  0  0  0  0  0  0  0  0  0
   20.1033   19.8547   20.0006 H   0  0  0  0  0  0  0  0  0  0  0  0
   18.8021   18.9674   20.7608 H   0  0  0  0  0  0  0  0  0  0  0  0
   20.7982   18.3663   21.3852 C   0  0  0  0  0  0  0  0  0  0  0  0
   20.9252   17.6862   20.5328 H   0  0  0  0  0  0  0  0  0  0  0  0
   21.7847   18.8277   21.4837 H   0  0  0  0  0  0  0  0  0  0  0  0
   20.4783   17.5021   22.6403 C   0  0  0  0  0  0  0  0  0  0  0  0
   21.4300   17.1158   23.0324 H   0  0  0  0  0  0  0  0  0  0  0  0
   19.7231   18.1827   23.8095 C   0  0  0  0  0  0  0  0  0  0  0  0
   18.7445   18.5191   23.4550 H   0  0  0  0  0  0  0  0  0  0  0  0
   19.4787   17.4027   24.5427 H   0  0  0  0  0  0  0  0  0  0  0  0
   20.4532   19.3206   24.5844 C   0  0  0  0  0  0  0  0  0  0  0  0
   21.0565   18.8478   25.3714 H   0  0  0  0  0  0  0  0  0  0  0  0
   19.7053   19.9264   25.1134 H   0  0  0  0  0  0  0  0  0  0  0  0
   21.4002   20.2582   23.7901 C   0  0  0  0  0  0  0  0  0  0  0  0
   22.2174   19.6702   23.3606 H   0  0  0  0  0  0  0  0  0  0  0  0
   21.9071   20.9087   24.5159 H   0  0  0  0  0  0  0  0  0  0  0  0
   19.6822   16.3998   22.2193 O   0  0  0  0  0  0  0  0  0  0  0  0
   20.1848   15.9402   21.5154 H   0  0  0  0  0  0  0  0  0  0  0  0
  1  2  1  0  0  0  0
  1  3  1  0  0  0  0
  1  4  1  0  0  0  0
  4  5  1  0  0  0  0
  4  6  1  0  0  0  0
  4  7  1  0  0  0  0
  7  8  1  0  0  0  0
  7  9  1  0  0  0  0
  7 10  1  0  0  0  0
 10 11  1  0  0  0  0
 10 12  1  0  0  0  0
 10 13  1  0  0  0  0
 13 14  1  0  0  0  0
 13 15  1  0  0  0  0
 15 16  1  0  0  0  0
 15 17  1  0  0  0  0
 15 18  1  0  0  0  0
 18 19  1  0  0  0  0
 18 20  1  0  0  0  0
  1 21  1  0  0  0  0
 18 21  1  0  0  0  0
 21 22  1  0  0  0  0
 21 23  1  0  0  0  0
 13 24  1  0  0  0  0
 24 25  1  0  0  0  0
M  END
> <VConfSearch Rank>
631

> <Conf_Id>
146

> <Delta U+W>
2.553

> <U+W>
13.466

> <U>
15.643

> <W>
-2.176

> <W(PB)>
-4.307

> <W(SA)>
2.131

> <Valence>
18.916

> <Coulomb>
-7.506

> <VdW>
4.232

> <VdW6>
-13.632

> <VdW12>
17.864

> <Bond>
0.735

> <Angle>
9.140

> <Pdih>
9.042

> <Idih>
0.000

> <Tether>
0.000

$$$$
VeraChem MOL file


 25 25  0  0  0  0  0  0  0  0999 V2000     
   21.6672   17.7086   22.9675 C   0  0  0  0  0  0  0  0  0  0  0  0
   22.7540   17.8670   22.9856 H   0  0  0  0  0  0  0  0  0  0  0  0
   21.5220   16.6325   23.1345 H   0  0  0  0  0  0  0  0  0  0  0  0
   21.1266   18.0339   21.5525 C   0  0  0  0  0  0  0  0  0  0  0  0
   21.6193   17.3480   20.8499 H   0  0  0  0  0  0  0  0  0  0  0  0
   20.0624   17.7811   21.4837 H   0  0  0  0  0  0  0  0  0  0  0  0
   21.3777   19.4745   21.0407 C   0  0  0  0  0  0  0  0  0  0  0  0
   21.0471   19.5157   19.9938 H   0  0  0  0  0  0  0  0  0  0  0  0
   22.4585   19.6692   21.0196 H   0  0  0  0  0  0  0  0  0  0  0  0
   20.6735   20.6252   21.8059 C   0  0  0  0  0  0  0  0  0  0  0  0
   21.2434   20.8907   22.7020 H   0  0  0  0  0  0  0  0  0  0  0  0
   20.7314   21.5187   21.1696 H   0  0  0  0  0  0  0  0  0  0  0  0
   19.1906   20.3607   22.1735 C   0  0  0  0  0  0  0  0  0  0  0  0
   18.7881   19.5660   21.5310 H   0  0  0  0  0  0  0  0  0  0  0  0
   18.9635   19.9836   23.6594 C   0  0  0  0  0  0  0  0  0  0  0  0
   19.3962   20.7639   24.2995 H   0  0  0  0  0  0  0  0  0  0  0  0
   17.8831   20.0063   23.8535 H   0  0  0  0  0  0  0  0  0  0  0  0
   19.4855   18.5952   24.1190 C   0  0  0  0  0  0  0  0  0  0  0  0
   19.0372   17.7923   23.5197 H   0  0  0  0  0  0  0  0  0  0  0  0
   19.1114   18.4339   25.1393 H   0  0  0  0  0  0  0  0  0  0  0  0
   21.0298   18.4624   24.1633 C   0  0  0  0  0  0  0  0  0  0  0  0
   21.2991   17.9091   25.0734 H   0  0  0  0  0  0  0  0  0  0  0  0
   21.4971   19.4450   24.2938 H   0  0  0  0  0  0  0  0  0  0  0  0
   18.4536   21.5518   21.9218 O   0  0  0  0  0  0  0  0  0  0  0  0
   17.5128   21.3466   22.1035 H   0  0  0  0  0  0  0  0  0  0  0  0
  1  2  1  0  0  0  0
  1  3  1  0  0  0  0
  1  4  1  0  0  0  0
  4  5  1  0  0  0  0
  4  6  1  0  0  0  0
  4  7  1  0  0  0  0
  7  8  1  0  0  0  0
  7  9  1  0  0  0  0
  7 10  1  0  0  0  0
 10 11  1  0  0  0  0
 10 12  1  0  0  0  0
 10 13  1  0  0  0  0
 13 14  1  0  0  0  0
 13 15  1  0  0  0  0
 15 16  1  0  0  0  0
 15 17  1  0  0  0  0
 15 18  1  0  0  0  0
 18 19  1  0  0  0  0
 18 20  1  0  0  0  0
  1 21  1  0  0  0  0
 18 21  1  0  0  0  0
 21 22  1  0  0  0  0
 21 23  1  0  0  0  0
 13 24  1  0  0  0  0
 24 25  1  0  0  0  0
M  END
> <VConfSearch Rank>
632

> <Conf_Id>
62

> <Delta U+W>
-1.779

> <U+W>
9.134

> <U>
11.364

> <W>
-2.230

> <W(PB)>
-4.359

> <W(SA)>
2.129

> <Valence>
16.582

> <Coulomb>
-8.150

> <VdW>
2.933

> <VdW6>
-12.531

> <VdW12>
15.464

> <Bond>
0.439

> <Angle>
5.099

> <Pdih>
11.044

> <Idih>
0.000

> <Tether>
0.000

$$$$
VeraChem MOL file


 25 25  0  0  0  0  0  0  0  0999 V2000     
   19.9919   20.5277   23.9245 C   0  0  0  0  0  0  0  0  0  0  0  0
   20.8976   20.8823   23.4194 H   0  0  0  0  0  0  0  0  0  0  0  0
   19.7762   21.2973   24.6780 H   0  0  0  0  0  0  0  0  0  0  0  0
   20.2783   19.2080   24.6836 C   0  0  0  0  0  0  0  0  0  0  0  0
   21.0658   19.4169   25.4206 H   0  0  0  0  0  0  0  0  0  0  0  0
   19.3921   18.9260   25.2681 H   0  0  0  0  0  0  0  0  0  0  0  0
   20.7316   17.9906   23.8380 C   0  0  0  0  0  0  0  0  0  0  0  0
   19.8646   17.4779   23.4062 H   0  0  0  0  0  0  0  0  0  0  0  0
   21.1658   17.2581   24.5322 H   0  0  0  0  0  0  0  0  0  0  0  0
   21.7837   18.3008   22.7398 C   0  0  0  0  0  0  0  0  0  0  0  0
   22.3535   19.2059   22.9837 H   0  0  0  0  0  0  0  0  0  0  0  0
   22.5176   17.4844   22.7542 H   0  0  0  0  0  0  0  0  0  0  0  0
   21.2178   18.3872   21.2998 C   0  0  0  0  0  0  0  0  0  0  0  0
   20.6489   17.4683   21.0973 H   0  0  0  0  0  0  0  0  0  0  0  0
   20.3020   19.5980   20.9912 C   0  0  0  0  0  0  0  0  0  0  0  0
   20.8311   20.5392   21.1834 H   0  0  0  0  0  0  0  0  0  0  0  0
   20.1136   19.5889   19.9095 H   0  0  0  0  0  0  0  0  0  0  0  0
   18.9221   19.5749   21.7019 C   0  0  0  0  0  0  0  0  0  0  0  0
   18.6406   18.5481   21.9613 H   0  0  0  0  0  0  0  0  0  0  0  0
   18.1589   19.8945   20.9792 H   0  0  0  0  0  0  0  0  0  0  0  0
   18.7980   20.5024   22.9378 C   0  0  0  0  0  0  0  0  0  0  0  0
   17.8803   20.2469   23.4846 H   0  0  0  0  0  0  0  0  0  0  0  0
   18.6508   21.5284   22.5738 H   0  0  0  0  0  0  0  0  0  0  0  0
   22.3217   18.4472   20.4053 O   0  0  0  0  0  0  0  0  0  0  0  0
   22.8575   17.6420   20.5624 H   0  0  0  0  0  0  0  0  0  0  0  0
  1  2  1  0  0  0  0
  1  3  1  0  0  0  0
  1  4  1  0  0  0  0
  4  5  1  0  0  0  0
  4  6  1  0  0  0  0
  4  7  1  0  0  0  0
  7  8  1  0  0  0  0
  7  9  1  0  0  0  0
  7 10  1  0  0  0  0
 10 11  1  0  0  0  0
 10 12  1  0  0  0  0
 10 13  1  0  0  0  0
 13 14  1  0  0  0  0
 13 15  1  0  0  0  0
 15 16  1  0  0  0  0
 15 17  1  0  0  0  0
 15 18  1  0  0  0  0
 18 19  1  0  0  0  0
 18 20  1  0  0  0  0
  1 21  1  0  0  0  0
 18 21  1  0  0  0  0
 21 22  1  0  0  0  0
 21 23  1  0  0  0  0
 13 24  1  0  0  0  0
 24 25  1  0  0  0  0
M  END
> <VConfSearch Rank>
633

> <Conf_Id>
121

> <Delta U+W>
-1.283

> <U+W>
9.630

> <U>
11.876

> <W>
-2.246

> <W(PB)>
-4.376

> <W(SA)>
2.130

> <Valence>
17.153

> <Coulomb>
-7.966

> <VdW>
2.689

> <VdW6>
-12.458

> <VdW12>
15.147

> <Bond>
0.421

> <Angle>
5.258

> <Pdih>
11.475

> <Idih>
0.000

> <Tether>
0.000

$$$$
VeraChem MOL file


 25 25  0  0  0  0  0  0  0  0999 V2000     
   20.7682   17.9629   23.9455 C   0  0  0  0  0  0  0  0  0  0  0  0
   19.8402   17.5980   23.4906 H   0  0  0  0  0  0  0  0  0  0  0  0
   21.0340   17.1954   24.6851 H   0  0  0  0  0  0  0  0  0  0  0  0
   20.5085   19.2787   24.7207 C   0  0  0  0  0  0  0  0  0  0  0  0
   19.7660   19.0598   25.5002 H   0  0  0  0  0  0  0  0  0  0  0  0
   21.4224   19.5716   25.2551 H   0  0  0  0  0  0  0  0  0  0  0  0
   19.9934   20.4907   23.9031 C   0  0  0  0  0  0  0  0  0  0  0  0
   20.8284   21.0167   23.4267 H   0  0  0  0  0  0  0  0  0  0  0  0
   19.5857   21.2158   24.6208 H   0  0  0  0  0  0  0  0  0  0  0  0
   18.8889   20.1669   22.8615 C   0  0  0  0  0  0  0  0  0  0  0  0
   18.3419   19.2562   23.1340 H   0  0  0  0  0  0  0  0  0  0  0  0
   18.1463   20.9744   22.9096 H   0  0  0  0  0  0  0  0  0  0  0  0
   19.3761   20.0891   21.3930 C   0  0  0  0  0  0  0  0  0  0  0  0
   19.9198   21.0169   21.1639 H   0  0  0  0  0  0  0  0  0  0  0  0
   20.2889   18.8897   21.0328 C   0  0  0  0  0  0  0  0  0  0  0  0
   19.7835   17.9418   21.2549 H   0  0  0  0  0  0  0  0  0  0  0  0
   20.4236   18.8972   19.9432 H   0  0  0  0  0  0  0  0  0  0  0  0
   21.7038   18.9307   21.6697 C   0  0  0  0  0  0  0  0  0  0  0  0
   21.9845   19.9608   21.9170 H   0  0  0  0  0  0  0  0  0  0  0  0
   22.4325   18.6232   20.9072 H   0  0  0  0  0  0  0  0  0  0  0  0
   21.9057   18.0026   22.8947 C   0  0  0  0  0  0  0  0  0  0  0  0
   22.8490   18.2676   23.3910 H   0  0  0  0  0  0  0  0  0  0  0  0
   22.0441   16.9788   22.5210 H   0  0  0  0  0  0  0  0  0  0  0  0
   18.2234   20.0185   20.5632 O   0  0  0  0  0  0  0  0  0  0  0  0
   18.5402   20.0386   19.6362 H   0  0  0  0  0  0  0  0  0  0  0  0
  1  2  1  0  0  0  0
  1  3  1  0  0  0  0
  1  4  1  0  0  0  0
  4  5  1  0  0  0  0
  4  6  1  0  0  0  0
  4  7  1  0  0  0  0
  7  8  1  0  0  0  0
  7  9  1  0  0  0  0
  7 10  1  0  0  0  0
 10 11  1  0  0  0  0
 10 12  1  0  0  0  0
 10 13  1  0  0  0  0
 13 14  1  0  0  0  0
 13 15  1  0  0  0  0
 15 16  1  0  0  0  0
 15 17  1  0  0  0  0
 15 18  1  0  0  0  0
 18 19  1  0  0  0  0
 18 20  1  0  0  0  0
  1 21  1  0  0  0  0
 18 21  1  0  0  0  0
 21 22  1  0  0  0  0
 21 23  1  0  0  0  0
 13 24  1  0  0  0  0
 24 25  1  0  0  0  0
M  END
> <VConfSearch Rank>
634

> <Conf_Id>
24

> <Delta U+W>
-1.236

> <U+W>
9.678

> <U>
11.876

> <W>
-2.199

> <W(PB)>
-4.335

> <W(SA)>
2.137

> <Valence>
17.153

> <Coulomb>
-7.966

> <VdW>
2.689

> <VdW6>
-12.458

> <VdW12>
15.147

> <Bond>
0.421

> <Angle>
5.258

> <Pdih>
11.475

> <Idih>
0.000

> <Tether>
0.000

$$$$
VeraChem MOL file


 25 25  0  0  0  0  0  0  0  0999 V2000     
   18.8899   17.5407   22.5157 C   0  0  0  0  0  0  0  0  0  0  0  0
   19.1946   16.4954   22.6618 H   0  0  0  0  0  0  0  0  0  0  0  0
   17.8259   17.5048   22.2446 H   0  0  0  0  0  0  0  0  0  0  0  0
   19.0129   18.2929   23.8675 C   0  0  0  0  0  0  0  0  0  0  0  0
   18.4245   19.2190   23.8494 H   0  0  0  0  0  0  0  0  0  0  0  0
   18.5247   17.6669   24.6271 H   0  0  0  0  0  0  0  0  0  0  0  0
   20.4538   18.5907   24.3510 C   0  0  0  0  0  0  0  0  0  0  0  0
   21.1377   17.7818   24.0606 H   0  0  0  0  0  0  0  0  0  0  0  0
   20.4315   18.5726   25.4494 H   0  0  0  0  0  0  0  0  0  0  0  0
   21.0166   19.9790   23.9342 C   0  0  0  0  0  0  0  0  0  0  0  0
   20.2270   20.7411   23.9496 H   0  0  0  0  0  0  0  0  0  0  0  0
   21.7281   20.2763   24.7168 H   0  0  0  0  0  0  0  0  0  0  0  0
   21.7669   20.0011   22.5801 C   0  0  0  0  0  0  0  0  0  0  0  0
   22.2024   19.0082   22.4064 H   0  0  0  0  0  0  0  0  0  0  0  0
   20.9111   20.4066   21.3533 C   0  0  0  0  0  0  0  0  0  0  0  0
   20.6937   21.4817   21.4001 H   0  0  0  0  0  0  0  0  0  0  0  0
   21.5271   20.2620   20.4559 H   0  0  0  0  0  0  0  0  0  0  0  0
   19.5732   19.6511   21.1532 C   0  0  0  0  0  0  0  0  0  0  0  0
   19.2050   19.8724   20.1421 H   0  0  0  0  0  0  0  0  0  0  0  0
   18.8114   20.0643   21.8245 H   0  0  0  0  0  0  0  0  0  0  0  0
   19.6841   18.1141   21.3166 C   0  0  0  0  0  0  0  0  0  0  0  0
   20.7317   17.7986   21.3842 H   0  0  0  0  0  0  0  0  0  0  0  0
   19.3085   17.6358   20.4017 H   0  0  0  0  0  0  0  0  0  0  0  0
   22.8349   20.9348   22.6758 O   0  0  0  0  0  0  0  0  0  0  0  0
   22.4256   21.8070   22.8507 H   0  0  0  0  0  0  0  0  0  0  0  0
  1  2  1  0  0  0  0
  1  3  1  0  0  0  0
  1  4  1  0  0  0  0
  4  5  1  0  0  0  0
  4  6  1  0  0  0  0
  4  7  1  0  0  0  0
  7  8  1  0  0  0  0
  7  9  1  0  0  0  0
  7 10  1  0  0  0  0
 10 11  1  0  0  0  0
 10 12  1  0  0  0  0
 10 13  1  0  0  0  0
 13 14  1  0  0  0  0
 13 15  1  0  0  0  0
 15 16  1  0  0  0  0
 15 17  1  0  0  0  0
 15 18  1  0  0  0  0
 18 19  1  0  0  0  0
 18 20  1  0  0  0  0
  1 21  1  0  0  0  0
 18 21  1  0  0  0  0
 21 22  1  0  0  0  0
 21 23  1  0  0  0  0
 13 24  1  0  0  0  0
 24 25  1  0  0  0  0
M  END
> <VConfSearch Rank>
635

> <Conf_Id>
167

> <Delta U+W>
0.388

> <U+W>
11.301

> <U>
13.202

> <W>
-1.901

> <W(PB)>
-4.065

> <W(SA)>
2.163

> <Valence>
18.957

> <Coulomb>
-8.753

> <VdW>
2.998

> <VdW6>
-12.294

> <VdW12>
15.292

> <Bond>
0.419

> <Angle>
4.543

> <Pdih>
13.996

> <Idih>
0.000

> <Tether>
0.000

$$$$
VeraChem MOL file


 25 25  0  0  0  0  0  0  0  0999 V2000     
   21.4397   18.5563   24.2411 C   0  0  0  0  0  0  0  0  0  0  0  0
   22.3896   18.0288   24.0802 H   0  0  0  0  0  0  0  0  0  0  0  0
   21.3203   18.6249   25.3311 H   0  0  0  0  0  0  0  0  0  0  0  0
   20.2812   17.6825   23.6938 C   0  0  0  0  0  0  0  0  0  0  0  0
   20.5646   17.2157   22.7438 H   0  0  0  0  0  0  0  0  0  0  0  0
   20.1597   16.8385   24.3866 H   0  0  0  0  0  0  0  0  0  0  0  0
   18.9116   18.3977   23.5615 C   0  0  0  0  0  0  0  0  0  0  0  0
   18.8372   19.2404   24.2609 H   0  0  0  0  0  0  0  0  0  0  0  0
   18.1365   17.6888   23.8834 H   0  0  0  0  0  0  0  0  0  0  0  0
   18.5458   18.8444   22.1197 C   0  0  0  0  0  0  0  0  0  0  0  0
   18.5875   17.9776   21.4473 H   0  0  0  0  0  0  0  0  0  0  0  0
   17.4945   19.1615   22.1290 H   0  0  0  0  0  0  0  0  0  0  0  0
   19.3791   20.0006   21.5128 C   0  0  0  0  0  0  0  0  0  0  0  0
   19.3631   20.8552   22.2023 H   0  0  0  0  0  0  0  0  0  0  0  0
   20.8456   19.6190   21.1836 C   0  0  0  0  0  0  0  0  0  0  0  0
   20.9358   18.5340   21.0697 H   0  0  0  0  0  0  0  0  0  0  0  0
   21.1157   20.0192   20.1973 H   0  0  0  0  0  0  0  0  0  0  0  0
   21.9009   20.1409   22.1930 C   0  0  0  0  0  0  0  0  0  0  0  0
   22.0660   21.2075   21.9876 H   0  0  0  0  0  0  0  0  0  0  0  0
   22.8612   19.6470   21.9920 H   0  0  0  0  0  0  0  0  0  0  0  0
   21.5597   20.0025   23.6981 C   0  0  0  0  0  0  0  0  0  0  0  0
   20.6593   20.5772   23.9436 H   0  0  0  0  0  0  0  0  0  0  0  0
   22.3638   20.4959   24.2608 H   0  0  0  0  0  0  0  0  0  0  0  0
   18.7397   20.3943   20.3044 O   0  0  0  0  0  0  0  0  0  0  0  0
   19.2339   21.1696   19.9650 H   0  0  0  0  0  0  0  0  0  0  0  0
  1  2  1  0  0  0  0
  1  3  1  0  0  0  0
  1  4  1  0  0  0  0
  4  5  1  0  0  0  0
  4  6  1  0  0  0  0
  4  7  1  0  0  0  0
  7  8  1  0  0  0  0
  7  9  1  0  0  0  0
  7 10  1  0  0  0  0
 10 11  1  0  0  0  0
 10 12  1  0  0  0  0
 10 13  1  0  0  0  0
 13 14  1  0  0  0  0
 13 15  1  0  0  0  0
 15 16  1  0  0  0  0
 15 17  1  0  0  0  0
 15 18  1  0  0  0  0
 18 19  1  0  0  0  0
 18 20  1  0  0  0  0
  1 21  1  0  0  0  0
 18 21  1  0  0  0  0
 21 22  1  0  0  0  0
 21 23  1  0  0  0  0
 13 24  1  0  0  0  0
 24 25  1  0  0  0  0
M  END
> <VConfSearch Rank>
636

> <Conf_Id>
60

> <Delta U+W>
-1.838

> <U+W>
9.075

> <U>
11.150

> <W>
-2.074

> <W(PB)>
-4.196

> <W(SA)>
2.121

> <Valence>
16.582

> <Coulomb>
-8.361

> <VdW>
2.928

> <VdW6>
-12.539

> <VdW12>
15.467

> <Bond>
0.441

> <Angle>
5.093

> <Pdih>
11.049

> <Idih>
0.000

> <Tether>
0.000

$$$$
VeraChem MOL file


 25 25  0  0  0  0  0  0  0  0999 V2000     
   18.9913   19.6389   24.1661 C   0  0  0  0  0  0  0  0  0  0  0  0
   18.0919   19.0314   24.3350 H   0  0  0  0  0  0  0  0  0  0  0  0
   18.9471   20.4460   24.9101 H   0  0  0  0  0  0  0  0  0  0  0  0
   18.9084   20.2968   22.7658 C   0  0  0  0  0  0  0  0  0  0  0  0
   18.0156   20.9368   22.7592 H   0  0  0  0  0  0  0  0  0  0  0  0
   19.7449   20.9899   22.6207 H   0  0  0  0  0  0  0  0  0  0  0  0
   18.7880   19.3285   21.5621 C   0  0  0  0  0  0  0  0  0  0  0  0
   18.6224   19.9372   20.6627 H   0  0  0  0  0  0  0  0  0  0  0  0
   17.8832   18.7166   21.6782 H   0  0  0  0  0  0  0  0  0  0  0  0
   19.9955   18.3944   21.2898 C   0  0  0  0  0  0  0  0  0  0  0  0
   19.9562   17.5231   21.9514 H   0  0  0  0  0  0  0  0  0  0  0  0
   19.8612   17.9773   20.2829 H   0  0  0  0  0  0  0  0  0  0  0  0
   21.3854   19.0752   21.3865 C   0  0  0  0  0  0  0  0  0  0  0  0
   21.2738   20.1636   21.2906 H   0  0  0  0  0  0  0  0  0  0  0  0
   22.1554   18.7581   22.6926 C   0  0  0  0  0  0  0  0  0  0  0  0
   22.2394   17.6695   22.8071 H   0  0  0  0  0  0  0  0  0  0  0  0
   23.1838   19.1229   22.5694 H   0  0  0  0  0  0  0  0  0  0  0  0
   21.5956   19.3736   24.0041 C   0  0  0  0  0  0  0  0  0  0  0  0
   21.5406   20.4672   23.9284 H   0  0  0  0  0  0  0  0  0  0  0  0
   22.3362   19.1775   24.7915 H   0  0  0  0  0  0  0  0  0  0  0  0
   20.2438   18.7788   24.4773 C   0  0  0  0  0  0  0  0  0  0  0  0
   20.2879   18.6574   25.5683 H   0  0  0  0  0  0  0  0  0  0  0  0
   20.1174   17.7595   24.0953 H   0  0  0  0  0  0  0  0  0  0  0  0
   22.1831   18.6144   20.3023 O   0  0  0  0  0  0  0  0  0  0  0  0
   21.7207   18.8811   19.4804 H   0  0  0  0  0  0  0  0  0  0  0  0
  1  2  1  0  0  0  0
  1  3  1  0  0  0  0
  1  4  1  0  0  0  0
  4  5  1  0  0  0  0
  4  6  1  0  0  0  0
  4  7  1  0  0  0  0
  7  8  1  0  0  0  0
  7  9  1  0  0  0  0
  7 10  1  0  0  0  0
 10 11  1  0  0  0  0
 10 12  1  0  0  0  0
 10 13  1  0  0  0  0
 13 14  1  0  0  0  0
 13 15  1  0  0  0  0
 15 16  1  0  0  0  0
 15 17  1  0  0  0  0
 15 18  1  0  0  0  0
 18 19  1  0  0  0  0
 18 20  1  0  0  0  0
  1 21  1  0  0  0  0
 18 21  1  0  0  0  0
 21 22  1  0  0  0  0
 21 23  1  0  0  0  0
 13 24  1  0  0  0  0
 24 25  1  0  0  0  0
M  END
> <VConfSearch Rank>
637

> <Conf_Id>
129

> <Delta U+W>
-1.846

> <U+W>
9.067

> <U>
11.150

> <W>
-2.083

> <W(PB)>
-4.217

> <W(SA)>
2.134

> <Valence>
16.583

> <Coulomb>
-8.361

> <VdW>
2.928

> <VdW6>
-12.539

> <VdW12>
15.467

> <Bond>
0.441

> <Angle>
5.093

> <Pdih>
11.049

> <Idih>
0.000

> <Tether>
0.000

$$$$
VeraChem MOL file


 25 25  0  0  0  0  0  0  0  0999 V2000     
   18.3035   19.2331   22.0075 C   0  0  0  0  0  0  0  0  0  0  0  0
   17.6621   18.3501   22.1310 H   0  0  0  0  0  0  0  0  0  0  0  0
   17.6716   19.9934   21.5284 H   0  0  0  0  0  0  0  0  0  0  0  0
   19.4509   18.8981   21.0218 C   0  0  0  0  0  0  0  0  0  0  0  0
   18.9881   18.6326   20.0615 H   0  0  0  0  0  0  0  0  0  0  0  0
   20.0410   19.7956   20.8042 H   0  0  0  0  0  0  0  0  0  0  0  0
   20.3766   17.7233   21.4258 C   0  0  0  0  0  0  0  0  0  0  0  0
   21.0569   17.5343   20.5840 H   0  0  0  0  0  0  0  0  0  0  0  0
   19.7770   16.8095   21.5349 H   0  0  0  0  0  0  0  0  0  0  0  0
   21.2402   17.9143   22.6998 C   0  0  0  0  0  0  0  0  0  0  0  0
   20.6463   17.7001   23.5942 H   0  0  0  0  0  0  0  0  0  0  0  0
   22.0101   17.1310   22.6843 H   0  0  0  0  0  0  0  0  0  0  0  0
   21.9237   19.3003   22.8277 C   0  0  0  0  0  0  0  0  0  0  0  0
   21.9739   19.7806   21.8415 H   0  0  0  0  0  0  0  0  0  0  0  0
   21.2337   20.2606   23.8289 C   0  0  0  0  0  0  0  0  0  0  0  0
   21.1543   19.7719   24.8088 H   0  0  0  0  0  0  0  0  0  0  0  0
   21.8994   21.1213   23.9782 H   0  0  0  0  0  0  0  0  0  0  0  0
   19.8418   20.8158   23.4222 C   0  0  0  0  0  0  0  0  0  0  0  0
   19.8996   21.3485   22.4642 H   0  0  0  0  0  0  0  0  0  0  0  0
   19.5744   21.5836   24.1611 H   0  0  0  0  0  0  0  0  0  0  0  0
   18.7015   19.7649   23.4086 C   0  0  0  0  0  0  0  0  0  0  0  0
   17.8054   20.2279   23.8441 H   0  0  0  0  0  0  0  0  0  0  0  0
   18.9349   18.9348   24.0849 H   0  0  0  0  0  0  0  0  0  0  0  0
   23.2549   19.0986   23.2854 O   0  0  0  0  0  0  0  0  0  0  0  0
   23.1836   18.6744   24.1652 H   0  0  0  0  0  0  0  0  0  0  0  0
  1  2  1  0  0  0  0
  1  3  1  0  0  0  0
  1  4  1  0  0  0  0
  4  5  1  0  0  0  0
  4  6  1  0  0  0  0
  4  7  1  0  0  0  0
  7  8  1  0  0  0  0
  7  9  1  0  0  0  0
  7 10  1  0  0  0  0
 10 11  1  0  0  0  0
 10 12  1  0  0  0  0
 10 13  1  0  0  0  0
 13 14  1  0  0  0  0
 13 15  1  0  0  0  0
 15 16  1  0  0  0  0
 15 17  1  0  0  0  0
 15 18  1  0  0  0  0
 18 19  1  0  0  0  0
 18 20  1  0  0  0  0
  1 21  1  0  0  0  0
 18 21  1  0  0  0  0
 21 22  1  0  0  0  0
 21 23  1  0  0  0  0
 13 24  1  0  0  0  0
 24 25  1  0  0  0  0
M  END
> <VConfSearch Rank>
638

> <Conf_Id>
140

> <Delta U+W>
-1.702

> <U+W>
9.211

> <U>
11.181

> <W>
-1.969

> <W(PB)>
-4.093

> <W(SA)>
2.124

> <Valence>
16.954

> <Coulomb>
-8.661

> <VdW>
2.887

> <VdW6>
-12.561

> <VdW12>
15.448

> <Bond>
0.433

> <Angle>
5.120

> <Pdih>
11.401

> <Idih>
0.000

> <Tether>
0.000

$$$$
VeraChem MOL file


 25 25  0  0  0  0  0  0  0  0999 V2000     
   21.6599   20.6840   22.9390 C   0  0  0  0  0  0  0  0  0  0  0  0
   21.7409   21.5196   22.2306 H   0  0  0  0  0  0  0  0  0  0  0  0
   22.4219   20.8724   23.7076 H   0  0  0  0  0  0  0  0  0  0  0  0
   22.0396   19.3690   22.2103 C   0  0  0  0  0  0  0  0  0  0  0  0
   21.6165   19.3514   21.1996 H   0  0  0  0  0  0  0  0  0  0  0  0
   23.1264   19.3914   22.0507 H   0  0  0  0  0  0  0  0  0  0  0  0
   21.6909   18.0629   22.9699 C   0  0  0  0  0  0  0  0  0  0  0  0
   21.6418   18.2365   24.0526 H   0  0  0  0  0  0  0  0  0  0  0  0
   22.5282   17.3656   22.8294 H   0  0  0  0  0  0  0  0  0  0  0  0
   20.4109   17.3406   22.4689 C   0  0  0  0  0  0  0  0  0  0  0  0
   20.5068   17.1419   21.3935 H   0  0  0  0  0  0  0  0  0  0  0  0
   20.3797   16.3550   22.9524 H   0  0  0  0  0  0  0  0  0  0  0  0
   19.0577   18.0431   22.7451 C   0  0  0  0  0  0  0  0  0  0  0  0
   18.9787   18.2676   23.8171 H   0  0  0  0  0  0  0  0  0  0  0  0
   18.8321   19.3378   21.9220 C   0  0  0  0  0  0  0  0  0  0  0  0
   19.4571   19.3297   21.0232 H   0  0  0  0  0  0  0  0  0  0  0  0
   17.8013   19.3506   21.5427 H   0  0  0  0  0  0  0  0  0  0  0  0
   19.0405   20.6592   22.7067 C   0  0  0  0  0  0  0  0  0  0  0  0
   18.1496   20.8253   23.3277 H   0  0  0  0  0  0  0  0  0  0  0  0
   19.0678   21.4959   21.9955 H   0  0  0  0  0  0  0  0  0  0  0  0
   20.2774   20.7368   23.6363 C   0  0  0  0  0  0  0  0  0  0  0  0
   20.2169   19.9746   24.4215 H   0  0  0  0  0  0  0  0  0  0  0  0
   20.2206   21.6927   24.1747 H   0  0  0  0  0  0  0  0  0  0  0  0
   18.0277   17.1205   22.4133 O   0  0  0  0  0  0  0  0  0  0  0  0
   18.1216   16.9335   21.4566 H   0  0  0  0  0  0  0  0  0  0  0  0
  1  2  1  0  0  0  0
  1  3  1  0  0  0  0
  1  4  1  0  0  0  0
  4  5  1  0  0  0  0
  4  6  1  0  0  0  0
  4  7  1  0  0  0  0
  7  8  1  0  0  0  0
  7  9  1  0  0  0  0
  7 10  1  0  0  0  0
 10 11  1  0  0  0  0
 10 12  1  0  0  0  0
 10 13  1  0  0  0  0
 13 14  1  0  0  0  0
 13 15  1  0  0  0  0
 15 16  1  0  0  0  0
 15 17  1  0  0  0  0
 15 18  1  0  0  0  0
 18 19  1  0  0  0  0
 18 20  1  0  0  0  0
  1 21  1  0  0  0  0
 18 21  1  0  0  0  0
 21 22  1  0  0  0  0
 21 23  1  0  0  0  0
 13 24  1  0  0  0  0
 24 25  1  0  0  0  0
M  END
> <VConfSearch Rank>
639

> <Conf_Id>
68

> <Delta U+W>
-1.765

> <U+W>
9.148

> <U>
11.181

> <W>
-2.032

> <W(PB)>
-4.147

> <W(SA)>
2.114

> <Valence>
16.955

> <Coulomb>
-8.661

> <VdW>
2.887

> <VdW6>
-12.561

> <VdW12>
15.448

> <Bond>
0.433

> <Angle>
5.121

> <Pdih>
11.402

> <Idih>
0.000

> <Tether>
0.000

$$$$
VeraChem MOL file


 25 25  0  0  0  0  0  0  0  0999 V2000     
   18.5437   18.4853   22.3359 C   0  0  0  0  0  0  0  0  0  0  0  0
   17.5568   18.0104   22.2486 H   0  0  0  0  0  0  0  0  0  0  0  0
   18.7513   18.8663   21.3296 H   0  0  0  0  0  0  0  0  0  0  0  0
   19.5709   17.3914   22.7277 C   0  0  0  0  0  0  0  0  0  0  0  0
   19.7203   17.3600   23.8146 H   0  0  0  0  0  0  0  0  0  0  0  0
   19.1303   16.4181   22.4718 H   0  0  0  0  0  0  0  0  0  0  0  0
   20.9313   17.4807   21.9874 C   0  0  0  0  0  0  0  0  0  0  0  0
   20.7577   17.4623   20.9027 H   0  0  0  0  0  0  0  0  0  0  0  0
   21.4935   16.5637   22.2110 H   0  0  0  0  0  0  0  0  0  0  0  0
   21.8389   18.6889   22.3410 C   0  0  0  0  0  0  0  0  0  0  0  0
   22.0482   18.7069   23.4173 H   0  0  0  0  0  0  0  0  0  0  0  0
   22.8101   18.5056   21.8615 H   0  0  0  0  0  0  0  0  0  0  0  0
   21.3002   20.0606   21.8581 C   0  0  0  0  0  0  0  0  0  0  0  0
   20.5641   19.8956   21.0629 H   0  0  0  0  0  0  0  0  0  0  0  0
   20.6630   20.9340   22.9668 C   0  0  0  0  0  0  0  0  0  0  0  0
   21.4685   21.3868   23.5599 H   0  0  0  0  0  0  0  0  0  0  0  0
   20.1355   21.7698   22.4889 H   0  0  0  0  0  0  0  0  0  0  0  0
   19.6993   20.2300   23.9566 C   0  0  0  0  0  0  0  0  0  0  0  0
   19.4054   20.9727   24.7108 H   0  0  0  0  0  0  0  0  0  0  0  0
   20.2298   19.4560   24.5231 H   0  0  0  0  0  0  0  0  0  0  0  0
   18.3977   19.6532   23.3458 C   0  0  0  0  0  0  0  0  0  0  0  0
   17.8276   20.4643   22.8728 H   0  0  0  0  0  0  0  0  0  0  0  0
   17.7740   19.2994   24.1781 H   0  0  0  0  0  0  0  0  0  0  0  0
   22.3792   20.7996   21.2992 O   0  0  0  0  0  0  0  0  0  0  0  0
   23.0331   20.9216   22.0178 H   0  0  0  0  0  0  0  0  0  0  0  0
  1  2  1  0  0  0  0
  1  3  1  0  0  0  0
  1  4  1  0  0  0  0
  4  5  1  0  0  0  0
  4  6  1  0  0  0  0
  4  7  1  0  0  0  0
  7  8  1  0  0  0  0
  7  9  1  0  0  0  0
  7 10  1  0  0  0  0
 10 11  1  0  0  0  0
 10 12  1  0  0  0  0
 10 13  1  0  0  0  0
 13 14  1  0  0  0  0
 13 15  1  0  0  0  0
 15 16  1  0  0  0  0
 15 17  1  0  0  0  0
 15 18  1  0  0  0  0
 18 19  1  0  0  0  0
 18 20  1  0  0  0  0
  1 21  1  0  0  0  0
 18 21  1  0  0  0  0
 21 22  1  0  0  0  0
 21 23  1  0  0  0  0
 13 24  1  0  0  0  0
 24 25  1  0  0  0  0
M  END
> <VConfSearch Rank>
640

> <Conf_Id>
165

> <Delta U+W>
-1.999

> <U+W>
8.915

> <U>
10.935

> <W>
-2.020

> <W(PB)>
-4.135

> <W(SA)>
2.115

> <Valence>
16.757

> <Coulomb>
-8.731

> <VdW>
2.908

> <VdW6>
-12.597

> <VdW12>
15.506

> <Bond>
0.434

> <Angle>
5.069

> <Pdih>
11.254

> <Idih>
0.000

> <Tether>
0.000

$$$$
VeraChem MOL file


 25 25  0  0  0  0  0  0  0  0999 V2000     
   20.6567   17.5075   21.9836 C   0  0  0  0  0  0  0  0  0  0  0  0
   20.9017   16.4869   21.6589 H   0  0  0  0  0  0  0  0  0  0  0  0
   20.0453   17.9116   21.1689 H   0  0  0  0  0  0  0  0  0  0  0  0
   21.9962   18.2803   22.1009 C   0  0  0  0  0  0  0  0  0  0  0  0
   22.7292   17.6091   22.5693 H   0  0  0  0  0  0  0  0  0  0  0  0
   22.3816   18.4813   21.0921 H   0  0  0  0  0  0  0  0  0  0  0  0
   21.9875   19.5964   22.9184 C   0  0  0  0  0  0  0  0  0  0  0  0
   23.0252   19.9517   22.9778 H   0  0  0  0  0  0  0  0  0  0  0  0
   21.7038   19.3970   23.9581 H   0  0  0  0  0  0  0  0  0  0  0  0
   21.1359   20.7542   22.3368 C   0  0  0  0  0  0  0  0  0  0  0  0
   21.3164   21.6403   22.9602 H   0  0  0  0  0  0  0  0  0  0  0  0
   21.5140   21.0050   21.3373 H   0  0  0  0  0  0  0  0  0  0  0  0
   19.6064   20.5302   22.2462 C   0  0  0  0  0  0  0  0  0  0  0  0
   19.3844   19.8949   21.3808 H   0  0  0  0  0  0  0  0  0  0  0  0
   18.9697   19.8985   23.5110 C   0  0  0  0  0  0  0  0  0  0  0  0
   19.5974   20.0731   24.3928 H   0  0  0  0  0  0  0  0  0  0  0  0
   18.0274   20.4216   23.7231 H   0  0  0  0  0  0  0  0  0  0  0  0
   18.6284   18.3903   23.3766 C   0  0  0  0  0  0  0  0  0  0  0  0
   17.9741   18.2426   22.5066 H   0  0  0  0  0  0  0  0  0  0  0  0
   18.0259   18.1052   24.2498 H   0  0  0  0  0  0  0  0  0  0  0  0
   19.8277   17.4100   23.2909 C   0  0  0  0  0  0  0  0  0  0  0  0
   19.4147   16.3933   23.3447 H   0  0  0  0  0  0  0  0  0  0  0  0
   20.4711   17.5037   24.1751 H   0  0  0  0  0  0  0  0  0  0  0  0
   19.0026   21.7994   22.0222 O   0  0  0  0  0  0  0  0  0  0  0  0
   19.3901   22.1543   21.1950 H   0  0  0  0  0  0  0  0  0  0  0  0
  1  2  1  0  0  0  0
  1  3  1  0  0  0  0
  1  4  1  0  0  0  0
  4  5  1  0  0  0  0
  4  6  1  0  0  0  0
  4  7  1  0  0  0  0
  7  8  1  0  0  0  0
  7  9  1  0  0  0  0
  7 10  1  0  0  0  0
 10 11  1  0  0  0  0
 10 12  1  0  0  0  0
 10 13  1  0  0  0  0
 13 14  1  0  0  0  0
 13 15  1  0  0  0  0
 15 16  1  0  0  0  0
 15 17  1  0  0  0  0
 15 18  1  0  0  0  0
 18 19  1  0  0  0  0
 18 20  1  0  0  0  0
  1 21  1  0  0  0  0
 18 21  1  0  0  0  0
 21 22  1  0  0  0  0
 21 23  1  0  0  0  0
 13 24  1  0  0  0  0
 24 25  1  0  0  0  0
M  END
> <VConfSearch Rank>
641

> <Conf_Id>
133

> <Delta U+W>
-2.139

> <U+W>
8.774

> <U>
10.905

> <W>
-2.131

> <W(PB)>
-4.281

> <W(SA)>
2.150

> <Valence>
16.378

> <Coulomb>
-8.448

> <VdW>
2.976

> <VdW6>
-12.570

> <VdW12>
15.545

> <Bond>
0.439

> <Angle>
5.049

> <Pdih>
10.889

> <Idih>
0.000

> <Tether>
0.000

$$$$
VeraChem MOL file


 25 25  0  0  0  0  0  0  0  0999 V2000     
   20.1062   18.7449   20.9008 C   0  0  0  0  0  0  0  0  0  0  0  0
   19.9435   18.3839   19.8760 H   0  0  0  0  0  0  0  0  0  0  0  0
   20.8807   19.5132   20.7978 H   0  0  0  0  0  0  0  0  0  0  0  0
   20.6261   17.5571   21.7519 C   0  0  0  0  0  0  0  0  0  0  0  0
   19.8028   17.0573   22.2783 H   0  0  0  0  0  0  0  0  0  0  0  0
   21.0216   16.8023   21.0585 H   0  0  0  0  0  0  0  0  0  0  0  0
   21.7724   17.9125   22.7351 C   0  0  0  0  0  0  0  0  0  0  0  0
   22.6035   18.3654   22.1774 H   0  0  0  0  0  0  0  0  0  0  0  0
   22.1683   16.9714   23.1404 H   0  0  0  0  0  0  0  0  0  0  0  0
   21.4031   18.8248   23.9352 C   0  0  0  0  0  0  0  0  0  0  0  0
   20.5952   18.3756   24.5248 H   0  0  0  0  0  0  0  0  0  0  0  0
   22.2728   18.8381   24.6060 H   0  0  0  0  0  0  0  0  0  0  0  0
   21.0589   20.2870   23.5510 C   0  0  0  0  0  0  0  0  0  0  0  0
   21.4694   20.4999   22.5570 H   0  0  0  0  0  0  0  0  0  0  0  0
   19.5461   20.6178   23.5606 C   0  0  0  0  0  0  0  0  0  0  0  0
   19.2283   20.7395   24.6049 H   0  0  0  0  0  0  0  0  0  0  0  0
   19.3971   21.5947   23.0829 H   0  0  0  0  0  0  0  0  0  0  0  0
   18.5923   19.5878   22.9023 C   0  0  0  0  0  0  0  0  0  0  0  0
   17.5655   19.9426   23.0649 H   0  0  0  0  0  0  0  0  0  0  0  0
   18.6401   18.6289   23.4312 H   0  0  0  0  0  0  0  0  0  0  0  0
   18.7704   19.3716   21.3786 C   0  0  0  0  0  0  0  0  0  0  0  0
   18.6166   20.3252   20.8555 H   0  0  0  0  0  0  0  0  0  0  0  0
   17.9551   18.7158   21.0436 H   0  0  0  0  0  0  0  0  0  0  0  0
   21.6915   21.1595   24.4806 O   0  0  0  0  0  0  0  0  0  0  0  0
   21.4949   22.0740   24.1883 H   0  0  0  0  0  0  0  0  0  0  0  0
  1  2  1  0  0  0  0
  1  3  1  0  0  0  0
  1  4  1  0  0  0  0
  4  5  1  0  0  0  0
  4  6  1  0  0  0  0
  4  7  1  0  0  0  0
  7  8  1  0  0  0  0
  7  9  1  0  0  0  0
  7 10  1  0  0  0  0
 10 11  1  0  0  0  0
 10 12  1  0  0  0  0
 10 13  1  0  0  0  0
 13 14  1  0  0  0  0
 13 15  1  0  0  0  0
 15 16  1  0  0  0  0
 15 17  1  0  0  0  0
 15 18  1  0  0  0  0
 18 19  1  0  0  0  0
 18 20  1  0  0  0  0
  1 21  1  0  0  0  0
 18 21  1  0  0  0  0
 21 22  1  0  0  0  0
 21 23  1  0  0  0  0
 13 24  1  0  0  0  0
 24 25  1  0  0  0  0
M  END
> <VConfSearch Rank>
642

> <Conf_Id>
95

> <Delta U+W>
-2.190

> <U+W>
8.723

> <U>
10.905

> <W>
-2.182

> <W(PB)>
-4.296

> <W(SA)>
2.114

> <Valence>
16.377

> <Coulomb>
-8.448

> <VdW>
2.976

> <VdW6>
-12.570

> <VdW12>
15.546

> <Bond>
0.439

> <Angle>
5.049

> <Pdih>
10.889

> <Idih>
0.000

> <Tether>
0.000

$$$$
VeraChem MOL file


 25 25  0  0  0  0  0  0  0  0999 V2000     
   20.7091   20.8867   23.1354 C   0  0  0  0  0  0  0  0  0  0  0  0
   20.8562   21.9503   23.3675 H   0  0  0  0  0  0  0  0  0  0  0  0
   21.7126   20.4625   23.2415 H   0  0  0  0  0  0  0  0  0  0  0  0
   20.2233   20.8061   21.6583 C   0  0  0  0  0  0  0  0  0  0  0  0
   19.5912   21.6853   21.4728 H   0  0  0  0  0  0  0  0  0  0  0  0
   21.0885   20.9230   20.9917 H   0  0  0  0  0  0  0  0  0  0  0  0
   19.4049   19.5625   21.2223 C   0  0  0  0  0  0  0  0  0  0  0  0
   19.0535   19.7387   20.1965 H   0  0  0  0  0  0  0  0  0  0  0  0
   18.4796   19.5162   21.8052 H   0  0  0  0  0  0  0  0  0  0  0  0
   20.1337   18.1858   21.2277 C   0  0  0  0  0  0  0  0  0  0  0  0
   19.3818   17.3865   21.2631 H   0  0  0  0  0  0  0  0  0  0  0  0
   20.6316   18.0821   20.2548 H   0  0  0  0  0  0  0  0  0  0  0  0
   21.2015   17.9252   22.3202 C   0  0  0  0  0  0  0  0  0  0  0  0
   21.9660   18.7048   22.2401 H   0  0  0  0  0  0  0  0  0  0  0  0
   20.6993   17.8381   23.7902 C   0  0  0  0  0  0  0  0  0  0  0  0
   20.3793   16.8043   23.9772 H   0  0  0  0  0  0  0  0  0  0  0  0
   21.5544   18.0073   24.4569 H   0  0  0  0  0  0  0  0  0  0  0  0
   19.5283   18.7587   24.2288 C   0  0  0  0  0  0  0  0  0  0  0  0
   19.2508   18.4767   25.2536 H   0  0  0  0  0  0  0  0  0  0  0  0
   18.6360   18.5115   23.6451 H   0  0  0  0  0  0  0  0  0  0  0  0
   19.7819   20.2946   24.2295 C   0  0  0  0  0  0  0  0  0  0  0  0
   20.2263   20.5539   25.2001 H   0  0  0  0  0  0  0  0  0  0  0  0
   18.8145   20.8142   24.2029 H   0  0  0  0  0  0  0  0  0  0  0  0
   21.8292   16.6855   22.0139 O   0  0  0  0  0  0  0  0  0  0  0  0
   22.1996   16.7714   21.1108 H   0  0  0  0  0  0  0  0  0  0  0  0
  1  2  1  0  0  0  0
  1  3  1  0  0  0  0
  1  4  1  0  0  0  0
  4  5  1  0  0  0  0
  4  6  1  0  0  0  0
  4  7  1  0  0  0  0
  7  8  1  0  0  0  0
  7  9  1  0  0  0  0
  7 10  1  0  0  0  0
 10 11  1  0  0  0  0
 10 12  1  0  0  0  0
 10 13  1  0  0  0  0
 13 14  1  0  0  0  0
 13 15  1  0  0  0  0
 15 16  1  0  0  0  0
 15 17  1  0  0  0  0
 15 18  1  0  0  0  0
 18 19  1  0  0  0  0
 18 20  1  0  0  0  0
  1 21  1  0  0  0  0
 18 21  1  0  0  0  0
 21 22  1  0  0  0  0
 21 23  1  0  0  0  0
 13 24  1  0  0  0  0
 24 25  1  0  0  0  0
M  END
> <VConfSearch Rank>
643

> <Conf_Id>
161

> <Delta U+W>
2.120

> <U+W>
13.033

> <U>
15.076

> <W>
-2.043

> <W(PB)>
-4.186

> <W(SA)>
2.143

> <Valence>
18.884

> <Coulomb>
-8.074

> <VdW>
4.266

> <VdW6>
-13.486

> <VdW12>
17.752

> <Bond>
0.713

> <Angle>
8.955

> <Pdih>
9.215

> <Idih>
0.000

> <Tether>
0.000

$$$$
VeraChem MOL file


 25 25  0  0  0  0  0  0  0  0999 V2000     
   21.0432   20.4808   21.3121 C   0  0  0  0  0  0  0  0  0  0  0  0
   21.5699   21.2929   20.7923 H   0  0  0  0  0  0  0  0  0  0  0  0
   20.3190   20.1033   20.5791 H   0  0  0  0  0  0  0  0  0  0  0  0
   20.2979   21.0929   22.5243 C   0  0  0  0  0  0  0  0  0  0  0  0
   20.9566   21.1454   23.4016 H   0  0  0  0  0  0  0  0  0  0  0  0
   20.0745   22.1373   22.2663 H   0  0  0  0  0  0  0  0  0  0  0  0
   18.9435   20.4176   22.8778 C   0  0  0  0  0  0  0  0  0  0  0  0
   18.4044   20.1119   21.9710 H   0  0  0  0  0  0  0  0  0  0  0  0
   18.3154   21.1905   23.3420 H   0  0  0  0  0  0  0  0  0  0  0  0
   19.0317   19.2447   23.8882 C   0  0  0  0  0  0  0  0  0  0  0  0
   19.8306   19.4384   24.6144 H   0  0  0  0  0  0  0  0  0  0  0  0
   18.1064   19.2436   24.4793 H   0  0  0  0  0  0  0  0  0  0  0  0
   19.1673   17.8256   23.2804 C   0  0  0  0  0  0  0  0  0  0  0  0
   18.2096   17.5693   22.8050 H   0  0  0  0  0  0  0  0  0  0  0  0
   20.2764   17.6341   22.2202 C   0  0  0  0  0  0  0  0  0  0  0  0
   20.4094   16.5570   22.0520 H   0  0  0  0  0  0  0  0  0  0  0  0
   19.9197   18.0182   21.2585 H   0  0  0  0  0  0  0  0  0  0  0  0
   21.6495   18.2561   22.5905 C   0  0  0  0  0  0  0  0  0  0  0  0
   22.4133   17.4670   22.5650 H   0  0  0  0  0  0  0  0  0  0  0  0
   21.6550   18.6199   23.6243 H   0  0  0  0  0  0  0  0  0  0  0  0
   22.1005   19.3952   21.6452 C   0  0  0  0  0  0  0  0  0  0  0  0
   22.4463   18.9535   20.7006 H   0  0  0  0  0  0  0  0  0  0  0  0
   22.9809   19.8809   22.0875 H   0  0  0  0  0  0  0  0  0  0  0  0
   19.4084   16.9146   24.3435 O   0  0  0  0  0  0  0  0  0  0  0  0
   20.3235   17.0892   24.6436 H   0  0  0  0  0  0  0  0  0  0  0  0
  1  2  1  0  0  0  0
  1  3  1  0  0  0  0
  1  4  1  0  0  0  0
  4  5  1  0  0  0  0
  4  6  1  0  0  0  0
  4  7  1  0  0  0  0
  7  8  1  0  0  0  0
  7  9  1  0  0  0  0
  7 10  1  0  0  0  0
 10 11  1  0  0  0  0
 10 12  1  0  0  0  0
 10 13  1  0  0  0  0
 13 14  1  0  0  0  0
 13 15  1  0  0  0  0
 15 16  1  0  0  0  0
 15 17  1  0  0  0  0
 15 18  1  0  0  0  0
 18 19  1  0  0  0  0
 18 20  1  0  0  0  0
  1 21  1  0  0  0  0
 18 21  1  0  0  0  0
 21 22  1  0  0  0  0
 21 23  1  0  0  0  0
 13 24  1  0  0  0  0
 24 25  1  0  0  0  0
M  END
> <VConfSearch Rank>
644

> <Conf_Id>
164

> <Delta U+W>
0.008

> <U+W>
10.922

> <U>
12.433

> <W>
-1.511

> <W(PB)>
-3.669

> <W(SA)>
2.157

> <Valence>
19.007

> <Coulomb>
-9.373

> <VdW>
2.799

> <VdW6>
-12.597

> <VdW12>
15.396

> <Bond>
0.425

> <Angle>
4.784

> <Pdih>
13.799

> <Idih>
0.000

> <Tether>
0.000

$$$$
VeraChem MOL file


 25 25  0  0  0  0  0  0  0  0999 V2000     
   19.8897   18.2676   21.1407 C   0  0  0  0  0  0  0  0  0  0  0  0
   20.1097   19.2811   20.7866 H   0  0  0  0  0  0  0  0  0  0  0  0
   19.6362   17.7062   20.2312 H   0  0  0  0  0  0  0  0  0  0  0  0
   18.6312   18.2719   22.0441 C   0  0  0  0  0  0  0  0  0  0  0  0
   17.7950   18.6516   21.4412 H   0  0  0  0  0  0  0  0  0  0  0  0
   18.3658   17.2375   22.3014 H   0  0  0  0  0  0  0  0  0  0  0  0
   18.6977   19.1125   23.3447 C   0  0  0  0  0  0  0  0  0  0  0  0
   19.1880   18.5461   24.1446 H   0  0  0  0  0  0  0  0  0  0  0  0
   17.6656   19.2471   23.6964 H   0  0  0  0  0  0  0  0  0  0  0  0
   19.3453   20.5150   23.1950 C   0  0  0  0  0  0  0  0  0  0  0  0
   19.2700   20.8738   22.1614 H   0  0  0  0  0  0  0  0  0  0  0  0
   18.7454   21.2165   23.7902 H   0  0  0  0  0  0  0  0  0  0  0  0
   20.8034   20.6179   23.7088 C   0  0  0  0  0  0  0  0  0  0  0  0
   20.8295   20.2436   24.7421 H   0  0  0  0  0  0  0  0  0  0  0  0
   21.8803   19.8592   22.8932 C   0  0  0  0  0  0  0  0  0  0  0  0
   21.8884   20.1965   21.8497 H   0  0  0  0  0  0  0  0  0  0  0  0
   22.8569   20.1529   23.3008 H   0  0  0  0  0  0  0  0  0  0  0  0
   21.7926   18.3119   22.9763 C   0  0  0  0  0  0  0  0  0  0  0  0
   21.2809   18.0047   23.8954 H   0  0  0  0  0  0  0  0  0  0  0  0
   22.8117   17.9158   23.0838 H   0  0  0  0  0  0  0  0  0  0  0  0
   21.1603   17.6176   21.7430 C   0  0  0  0  0  0  0  0  0  0  0  0
   20.9475   16.5697   21.9941 H   0  0  0  0  0  0  0  0  0  0  0  0
   21.9200   17.5846   20.9502 H   0  0  0  0  0  0  0  0  0  0  0  0
   21.1604   21.9933   23.7190 O   0  0  0  0  0  0  0  0  0  0  0  0
   21.1272   22.2941   22.7878 H   0  0  0  0  0  0  0  0  0  0  0  0
  1  2  1  0  0  0  0
  1  3  1  0  0  0  0
  1  4  1  0  0  0  0
  4  5  1  0  0  0  0
  4  6  1  0  0  0  0
  4  7  1  0  0  0  0
  7  8  1  0  0  0  0
  7  9  1  0  0  0  0
  7 10  1  0  0  0  0
 10 11  1  0  0  0  0
 10 12  1  0  0  0  0
 10 13  1  0  0  0  0
 13 14  1  0  0  0  0
 13 15  1  0  0  0  0
 15 16  1  0  0  0  0
 15 17  1  0  0  0  0
 15 18  1  0  0  0  0
 18 19  1  0  0  0  0
 18 20  1  0  0  0  0
  1 21  1  0  0  0  0
 18 21  1  0  0  0  0
 21 22  1  0  0  0  0
 21 23  1  0  0  0  0
 13 24  1  0  0  0  0
 24 25  1  0  0  0  0
M  END
> <VConfSearch Rank>
645

> <Conf_Id>
15

> <Delta U+W>
-1.271

> <U+W>
9.643

> <U>
11.413

> <W>
-1.770

> <W(PB)>
-3.908

> <W(SA)>
2.138

> <Valence>
17.496

> <Coulomb>
-8.736

> <VdW>
2.653

> <VdW6>
-12.485

> <VdW12>
15.138

> <Bond>
0.414

> <Angle>
5.295

> <Pdih>
11.787

> <Idih>
0.000

> <Tether>
0.000

$$$$
VeraChem MOL file


 25 25  0  0  0  0  0  0  0  0999 V2000     
   21.5742   18.7760   21.2458 C   0  0  0  0  0  0  0  0  0  0  0  0
   22.2842   18.7186   20.4093 H   0  0  0  0  0  0  0  0  0  0  0  0
   21.0554   17.8090   21.2390 H   0  0  0  0  0  0  0  0  0  0  0  0
   22.4124   18.9379   22.5411 C   0  0  0  0  0  0  0  0  0  0  0  0
   22.9795   18.0103   22.6984 H   0  0  0  0  0  0  0  0  0  0  0  0
   23.1636   19.7236   22.3824 H   0  0  0  0  0  0  0  0  0  0  0  0
   21.6320   19.2674   23.8364 C   0  0  0  0  0  0  0  0  0  0  0  0
   21.3749   20.3330   23.8487 H   0  0  0  0  0  0  0  0  0  0  0  0
   22.3129   19.1334   24.6880 H   0  0  0  0  0  0  0  0  0  0  0  0
   20.3748   18.3873   24.0604 C   0  0  0  0  0  0  0  0  0  0  0  0
   20.3386   17.5656   23.3365 H   0  0  0  0  0  0  0  0  0  0  0  0
   20.4639   17.8975   25.0388 H   0  0  0  0  0  0  0  0  0  0  0  0
   19.0380   19.1639   24.0482 C   0  0  0  0  0  0  0  0  0  0  0  0
   18.9724   19.7273   24.9901 H   0  0  0  0  0  0  0  0  0  0  0  0
   18.8371   20.1800   22.8942 C   0  0  0  0  0  0  0  0  0  0  0  0
   17.7901   20.5092   22.9357 H   0  0  0  0  0  0  0  0  0  0  0  0
   19.4176   21.0895   23.0900 H   0  0  0  0  0  0  0  0  0  0  0  0
   19.1241   19.6753   21.4548 C   0  0  0  0  0  0  0  0  0  0  0  0
   18.4550   20.2327   20.7849 H   0  0  0  0  0  0  0  0  0  0  0  0
   18.8365   18.6223   21.3387 H   0  0  0  0  0  0  0  0  0  0  0  0
   20.5714   19.9170   20.9441 C   0  0  0  0  0  0  0  0  0  0  0  0
   20.9608   20.8820   21.2951 H   0  0  0  0  0  0  0  0  0  0  0  0
   20.5118   20.0082   19.8508 H   0  0  0  0  0  0  0  0  0  0  0  0
   17.9770   18.2200   24.0071 O   0  0  0  0  0  0  0  0  0  0  0  0
   18.0163   17.8117   23.1189 H   0  0  0  0  0  0  0  0  0  0  0  0
  1  2  1  0  0  0  0
  1  3  1  0  0  0  0
  1  4  1  0  0  0  0
  4  5  1  0  0  0  0
  4  6  1  0  0  0  0
  4  7  1  0  0  0  0
  7  8  1  0  0  0  0
  7  9  1  0  0  0  0
  7 10  1  0  0  0  0
 10 11  1  0  0  0  0
 10 12  1  0  0  0  0
 10 13  1  0  0  0  0
 13 14  1  0  0  0  0
 13 15  1  0  0  0  0
 15 16  1  0  0  0  0
 15 17  1  0  0  0  0
 15 18  1  0  0  0  0
 18 19  1  0  0  0  0
 18 20  1  0  0  0  0
  1 21  1  0  0  0  0
 18 21  1  0  0  0  0
 21 22  1  0  0  0  0
 21 23  1  0  0  0  0
 13 24  1  0  0  0  0
 24 25  1  0  0  0  0
M  END
> <VConfSearch Rank>
646

> <Conf_Id>
115

> <Delta U+W>
0.038

> <U+W>
10.952

> <U>
12.526

> <W>
-1.575

> <W(PB)>
-3.698

> <W(SA)>
2.123

> <Valence>
19.016

> <Coulomb>
-9.226

> <VdW>
2.737

> <VdW6>
-12.612

> <VdW12>
15.349

> <Bond>
0.421

> <Angle>
4.883

> <Pdih>
13.711

> <Idih>
0.000

> <Tether>
0.000

$$$$
VeraChem MOL file


 25 25  0  0  0  0  0  0  0  0999 V2000     
   21.3948   18.1313   24.1411 C   0  0  0  0  0  0  0  0  0  0  0  0
   22.1550   17.4111   24.4734 H   0  0  0  0  0  0  0  0  0  0  0  0
   21.0567   18.6434   25.0521 H   0  0  0  0  0  0  0  0  0  0  0  0
   20.2309   17.3208   23.5246 C   0  0  0  0  0  0  0  0  0  0  0  0
   20.5972   16.7128   22.6863 H   0  0  0  0  0  0  0  0  0  0  0  0
   19.8925   16.6026   24.2840 H   0  0  0  0  0  0  0  0  0  0  0  0
   19.0082   18.1580   23.0831 C   0  0  0  0  0  0  0  0  0  0  0  0
   18.7855   18.9311   23.8304 H   0  0  0  0  0  0  0  0  0  0  0  0
   18.1352   17.4909   23.0850 H   0  0  0  0  0  0  0  0  0  0  0  0
   19.1290   18.7632   21.6586 C   0  0  0  0  0  0  0  0  0  0  0  0
   19.9567   18.3076   21.1007 H   0  0  0  0  0  0  0  0  0  0  0  0
   18.2192   18.4883   21.1080 H   0  0  0  0  0  0  0  0  0  0  0  0
   19.2553   20.3030   21.6272 C   0  0  0  0  0  0  0  0  0  0  0  0
   18.6389   20.7270   22.4328 H   0  0  0  0  0  0  0  0  0  0  0  0
   20.6991   20.8340   21.7676 C   0  0  0  0  0  0  0  0  0  0  0  0
   21.3149   20.4694   20.9349 H   0  0  0  0  0  0  0  0  0  0  0  0
   20.6626   21.9257   21.6564 H   0  0  0  0  0  0  0  0  0  0  0  0
   21.3920   20.5256   23.1172 C   0  0  0  0  0  0  0  0  0  0  0  0
   20.6891   20.6661   23.9492 H   0  0  0  0  0  0  0  0  0  0  0  0
   22.1724   21.2848   23.2649 H   0  0  0  0  0  0  0  0  0  0  0  0
   22.0787   19.1364   23.1848 C   0  0  0  0  0  0  0  0  0  0  0  0
   23.1016   19.2934   23.5537 H   0  0  0  0  0  0  0  0  0  0  0  0
   22.1952   18.6961   22.1856 H   0  0  0  0  0  0  0  0  0  0  0  0
   18.7513   20.7606   20.3781 O   0  0  0  0  0  0  0  0  0  0  0  0
   18.7896   21.7396   20.3987 H   0  0  0  0  0  0  0  0  0  0  0  0
  1  2  1  0  0  0  0
  1  3  1  0  0  0  0
  1  4  1  0  0  0  0
  4  5  1  0  0  0  0
  4  6  1  0  0  0  0
  4  7  1  0  0  0  0
  7  8  1  0  0  0  0
  7  9  1  0  0  0  0
  7 10  1  0  0  0  0
 10 11  1  0  0  0  0
 10 12  1  0  0  0  0
 10 13  1  0  0  0  0
 13 14  1  0  0  0  0
 13 15  1  0  0  0  0
 15 16  1  0  0  0  0
 15 17  1  0  0  0  0
 15 18  1  0  0  0  0
 18 19  1  0  0  0  0
 18 20  1  0  0  0  0
  1 21  1  0  0  0  0
 18 21  1  0  0  0  0
 21 22  1  0  0  0  0
 21 23  1  0  0  0  0
 13 24  1  0  0  0  0
 24 25  1  0  0  0  0
M  END
> <VConfSearch Rank>
647

> <Conf_Id>
30

> <Delta U+W>
0.000

> <U+W>
10.913

> <U>
13.140

> <W>
-2.227

> <W(PB)>
-4.367

> <W(SA)>
2.140

> <Valence>
19.155

> <Coulomb>
-8.157

> <VdW>
2.142

> <VdW6>
-11.576

> <VdW12>
13.718

> <Bond>
0.294

> <Angle>
3.547

> <Pdih>
15.314

> <Idih>
0.000

> <Tether>
0.000

$$$$
VeraChem MOL file


 25 25  0  0  0  0  0  0  0  0999 V2000     
   21.6476   20.3610   21.4265 C   0  0  0  0  0  0  0  0  0  0  0  0
   21.5252   21.2500   20.7929 H   0  0  0  0  0  0  0  0  0  0  0  0
   22.6874   20.0362   21.2844 H   0  0  0  0  0  0  0  0  0  0  0  0
   20.7144   19.2459   20.8938 C   0  0  0  0  0  0  0  0  0  0  0  0
   20.7973   19.2299   19.7985 H   0  0  0  0  0  0  0  0  0  0  0  0
   21.0900   18.2672   21.2140 H   0  0  0  0  0  0  0  0  0  0  0  0
   19.2225   19.4230   21.2744 C   0  0  0  0  0  0  0  0  0  0  0  0
   18.6213   19.4218   20.3550 H   0  0  0  0  0  0  0  0  0  0  0  0
   19.0450   20.4072   21.7232 H   0  0  0  0  0  0  0  0  0  0  0  0
   18.6728   18.3158   22.2091 C   0  0  0  0  0  0  0  0  0  0  0  0
   17.6830   18.6261   22.5693 H   0  0  0  0  0  0  0  0  0  0  0  0
   18.5059   17.4093   21.6128 H   0  0  0  0  0  0  0  0  0  0  0  0
   19.5523   17.9244   23.4229 C   0  0  0  0  0  0  0  0  0  0  0  0
   20.4353   17.3765   23.0679 H   0  0  0  0  0  0  0  0  0  0  0  0
   20.0250   19.1085   24.3014 C   0  0  0  0  0  0  0  0  0  0  0  0
   19.2775   19.9121   24.2927 H   0  0  0  0  0  0  0  0  0  0  0  0
   20.0685   18.7644   25.3434 H   0  0  0  0  0  0  0  0  0  0  0  0
   21.4364   19.6604   23.9536 C   0  0  0  0  0  0  0  0  0  0  0  0
   22.1198   18.8508   23.6639 H   0  0  0  0  0  0  0  0  0  0  0  0
   21.8538   20.0758   24.8812 H   0  0  0  0  0  0  0  0  0  0  0  0
   21.4559   20.7983   22.9032 C   0  0  0  0  0  0  0  0  0  0  0  0
   22.2907   21.4693   23.1484 H   0  0  0  0  0  0  0  0  0  0  0  0
   20.5582   21.4207   23.0081 H   0  0  0  0  0  0  0  0  0  0  0  0
   18.7824   17.0436   24.2327 O   0  0  0  0  0  0  0  0  0  0  0  0
   19.3703   16.7371   24.9544 H   0  0  0  0  0  0  0  0  0  0  0  0
  1  2  1  0  0  0  0
  1  3  1  0  0  0  0
  1  4  1  0  0  0  0
  4  5  1  0  0  0  0
  4  6  1  0  0  0  0
  4  7  1  0  0  0  0
  7  8  1  0  0  0  0
  7  9  1  0  0  0  0
  7 10  1  0  0  0  0
 10 11  1  0  0  0  0
 10 12  1  0  0  0  0
 10 13  1  0  0  0  0
 13 14  1  0  0  0  0
 13 15  1  0  0  0  0
 15 16  1  0  0  0  0
 15 17  1  0  0  0  0
 15 18  1  0  0  0  0
 18 19  1  0  0  0  0
 18 20  1  0  0  0  0
  1 21  1  0  0  0  0
 18 21  1  0  0  0  0
 21 22  1  0  0  0  0
 21 23  1  0  0  0  0
 13 24  1  0  0  0  0
 24 25  1  0  0  0  0
M  END
> <VConfSearch Rank>
648

> <Conf_Id>
162

> <Delta U+W>
0.219

> <U+W>
11.132

> <U>
13.296

> <W>
-2.164

> <W(PB)>
-4.311

> <W(SA)>
2.148

> <Valence>
18.607

> <Coulomb>
-8.339

> <VdW>
3.028

> <VdW6>
-12.271

> <VdW12>
15.299

> <Bond>
0.423

> <Angle>
4.488

> <Pdih>
13.696

> <Idih>
0.000

> <Tether>
0.000

$$$$
VeraChem MOL file


 25 25  0  0  0  0  0  0  0  0999 V2000     
   19.3704   17.6397   23.3839 C   0  0  0  0  0  0  0  0  0  0  0  0
   18.7274   17.6977   22.4965 H   0  0  0  0  0  0  0  0  0  0  0  0
   19.0156   16.7542   23.9289 H   0  0  0  0  0  0  0  0  0  0  0  0
   20.8374   17.3827   22.9577 C   0  0  0  0  0  0  0  0  0  0  0  0
   21.5319   17.6688   23.7590 H   0  0  0  0  0  0  0  0  0  0  0  0
   20.9515   16.2953   22.8489 H   0  0  0  0  0  0  0  0  0  0  0  0
   21.2533   18.0168   21.6011 C   0  0  0  0  0  0  0  0  0  0  0  0
   20.4305   17.9754   20.8748 H   0  0  0  0  0  0  0  0  0  0  0  0
   22.0431   17.3786   21.1815 H   0  0  0  0  0  0  0  0  0  0  0  0
   21.8369   19.4507   21.6924 C   0  0  0  0  0  0  0  0  0  0  0  0
   22.3982   19.5675   22.6276 H   0  0  0  0  0  0  0  0  0  0  0  0
   22.5865   19.5589   20.8977 H   0  0  0  0  0  0  0  0  0  0  0  0
   20.8312   20.6158   21.5117 C   0  0  0  0  0  0  0  0  0  0  0  0
   20.5215   20.6323   20.4568 H   0  0  0  0  0  0  0  0  0  0  0  0
   19.5441   20.5488   22.3678 C   0  0  0  0  0  0  0  0  0  0  0  0
   19.0321   21.5178   22.3055 H   0  0  0  0  0  0  0  0  0  0  0  0
   18.8464   19.8419   21.9062 H   0  0  0  0  0  0  0  0  0  0  0  0
   19.7752   20.2023   23.8625 C   0  0  0  0  0  0  0  0  0  0  0  0
   19.3541   21.0066   24.4807 H   0  0  0  0  0  0  0  0  0  0  0  0
   20.8450   20.1972   24.1024 H   0  0  0  0  0  0  0  0  0  0  0  0
   19.1381   18.8640   24.3086 C   0  0  0  0  0  0  0  0  0  0  0  0
   18.0547   19.0088   24.4177 H   0  0  0  0  0  0  0  0  0  0  0  0
   19.5101   18.6250   25.3142 H   0  0  0  0  0  0  0  0  0  0  0  0
   21.5124   21.8283   21.8116 O   0  0  0  0  0  0  0  0  0  0  0  0
   20.8632   22.5523   21.6951 H   0  0  0  0  0  0  0  0  0  0  0  0
  1  2  1  0  0  0  0
  1  3  1  0  0  0  0
  1  4  1  0  0  0  0
  4  5  1  0  0  0  0
  4  6  1  0  0  0  0
  4  7  1  0  0  0  0
  7  8  1  0  0  0  0
  7  9  1  0  0  0  0
  7 10  1  0  0  0  0
 10 11  1  0  0  0  0
 10 12  1  0  0  0  0
 10 13  1  0  0  0  0
 13 14  1  0  0  0  0
 13 15  1  0  0  0  0
 15 16  1  0  0  0  0
 15 17  1  0  0  0  0
 15 18  1  0  0  0  0
 18 19  1  0  0  0  0
 18 20  1  0  0  0  0
  1 21  1  0  0  0  0
 18 21  1  0  0  0  0
 21 22  1  0  0  0  0
 21 23  1  0  0  0  0
 13 24  1  0  0  0  0
 24 25  1  0  0  0  0
M  END
> <VConfSearch Rank>
649

> <Conf_Id>
155

> <Delta U+W>
0.339

> <U+W>
11.252

> <U>
13.420

> <W>
-2.167

> <W(PB)>
-4.325

> <W(SA)>
2.157

> <Valence>
18.609

> <Coulomb>
-8.052

> <VdW>
2.863

> <VdW6>
-12.524

> <VdW12>
15.387

> <Bond>
0.430

> <Angle>
4.724

> <Pdih>
13.455

> <Idih>
0.000

> <Tether>
0.000

$$$$
VeraChem MOL file


 25 25  0  0  0  0  0  0  0  0999 V2000     
   20.0632   18.7446   20.7469 C   0  0  0  0  0  0  0  0  0  0  0  0
   19.5311   19.5085   20.1642 H   0  0  0  0  0  0  0  0  0  0  0  0
   20.2853   17.9370   20.0362 H   0  0  0  0  0  0  0  0  0  0  0  0
   21.4256   19.3180   21.2179 C   0  0  0  0  0  0  0  0  0  0  0  0
   22.0061   18.5233   21.6970 H   0  0  0  0  0  0  0  0  0  0  0  0
   22.0120   19.5592   20.3209 H   0  0  0  0  0  0  0  0  0  0  0  0
   21.4004   20.5969   22.1051 C   0  0  0  0  0  0  0  0  0  0  0  0
   21.3707   21.4640   21.4315 H   0  0  0  0  0  0  0  0  0  0  0  0
   22.3548   20.6756   22.6433 H   0  0  0  0  0  0  0  0  0  0  0  0
   20.2322   20.7660   23.1143 C   0  0  0  0  0  0  0  0  0  0  0  0
   20.3077   21.7763   23.5371 H   0  0  0  0  0  0  0  0  0  0  0  0
   19.2860   20.7961   22.5669 H   0  0  0  0  0  0  0  0  0  0  0  0
   20.1391   19.7597   24.2989 C   0  0  0  0  0  0  0  0  0  0  0  0
   19.0949   19.7429   24.6427 H   0  0  0  0  0  0  0  0  0  0  0  0
   20.5777   18.2970   24.0371 C   0  0  0  0  0  0  0  0  0  0  0  0
   21.6342   18.2861   23.7541 H   0  0  0  0  0  0  0  0  0  0  0  0
   20.5624   17.7706   25.0006 H   0  0  0  0  0  0  0  0  0  0  0  0
   19.7287   17.4485   23.0434 C   0  0  0  0  0  0  0  0  0  0  0  0
   18.9037   17.0013   23.6145 H   0  0  0  0  0  0  0  0  0  0  0  0
   20.3341   16.6019   22.6924 H   0  0  0  0  0  0  0  0  0  0  0  0
   19.0967   18.1652   21.8212 C   0  0  0  0  0  0  0  0  0  0  0  0
   18.3983   18.9320   22.1709 H   0  0  0  0  0  0  0  0  0  0  0  0
   18.4469   17.4404   21.3120 H   0  0  0  0  0  0  0  0  0  0  0  0
   20.9549   20.2537   25.3556 O   0  0  0  0  0  0  0  0  0  0  0  0
   20.6420   21.1601   25.5547 H   0  0  0  0  0  0  0  0  0  0  0  0
  1  2  1  0  0  0  0
  1  3  1  0  0  0  0
  1  4  1  0  0  0  0
  4  5  1  0  0  0  0
  4  6  1  0  0  0  0
  4  7  1  0  0  0  0
  7  8  1  0  0  0  0
  7  9  1  0  0  0  0
  7 10  1  0  0  0  0
 10 11  1  0  0  0  0
 10 12  1  0  0  0  0
 10 13  1  0  0  0  0
 13 14  1  0  0  0  0
 13 15  1  0  0  0  0
 15 16  1  0  0  0  0
 15 17  1  0  0  0  0
 15 18  1  0  0  0  0
 18 19  1  0  0  0  0
 18 20  1  0  0  0  0
  1 21  1  0  0  0  0
 18 21  1  0  0  0  0
 21 22  1  0  0  0  0
 21 23  1  0  0  0  0
 13 24  1  0  0  0  0
 24 25  1  0  0  0  0
M  END
> <VConfSearch Rank>
650

> <Conf_Id>
146

> <Delta U+W>
2.553

> <U+W>
13.466

> <U>
15.643

> <W>
-2.176

> <W(PB)>
-4.307

> <W(SA)>
2.131

> <Valence>
18.916

> <Coulomb>
-7.506

> <VdW>
4.232

> <VdW6>
-13.632

> <VdW12>
17.864

> <Bond>
0.735

> <Angle>
9.140

> <Pdih>
9.042

> <Idih>
0.000

> <Tether>
0.000

$$$$
VeraChem MOL file


 25 25  0  0  0  0  0  0  0  0999 V2000     
   20.8041   17.6810   23.9242 C   0  0  0  0  0  0  0  0  0  0  0  0
   21.3153   17.8294   24.8850 H   0  0  0  0  0  0  0  0  0  0  0  0
   20.6477   16.5971   23.8363 H   0  0  0  0  0  0  0  0  0  0  0  0
   21.7479   18.1068   22.7717 C   0  0  0  0  0  0  0  0  0  0  0  0
   22.6392   17.4671   22.8274 H   0  0  0  0  0  0  0  0  0  0  0  0
   21.2972   17.8676   21.8018 H   0  0  0  0  0  0  0  0  0  0  0  0
   22.2354   19.5772   22.7971 C   0  0  0  0  0  0  0  0  0  0  0  0
   22.9791   19.6928   21.9967 H   0  0  0  0  0  0  0  0  0  0  0  0
   22.7757   19.7646   23.7348 H   0  0  0  0  0  0  0  0  0  0  0  0
   21.1594   20.6780   22.6071 C   0  0  0  0  0  0  0  0  0  0  0  0
   20.6475   20.8769   23.5539 H   0  0  0  0  0  0  0  0  0  0  0  0
   21.6904   21.6126   22.3810 H   0  0  0  0  0  0  0  0  0  0  0  0
   20.1241   20.4002   21.4869 C   0  0  0  0  0  0  0  0  0  0  0  0
   20.5279   19.6547   20.7888 H   0  0  0  0  0  0  0  0  0  0  0  0
   18.7431   19.9238   22.0041 C   0  0  0  0  0  0  0  0  0  0  0  0
   18.3570   20.6548   22.7267 H   0  0  0  0  0  0  0  0  0  0  0  0
   18.0407   19.9413   21.1605 H   0  0  0  0  0  0  0  0  0  0  0  0
   18.6791   18.5031   22.6279 C   0  0  0  0  0  0  0  0  0  0  0  0
   19.0234   17.7467   21.9109 H   0  0  0  0  0  0  0  0  0  0  0  0
   17.6179   18.2750   22.7973 H   0  0  0  0  0  0  0  0  0  0  0  0
   19.4095   18.3558   23.9878 C   0  0  0  0  0  0  0  0  0  0  0  0
   18.7830   17.7392   24.6469 H   0  0  0  0  0  0  0  0  0  0  0  0
   19.4714   19.3234   24.4983 H   0  0  0  0  0  0  0  0  0  0  0  0
   19.9126   21.6114   20.7702 O   0  0  0  0  0  0  0  0  0  0  0  0
   19.3025   21.4014   20.0327 H   0  0  0  0  0  0  0  0  0  0  0  0
  1  2  1  0  0  0  0
  1  3  1  0  0  0  0
  1  4  1  0  0  0  0
  4  5  1  0  0  0  0
  4  6  1  0  0  0  0
  4  7  1  0  0  0  0
  7  8  1  0  0  0  0
  7  9  1  0  0  0  0
  7 10  1  0  0  0  0
 10 11  1  0  0  0  0
 10 12  1  0  0  0  0
 10 13  1  0  0  0  0
 13 14  1  0  0  0  0
 13 15  1  0  0  0  0
 15 16  1  0  0  0  0
 15 17  1  0  0  0  0
 15 18  1  0  0  0  0
 18 19  1  0  0  0  0
 18 20  1  0  0  0  0
  1 21  1  0  0  0  0
 18 21  1  0  0  0  0
 21 22  1  0  0  0  0
 21 23  1  0  0  0  0
 13 24  1  0  0  0  0
 24 25  1  0  0  0  0
M  END
> <VConfSearch Rank>
651

> <Conf_Id>
62

> <Delta U+W>
-1.779

> <U+W>
9.134

> <U>
11.364

> <W>
-2.230

> <W(PB)>
-4.359

> <W(SA)>
2.129

> <Valence>
16.582

> <Coulomb>
-8.150

> <VdW>
2.933

> <VdW6>
-12.531

> <VdW12>
15.464

> <Bond>
0.439

> <Angle>
5.099

> <Pdih>
11.044

> <Idih>
0.000

> <Tether>
0.000

$$$$
VeraChem MOL file


 25 25  0  0  0  0  0  0  0  0999 V2000     
   21.9726   20.0280   22.2053 C   0  0  0  0  0  0  0  0  0  0  0  0
   21.2009   20.7349   21.8799 H   0  0  0  0  0  0  0  0  0  0  0  0
   22.9208   20.5023   21.9180 H   0  0  0  0  0  0  0  0  0  0  0  0
   21.8615   18.7031   21.4103 C   0  0  0  0  0  0  0  0  0  0  0  0
   21.9940   18.9456   20.3470 H   0  0  0  0  0  0  0  0  0  0  0  0
   22.7048   18.0503   21.6733 H   0  0  0  0  0  0  0  0  0  0  0  0
   20.5420   17.9023   21.5527 C   0  0  0  0  0  0  0  0  0  0  0  0
   20.5637   17.2825   22.4562 H   0  0  0  0  0  0  0  0  0  0  0  0
   20.5108   17.1802   20.7253 H   0  0  0  0  0  0  0  0  0  0  0  0
   19.2430   18.7506   21.5051 C   0  0  0  0  0  0  0  0  0  0  0  0
   19.4078   19.6951   20.9722 H   0  0  0  0  0  0  0  0  0  0  0  0
   18.5167   18.1974   20.8953 H   0  0  0  0  0  0  0  0  0  0  0  0
   18.5839   19.0126   22.8829 C   0  0  0  0  0  0  0  0  0  0  0  0
   18.4430   18.0456   23.3870 H   0  0  0  0  0  0  0  0  0  0  0  0
   19.3528   19.9503   23.8470 C   0  0  0  0  0  0  0  0  0  0  0  0
   19.5181   20.9292   23.3808 H   0  0  0  0  0  0  0  0  0  0  0  0
   18.6892   20.1457   24.6998 H   0  0  0  0  0  0  0  0  0  0  0  0
   20.6756   19.3678   24.4130 C   0  0  0  0  0  0  0  0  0  0  0  0
   20.6535   18.2724   24.3909 H   0  0  0  0  0  0  0  0  0  0  0  0
   20.7318   19.6198   25.4809 H   0  0  0  0  0  0  0  0  0  0  0  0
   21.9713   19.9001   23.7491 C   0  0  0  0  0  0  0  0  0  0  0  0
   22.8163   19.2719   24.0621 H   0  0  0  0  0  0  0  0  0  0  0  0
   22.1742   20.8978   24.1617 H   0  0  0  0  0  0  0  0  0  0  0  0
   17.3080   19.5947   22.6471 O   0  0  0  0  0  0  0  0  0  0  0  0
   16.8060   18.9617   22.0926 H   0  0  0  0  0  0  0  0  0  0  0  0
  1  2  1  0  0  0  0
  1  3  1  0  0  0  0
  1  4  1  0  0  0  0
  4  5  1  0  0  0  0
  4  6  1  0  0  0  0
  4  7  1  0  0  0  0
  7  8  1  0  0  0  0
  7  9  1  0  0  0  0
  7 10  1  0  0  0  0
 10 11  1  0  0  0  0
 10 12  1  0  0  0  0
 10 13  1  0  0  0  0
 13 14  1  0  0  0  0
 13 15  1  0  0  0  0
 15 16  1  0  0  0  0
 15 17  1  0  0  0  0
 15 18  1  0  0  0  0
 18 19  1  0  0  0  0
 18 20  1  0  0  0  0
  1 21  1  0  0  0  0
 18 21  1  0  0  0  0
 21 22  1  0  0  0  0
 21 23  1  0  0  0  0
 13 24  1  0  0  0  0
 24 25  1  0  0  0  0
M  END
> <VConfSearch Rank>
652

> <Conf_Id>
121

> <Delta U+W>
-1.283

> <U+W>
9.630

> <U>
11.876

> <W>
-2.246

> <W(PB)>
-4.376

> <W(SA)>
2.130

> <Valence>
17.153

> <Coulomb>
-7.966

> <VdW>
2.689

> <VdW6>
-12.458

> <VdW12>
15.147

> <Bond>
0.421

> <Angle>
5.258

> <Pdih>
11.475

> <Idih>
0.000

> <Tether>
0.000

$$$$
VeraChem MOL file


 25 25  0  0  0  0  0  0  0  0999 V2000     
   18.8373   20.3581   22.6107 C   0  0  0  0  0  0  0  0  0  0  0  0
   19.5114   20.8629   23.3120 H   0  0  0  0  0  0  0  0  0  0  0  0
   17.9553   21.0107   22.5569 H   0  0  0  0  0  0  0  0  0  0  0  0
   18.3704   19.0006   23.1928 C   0  0  0  0  0  0  0  0  0  0  0  0
   17.8474   19.2099   24.1359 H   0  0  0  0  0  0  0  0  0  0  0  0
   17.6165   18.5599   22.5266 H   0  0  0  0  0  0  0  0  0  0  0  0
   19.4652   17.9423   23.4835 C   0  0  0  0  0  0  0  0  0  0  0  0
   19.7159   17.3874   22.5723 H   0  0  0  0  0  0  0  0  0  0  0  0
   19.0202   17.1903   24.1493 H   0  0  0  0  0  0  0  0  0  0  0  0
   20.7517   18.4874   24.1600 C   0  0  0  0  0  0  0  0  0  0  0  0
   20.5484   19.4150   24.7086 H   0  0  0  0  0  0  0  0  0  0  0  0
   21.0528   17.7599   24.9254 H   0  0  0  0  0  0  0  0  0  0  0  0
   21.9627   18.6715   23.2116 C   0  0  0  0  0  0  0  0  0  0  0  0
   22.1287   17.7226   22.6815 H   0  0  0  0  0  0  0  0  0  0  0  0
   21.8472   19.8024   22.1585 C   0  0  0  0  0  0  0  0  0  0  0  0
   21.6728   20.7679   22.6490 H   0  0  0  0  0  0  0  0  0  0  0  0
   22.8270   19.8978   21.6724 H   0  0  0  0  0  0  0  0  0  0  0  0
   20.8029   19.5485   21.0385 C   0  0  0  0  0  0  0  0  0  0  0  0
   20.6199   18.4745   20.9196 H   0  0  0  0  0  0  0  0  0  0  0  0
   21.2437   19.8594   20.0814 H   0  0  0  0  0  0  0  0  0  0  0  0
   19.4645   20.3145   21.1950 C   0  0  0  0  0  0  0  0  0  0  0  0
   18.7331   19.9025   20.4866 H   0  0  0  0  0  0  0  0  0  0  0  0
   19.6328   21.3528   20.8777 H   0  0  0  0  0  0  0  0  0  0  0  0
   23.1000   18.9484   24.0191 O   0  0  0  0  0  0  0  0  0  0  0  0
   23.8709   18.9953   23.4160 H   0  0  0  0  0  0  0  0  0  0  0  0
  1  2  1  0  0  0  0
  1  3  1  0  0  0  0
  1  4  1  0  0  0  0
  4  5  1  0  0  0  0
  4  6  1  0  0  0  0
  4  7  1  0  0  0  0
  7  8  1  0  0  0  0
  7  9  1  0  0  0  0
  7 10  1  0  0  0  0
 10 11  1  0  0  0  0
 10 12  1  0  0  0  0
 10 13  1  0  0  0  0
 13 14  1  0  0  0  0
 13 15  1  0  0  0  0
 15 16  1  0  0  0  0
 15 17  1  0  0  0  0
 15 18  1  0  0  0  0
 18 19  1  0  0  0  0
 18 20  1  0  0  0  0
  1 21  1  0  0  0  0
 18 21  1  0  0  0  0
 21 22  1  0  0  0  0
 21 23  1  0  0  0  0
 13 24  1  0  0  0  0
 24 25  1  0  0  0  0
M  END
> <VConfSearch Rank>
653

> <Conf_Id>
24

> <Delta U+W>
-1.236

> <U+W>
9.678

> <U>
11.876

> <W>
-2.199

> <W(PB)>
-4.335

> <W(SA)>
2.137

> <Valence>
17.153

> <Coulomb>
-7.966

> <VdW>
2.689

> <VdW6>
-12.458

> <VdW12>
15.147

> <Bond>
0.421

> <Angle>
5.258

> <Pdih>
11.475

> <Idih>
0.000

> <Tether>
0.000

$$$$
VeraChem MOL file


 25 25  0  0  0  0  0  0  0  0999 V2000     
   20.4570   17.2660   23.5853 C   0  0  0  0  0  0  0  0  0  0  0  0
   21.3946   16.6937   23.5869 H   0  0  0  0  0  0  0  0  0  0  0  0
   19.7154   16.6226   24.0782 H   0  0  0  0  0  0  0  0  0  0  0  0
   20.6426   18.5357   24.4580 C   0  0  0  0  0  0  0  0  0  0  0  0
   19.6691   18.9510   24.7481 H   0  0  0  0  0  0  0  0  0  0  0  0
   21.0998   18.2102   25.4025 H   0  0  0  0  0  0  0  0  0  0  0  0
   21.5351   19.6494   23.8565 C   0  0  0  0  0  0  0  0  0  0  0  0
   22.3509   19.2169   23.2616 H   0  0  0  0  0  0  0  0  0  0  0  0
   22.0261   20.1546   24.6997 H   0  0  0  0  0  0  0  0  0  0  0  0
   20.7751   20.7443   23.0555 C   0  0  0  0  0  0  0  0  0  0  0  0
   19.8029   20.9612   23.5163 H   0  0  0  0  0  0  0  0  0  0  0  0
   21.3609   21.6684   23.1551 H   0  0  0  0  0  0  0  0  0  0  0  0
   20.6072   20.4515   21.5445 C   0  0  0  0  0  0  0  0  0  0  0  0
   21.4461   19.8241   21.2155 H   0  0  0  0  0  0  0  0  0  0  0  0
   19.2726   19.7733   21.1439 C   0  0  0  0  0  0  0  0  0  0  0  0
   18.4546   20.5007   21.2280 H   0  0  0  0  0  0  0  0  0  0  0  0
   19.3379   19.5144   20.0788 H   0  0  0  0  0  0  0  0  0  0  0  0
   18.8706   18.5008   21.9311 C   0  0  0  0  0  0  0  0  0  0  0  0
   18.0489   18.0113   21.3908 H   0  0  0  0  0  0  0  0  0  0  0  0
   18.4390   18.7850   22.8978 H   0  0  0  0  0  0  0  0  0  0  0  0
   20.0223   17.4804   22.1147 C   0  0  0  0  0  0  0  0  0  0  0  0
   20.8940   17.7554   21.5095 H   0  0  0  0  0  0  0  0  0  0  0  0
   19.6996   16.5105   21.7121 H   0  0  0  0  0  0  0  0  0  0  0  0
   20.6819   21.6839   20.8393 O   0  0  0  0  0  0  0  0  0  0  0  0
   19.9387   22.2336   21.1626 H   0  0  0  0  0  0  0  0  0  0  0  0
  1  2  1  0  0  0  0
  1  3  1  0  0  0  0
  1  4  1  0  0  0  0
  4  5  1  0  0  0  0
  4  6  1  0  0  0  0
  4  7  1  0  0  0  0
  7  8  1  0  0  0  0
  7  9  1  0  0  0  0
  7 10  1  0  0  0  0
 10 11  1  0  0  0  0
 10 12  1  0  0  0  0
 10 13  1  0  0  0  0
 13 14  1  0  0  0  0
 13 15  1  0  0  0  0
 15 16  1  0  0  0  0
 15 17  1  0  0  0  0
 15 18  1  0  0  0  0
 18 19  1  0  0  0  0
 18 20  1  0  0  0  0
  1 21  1  0  0  0  0
 18 21  1  0  0  0  0
 21 22  1  0  0  0  0
 21 23  1  0  0  0  0
 13 24  1  0  0  0  0
 24 25  1  0  0  0  0
M  END
> <VConfSearch Rank>
654

> <Conf_Id>
167

> <Delta U+W>
0.388

> <U+W>
11.301

> <U>
13.202

> <W>
-1.901

> <W(PB)>
-4.065

> <W(SA)>
2.163

> <Valence>
18.957

> <Coulomb>
-8.753

> <VdW>
2.998

> <VdW6>
-12.294

> <VdW12>
15.292

> <Bond>
0.419

> <Angle>
4.543

> <Pdih>
13.996

> <Idih>
0.000

> <Tether>
0.000

$$$$
VeraChem MOL file


 25 25  0  0  0  0  0  0  0  0999 V2000     
   21.7481   20.5604   23.3127 C   0  0  0  0  0  0  0  0  0  0  0  0
   22.6842   20.2074   23.7661 H   0  0  0  0  0  0  0  0  0  0  0  0
   21.8239   21.6562   23.2928 H   0  0  0  0  0  0  0  0  0  0  0  0
   20.5664   20.1863   24.2449 C   0  0  0  0  0  0  0  0  0  0  0  0
   20.7018   19.1794   24.6556 H   0  0  0  0  0  0  0  0  0  0  0  0
   20.6251   20.8476   25.1202 H   0  0  0  0  0  0  0  0  0  0  0  0
   19.1536   20.3350   23.6231 C   0  0  0  0  0  0  0  0  0  0  0  0
   19.1546   21.0766   22.8139 H   0  0  0  0  0  0  0  0  0  0  0  0
   18.4953   20.7549   24.3959 H   0  0  0  0  0  0  0  0  0  0  0  0
   18.5058   19.0048   23.1505 C   0  0  0  0  0  0  0  0  0  0  0  0
   18.4791   18.2944   23.9870 H   0  0  0  0  0  0  0  0  0  0  0  0
   17.4559   19.2166   22.9084 H   0  0  0  0  0  0  0  0  0  0  0  0
   19.1419   18.3163   21.9173 C   0  0  0  0  0  0  0  0  0  0  0  0
   19.1977   19.0384   21.0917 H   0  0  0  0  0  0  0  0  0  0  0  0
   20.5456   17.7130   22.1829 C   0  0  0  0  0  0  0  0  0  0  0  0
   20.6811   17.5321   23.2540 H   0  0  0  0  0  0  0  0  0  0  0  0
   20.6072   16.7150   21.7288 H   0  0  0  0  0  0  0  0  0  0  0  0
   21.7314   18.5425   21.6257 C   0  0  0  0  0  0  0  0  0  0  0  0
   21.7898   18.3632   20.5434 H   0  0  0  0  0  0  0  0  0  0  0  0
   22.6683   18.1499   22.0434 H   0  0  0  0  0  0  0  0  0  0  0  0
   21.6774   20.0757   21.8428 C   0  0  0  0  0  0  0  0  0  0  0  0
   20.8024   20.5053   21.3419 H   0  0  0  0  0  0  0  0  0  0  0  0
   22.5378   20.5096   21.3152 H   0  0  0  0  0  0  0  0  0  0  0  0
   18.2711   17.2617   21.5253 O   0  0  0  0  0  0  0  0  0  0  0  0
   18.6465   16.8779   20.7054 H   0  0  0  0  0  0  0  0  0  0  0  0
  1  2  1  0  0  0  0
  1  3  1  0  0  0  0
  1  4  1  0  0  0  0
  4  5  1  0  0  0  0
  4  6  1  0  0  0  0
  4  7  1  0  0  0  0
  7  8  1  0  0  0  0
  7  9  1  0  0  0  0
  7 10  1  0  0  0  0
 10 11  1  0  0  0  0
 10 12  1  0  0  0  0
 10 13  1  0  0  0  0
 13 14  1  0  0  0  0
 13 15  1  0  0  0  0
 15 16  1  0  0  0  0
 15 17  1  0  0  0  0
 15 18  1  0  0  0  0
 18 19  1  0  0  0  0
 18 20  1  0  0  0  0
  1 21  1  0  0  0  0
 18 21  1  0  0  0  0
 21 22  1  0  0  0  0
 21 23  1  0  0  0  0
 13 24  1  0  0  0  0
 24 25  1  0  0  0  0
M  END
> <VConfSearch Rank>
655

> <Conf_Id>
60

> <Delta U+W>
-1.838

> <U+W>
9.075

> <U>
11.150

> <W>
-2.074

> <W(PB)>
-4.196

> <W(SA)>
2.121

> <Valence>
16.582

> <Coulomb>
-8.361

> <VdW>
2.928

> <VdW6>
-12.539

> <VdW12>
15.467

> <Bond>
0.441

> <Angle>
5.093

> <Pdih>
11.049

> <Idih>
0.000

> <Tether>
0.000

$$$$
VeraChem MOL file


 25 25  0  0  0  0  0  0  0  0999 V2000     
   19.5363   17.4526   21.8637 C   0  0  0  0  0  0  0  0  0  0  0  0
   18.5246   17.1130   22.1240 H   0  0  0  0  0  0  0  0  0  0  0  0
   19.9410   16.6864   21.1884 H   0  0  0  0  0  0  0  0  0  0  0  0
   20.4178   17.4570   23.1379 C   0  0  0  0  0  0  0  0  0  0  0  0
   20.4524   16.4252   23.5133 H   0  0  0  0  0  0  0  0  0  0  0  0
   21.4571   17.6914   22.8810 H   0  0  0  0  0  0  0  0  0  0  0  0
   19.9291   18.3534   24.3035 C   0  0  0  0  0  0  0  0  0  0  0  0
   20.5835   18.1621   25.1650 H   0  0  0  0  0  0  0  0  0  0  0  0
   18.9263   18.0300   24.6137 H   0  0  0  0  0  0  0  0  0  0  0  0
   19.9087   19.8833   24.0508 C   0  0  0  0  0  0  0  0  0  0  0  0
   19.0046   20.1635   23.5010 H   0  0  0  0  0  0  0  0  0  0  0  0
   19.7946   20.3710   25.0281 H   0  0  0  0  0  0  0  0  0  0  0  0
   21.1641   20.4460   23.3352 C   0  0  0  0  0  0  0  0  0  0  0  0
   21.9978   19.7382   23.4355 H   0  0  0  0  0  0  0  0  0  0  0  0
   20.9474   20.7642   21.8348 C   0  0  0  0  0  0  0  0  0  0  0  0
   20.0933   21.4461   21.7299 H   0  0  0  0  0  0  0  0  0  0  0  0
   21.8217   21.3290   21.4850 H   0  0  0  0  0  0  0  0  0  0  0  0
   20.7614   19.5530   20.8806 C   0  0  0  0  0  0  0  0  0  0  0  0
   21.6237   18.8763   20.9377 H   0  0  0  0  0  0  0  0  0  0  0  0
   20.7743   19.9480   19.8555 H   0  0  0  0  0  0  0  0  0  0  0  0
   19.4310   18.7776   21.0644 C   0  0  0  0  0  0  0  0  0  0  0  0
   19.0444   18.5226   20.0681 H   0  0  0  0  0  0  0  0  0  0  0  0
   18.6625   19.4290   21.4955 H   0  0  0  0  0  0  0  0  0  0  0  0
   21.5347   21.6608   23.9763 O   0  0  0  0  0  0  0  0  0  0  0  0
   21.7364   21.4360   24.9087 H   0  0  0  0  0  0  0  0  0  0  0  0
  1  2  1  0  0  0  0
  1  3  1  0  0  0  0
  1  4  1  0  0  0  0
  4  5  1  0  0  0  0
  4  6  1  0  0  0  0
  4  7  1  0  0  0  0
  7  8  1  0  0  0  0
  7  9  1  0  0  0  0
  7 10  1  0  0  0  0
 10 11  1  0  0  0  0
 10 12  1  0  0  0  0
 10 13  1  0  0  0  0
 13 14  1  0  0  0  0
 13 15  1  0  0  0  0
 15 16  1  0  0  0  0
 15 17  1  0  0  0  0
 15 18  1  0  0  0  0
 18 19  1  0  0  0  0
 18 20  1  0  0  0  0
  1 21  1  0  0  0  0
 18 21  1  0  0  0  0
 21 22  1  0  0  0  0
 21 23  1  0  0  0  0
 13 24  1  0  0  0  0
 24 25  1  0  0  0  0
M  END
> <VConfSearch Rank>
656

> <Conf_Id>
129

> <Delta U+W>
-1.846

> <U+W>
9.067

> <U>
11.150

> <W>
-2.083

> <W(PB)>
-4.217

> <W(SA)>
2.134

> <Valence>
16.583

> <Coulomb>
-8.361

> <VdW>
2.928

> <VdW6>
-12.539

> <VdW12>
15.467

> <Bond>
0.441

> <Angle>
5.093

> <Pdih>
11.049

> <Idih>
0.000

> <Tether>
0.000

$$$$
VeraChem MOL file


 25 25  0  0  0  0  0  0  0  0999 V2000     
   19.6283   17.9271   21.1683 C   0  0  0  0  0  0  0  0  0  0  0  0
   19.2348   18.3105   20.2172 H   0  0  0  0  0  0  0  0  0  0  0  0
   19.5894   16.8323   21.0850 H   0  0  0  0  0  0  0  0  0  0  0  0
   18.6749   18.3370   22.3187 C   0  0  0  0  0  0  0  0  0  0  0  0
   17.6963   17.8848   22.1074 H   0  0  0  0  0  0  0  0  0  0  0  0
   18.9935   17.8761   23.2606 H   0  0  0  0  0  0  0  0  0  0  0  0
   18.4469   19.8578   22.5072 C   0  0  0  0  0  0  0  0  0  0  0  0
   17.6684   19.9827   23.2723 H   0  0  0  0  0  0  0  0  0  0  0  0
   18.0272   20.2792   21.5838 H   0  0  0  0  0  0  0  0  0  0  0  0
   19.6732   20.7051   22.9357 C   0  0  0  0  0  0  0  0  0  0  0  0
   20.2885   20.9470   22.0631 H   0  0  0  0  0  0  0  0  0  0  0  0
   19.2875   21.6742   23.2799 H   0  0  0  0  0  0  0  0  0  0  0  0
   20.5472   20.0771   24.0521 C   0  0  0  0  0  0  0  0  0  0  0  0
   19.9659   19.3202   24.5954 H   0  0  0  0  0  0  0  0  0  0  0  0
   21.8667   19.4417   23.5463 C   0  0  0  0  0  0  0  0  0  0  0  0
   22.4366   20.1872   22.9765 H   0  0  0  0  0  0  0  0  0  0  0  0
   22.4812   19.2049   24.4252 H   0  0  0  0  0  0  0  0  0  0  0  0
   21.7418   18.1432   22.7041 C   0  0  0  0  0  0  0  0  0  0  0  0
   21.2126   17.3633   23.2666 H   0  0  0  0  0  0  0  0  0  0  0  0
   22.7593   17.7536   22.5627 H   0  0  0  0  0  0  0  0  0  0  0  0
   21.1178   18.3380   21.2979 C   0  0  0  0  0  0  0  0  0  0  0  0
   21.6847   17.7239   20.5847 H   0  0  0  0  0  0  0  0  0  0  0  0
   21.2665   19.3663   20.9498 H   0  0  0  0  0  0  0  0  0  0  0  0
   20.8983   21.1035   24.9716 O   0  0  0  0  0  0  0  0  0  0  0  0
   21.4177   21.7619   24.4661 H   0  0  0  0  0  0  0  0  0  0  0  0
  1  2  1  0  0  0  0
  1  3  1  0  0  0  0
  1  4  1  0  0  0  0
  4  5  1  0  0  0  0
  4  6  1  0  0  0  0
  4  7  1  0  0  0  0
  7  8  1  0  0  0  0
  7  9  1  0  0  0  0
  7 10  1  0  0  0  0
 10 11  1  0  0  0  0
 10 12  1  0  0  0  0
 10 13  1  0  0  0  0
 13 14  1  0  0  0  0
 13 15  1  0  0  0  0
 15 16  1  0  0  0  0
 15 17  1  0  0  0  0
 15 18  1  0  0  0  0
 18 19  1  0  0  0  0
 18 20  1  0  0  0  0
  1 21  1  0  0  0  0
 18 21  1  0  0  0  0
 21 22  1  0  0  0  0
 21 23  1  0  0  0  0
 13 24  1  0  0  0  0
 24 25  1  0  0  0  0
M  END
> <VConfSearch Rank>
657

> <Conf_Id>
140

> <Delta U+W>
-1.702

> <U+W>
9.211

> <U>
11.181

> <W>
-1.969

> <W(PB)>
-4.093

> <W(SA)>
2.124

> <Valence>
16.954

> <Coulomb>
-8.661

> <VdW>
2.887

> <VdW6>
-12.561

> <VdW12>
15.448

> <Bond>
0.433

> <Angle>
5.120

> <Pdih>
11.401

> <Idih>
0.000

> <Tether>
0.000

$$$$
VeraChem MOL file


 25 25  0  0  0  0  0  0  0  0999 V2000     
   18.3328   19.8055   22.9080 C   0  0  0  0  0  0  0  0  0  0  0  0
   17.9889   20.7637   22.4956 H   0  0  0  0  0  0  0  0  0  0  0  0
   17.4620   19.3741   23.4204 H   0  0  0  0  0  0  0  0  0  0  0  0
   19.4213   20.0808   23.9776 C   0  0  0  0  0  0  0  0  0  0  0  0
   20.0974   20.8762   23.6447 H   0  0  0  0  0  0  0  0  0  0  0  0
   18.9119   20.5046   24.8540 H   0  0  0  0  0  0  0  0  0  0  0  0
   20.2267   18.8397   24.4419 C   0  0  0  0  0  0  0  0  0  0  0  0
   19.6491   17.9174   24.2985 H   0  0  0  0  0  0  0  0  0  0  0  0
   20.3663   18.9242   25.5283 H   0  0  0  0  0  0  0  0  0  0  0  0
   21.6400   18.7083   23.8123 C   0  0  0  0  0  0  0  0  0  0  0  0
   22.2086   19.6267   24.0083 H   0  0  0  0  0  0  0  0  0  0  0  0
   22.1670   17.9104   24.3526 H   0  0  0  0  0  0  0  0  0  0  0  0
   21.7042   18.3744   22.3006 C   0  0  0  0  0  0  0  0  0  0  0  0
   21.1094   17.4726   22.1035 H   0  0  0  0  0  0  0  0  0  0  0  0
   21.2326   19.5245   21.3734 C   0  0  0  0  0  0  0  0  0  0  0  0
   21.3096   20.4857   21.8919 H   0  0  0  0  0  0  0  0  0  0  0  0
   21.9240   19.6115   20.5243 H   0  0  0  0  0  0  0  0  0  0  0  0
   19.8102   19.3487   20.7809 C   0  0  0  0  0  0  0  0  0  0  0  0
   19.8770   18.6274   19.9549 H   0  0  0  0  0  0  0  0  0  0  0  0
   19.4945   20.2963   20.3239 H   0  0  0  0  0  0  0  0  0  0  0  0
   18.7039   18.8517   21.7450 C   0  0  0  0  0  0  0  0  0  0  0  0
   18.9497   17.8561   22.1318 H   0  0  0  0  0  0  0  0  0  0  0  0
   17.7953   18.6987   21.1467 H   0  0  0  0  0  0  0  0  0  0  0  0
   23.0607   18.0815   21.9902 O   0  0  0  0  0  0  0  0  0  0  0  0
   23.5696   18.8969   22.1775 H   0  0  0  0  0  0  0  0  0  0  0  0
  1  2  1  0  0  0  0
  1  3  1  0  0  0  0
  1  4  1  0  0  0  0
  4  5  1  0  0  0  0
  4  6  1  0  0  0  0
  4  7  1  0  0  0  0
  7  8  1  0  0  0  0
  7  9  1  0  0  0  0
  7 10  1  0  0  0  0
 10 11  1  0  0  0  0
 10 12  1  0  0  0  0
 10 13  1  0  0  0  0
 13 14  1  0  0  0  0
 13 15  1  0  0  0  0
 15 16  1  0  0  0  0
 15 17  1  0  0  0  0
 15 18  1  0  0  0  0
 18 19  1  0  0  0  0
 18 20  1  0  0  0  0
  1 21  1  0  0  0  0
 18 21  1  0  0  0  0
 21 22  1  0  0  0  0
 21 23  1  0  0  0  0
 13 24  1  0  0  0  0
 24 25  1  0  0  0  0
M  END
> <VConfSearch Rank>
658

> <Conf_Id>
68

> <Delta U+W>
-1.765

> <U+W>
9.148

> <U>
11.181

> <W>
-2.032

> <W(PB)>
-4.147

> <W(SA)>
2.114

> <Valence>
16.955

> <Coulomb>
-8.661

> <VdW>
2.887

> <VdW6>
-12.561

> <VdW12>
15.448

> <Bond>
0.433

> <Angle>
5.121

> <Pdih>
11.402

> <Idih>
0.000

> <Tether>
0.000

$$$$
VeraChem MOL file


 25 25  0  0  0  0  0  0  0  0999 V2000     
   21.5700   20.3379   23.2957 C   0  0  0  0  0  0  0  0  0  0  0  0
   22.3736   20.9303   23.7543 H   0  0  0  0  0  0  0  0  0  0  0  0
   21.0366   21.0520   22.6582 H   0  0  0  0  0  0  0  0  0  0  0  0
   20.6456   19.8223   24.4293 C   0  0  0  0  0  0  0  0  0  0  0  0
   20.9305   18.8097   24.7425 H   0  0  0  0  0  0  0  0  0  0  0  0
   20.8210   20.4539   25.3110 H   0  0  0  0  0  0  0  0  0  0  0  0
   19.1281   19.8950   24.1156 C   0  0  0  0  0  0  0  0  0  0  0  0
   18.8596   20.9272   23.8516 H   0  0  0  0  0  0  0  0  0  0  0  0
   18.5845   19.6783   25.0454 H   0  0  0  0  0  0  0  0  0  0  0  0
   18.5958   18.9311   23.0220 C   0  0  0  0  0  0  0  0  0  0  0  0
   18.8284   17.8918   23.2833 H   0  0  0  0  0  0  0  0  0  0  0  0
   17.4996   18.9968   23.0492 H   0  0  0  0  0  0  0  0  0  0  0  0
   19.0753   19.2619   21.5848 C   0  0  0  0  0  0  0  0  0  0  0  0
   19.4137   20.3040   21.5519 H   0  0  0  0  0  0  0  0  0  0  0  0
   20.2027   18.3448   21.0499 C   0  0  0  0  0  0  0  0  0  0  0  0
   19.7593   17.3860   20.7504 H   0  0  0  0  0  0  0  0  0  0  0  0
   20.6046   18.7902   20.1305 H   0  0  0  0  0  0  0  0  0  0  0  0
   21.3767   18.0307   22.0127 C   0  0  0  0  0  0  0  0  0  0  0  0
   22.0357   17.3152   21.5023 H   0  0  0  0  0  0  0  0  0  0  0  0
   21.0148   17.4917   22.8957 H   0  0  0  0  0  0  0  0  0  0  0  0
   22.2492   19.2379   22.4391 C   0  0  0  0  0  0  0  0  0  0  0  0
   22.6886   19.7022   21.5459 H   0  0  0  0  0  0  0  0  0  0  0  0
   23.0972   18.8420   23.0145 H   0  0  0  0  0  0  0  0  0  0  0  0
   17.9693   19.1405   20.6990 O   0  0  0  0  0  0  0  0  0  0  0  0
   17.6702   18.2097   20.7552 H   0  0  0  0  0  0  0  0  0  0  0  0
  1  2  1  0  0  0  0
  1  3  1  0  0  0  0
  1  4  1  0  0  0  0
  4  5  1  0  0  0  0
  4  6  1  0  0  0  0
  4  7  1  0  0  0  0
  7  8  1  0  0  0  0
  7  9  1  0  0  0  0
  7 10  1  0  0  0  0
 10 11  1  0  0  0  0
 10 12  1  0  0  0  0
 10 13  1  0  0  0  0
 13 14  1  0  0  0  0
 13 15  1  0  0  0  0
 15 16  1  0  0  0  0
 15 17  1  0  0  0  0
 15 18  1  0  0  0  0
 18 19  1  0  0  0  0
 18 20  1  0  0  0  0
  1 21  1  0  0  0  0
 18 21  1  0  0  0  0
 21 22  1  0  0  0  0
 21 23  1  0  0  0  0
 13 24  1  0  0  0  0
 24 25  1  0  0  0  0
M  END
> <VConfSearch Rank>
659

> <Conf_Id>
165

> <Delta U+W>
-1.999

> <U+W>
8.915

> <U>
10.935

> <W>
-2.020

> <W(PB)>
-4.135

> <W(SA)>
2.115

> <Valence>
16.757

> <Coulomb>
-8.731

> <VdW>
2.908

> <VdW6>
-12.597

> <VdW12>
15.506

> <Bond>
0.434

> <Angle>
5.069

> <Pdih>
11.254

> <Idih>
0.000

> <Tether>
0.000

$$$$
VeraChem MOL file


 25 25  0  0  0  0  0  0  0  0999 V2000     
   21.0799   20.7997   23.0333 C   0  0  0  0  0  0  0  0  0  0  0  0
   21.6110   21.7460   23.2053 H   0  0  0  0  0  0  0  0  0  0  0  0
   20.0942   20.9560   23.4858 H   0  0  0  0  0  0  0  0  0  0  0  0
   21.8633   19.6957   23.7901 C   0  0  0  0  0  0  0  0  0  0  0  0
   22.9349   19.8765   23.6292 H   0  0  0  0  0  0  0  0  0  0  0  0
   21.7013   19.8196   24.8695 H   0  0  0  0  0  0  0  0  0  0  0  0
   21.5789   18.2251   23.3942 C   0  0  0  0  0  0  0  0  0  0  0  0
   22.2826   17.5936   23.9534 H   0  0  0  0  0  0  0  0  0  0  0  0
   21.8343   18.0578   22.3416 H   0  0  0  0  0  0  0  0  0  0  0  0
   20.1505   17.7024   23.6950 C   0  0  0  0  0  0  0  0  0  0  0  0
   20.1378   16.6288   23.4631 H   0  0  0  0  0  0  0  0  0  0  0  0
   19.9639   17.7814   24.7737 H   0  0  0  0  0  0  0  0  0  0  0  0
   18.9782   18.3743   22.9387 C   0  0  0  0  0  0  0  0  0  0  0  0
   18.7532   19.3405   23.4053 H   0  0  0  0  0  0  0  0  0  0  0  0
   19.2268   18.5926   21.4239 C   0  0  0  0  0  0  0  0  0  0  0  0
   19.9926   17.9023   21.0505 H   0  0  0  0  0  0  0  0  0  0  0  0
   18.3110   18.3244   20.8799 H   0  0  0  0  0  0  0  0  0  0  0  0
   19.5738   20.0535   21.0311 C   0  0  0  0  0  0  0  0  0  0  0  0
   18.7790   20.7233   21.3870 H   0  0  0  0  0  0  0  0  0  0  0  0
   19.5460   20.1202   19.9350 H   0  0  0  0  0  0  0  0  0  0  0  0
   20.9503   20.5929   21.5016 C   0  0  0  0  0  0  0  0  0  0  0  0
   21.0911   21.5718   21.0232 H   0  0  0  0  0  0  0  0  0  0  0  0
   21.7657   19.9673   21.1166 H   0  0  0  0  0  0  0  0  0  0  0  0
   17.8367   17.5384   23.0934 O   0  0  0  0  0  0  0  0  0  0  0  0
   17.6768   17.4545   24.0567 H   0  0  0  0  0  0  0  0  0  0  0  0
  1  2  1  0  0  0  0
  1  3  1  0  0  0  0
  1  4  1  0  0  0  0
  4  5  1  0  0  0  0
  4  6  1  0  0  0  0
  4  7  1  0  0  0  0
  7  8  1  0  0  0  0
  7  9  1  0  0  0  0
  7 10  1  0  0  0  0
 10 11  1  0  0  0  0
 10 12  1  0  0  0  0
 10 13  1  0  0  0  0
 13 14  1  0  0  0  0
 13 15  1  0  0  0  0
 15 16  1  0  0  0  0
 15 17  1  0  0  0  0
 15 18  1  0  0  0  0
 18 19  1  0  0  0  0
 18 20  1  0  0  0  0
  1 21  1  0  0  0  0
 18 21  1  0  0  0  0
 21 22  1  0  0  0  0
 21 23  1  0  0  0  0
 13 24  1  0  0  0  0
 24 25  1  0  0  0  0
M  END
> <VConfSearch Rank>
660

> <Conf_Id>
133

> <Delta U+W>
-2.139

> <U+W>
8.774

> <U>
10.905

> <W>
-2.131

> <W(PB)>
-4.281

> <W(SA)>
2.150

> <Valence>
16.378

> <Coulomb>
-8.448

> <VdW>
2.976

> <VdW6>
-12.570

> <VdW12>
15.545

> <Bond>
0.439

> <Angle>
5.049

> <Pdih>
10.889

> <Idih>
0.000

> <Tether>
0.000

$$$$
VeraChem MOL file


 25 25  0  0  0  0  0  0  0  0999 V2000     
   21.7716   20.3094   22.7826 C   0  0  0  0  0  0  0  0  0  0  0  0
   22.6137   21.0145   22.8095 H   0  0  0  0  0  0  0  0  0  0  0  0
   22.1817   19.3815   23.1967 H   0  0  0  0  0  0  0  0  0  0  0  0
   21.3589   20.1099   21.3009 C   0  0  0  0  0  0  0  0  0  0  0  0
   20.5370   20.7830   21.0251 H   0  0  0  0  0  0  0  0  0  0  0  0
   22.2068   20.4241   20.6769 H   0  0  0  0  0  0  0  0  0  0  0  0
   21.0266   18.6462   20.9084 C   0  0  0  0  0  0  0  0  0  0  0  0
   21.8829   18.0012   21.1486 H   0  0  0  0  0  0  0  0  0  0  0  0
   20.9270   18.6081   19.8151 H   0  0  0  0  0  0  0  0  0  0  0  0
   19.7377   18.0361   21.5212 C   0  0  0  0  0  0  0  0  0  0  0  0
   18.8645   18.6483   21.2667 H   0  0  0  0  0  0  0  0  0  0  0  0
   19.5689   17.0745   21.0179 H   0  0  0  0  0  0  0  0  0  0  0  0
   19.8081   17.7831   23.0493 C   0  0  0  0  0  0  0  0  0  0  0  0
   20.8598   17.7561   23.3576 H   0  0  0  0  0  0  0  0  0  0  0  0
   19.0495   18.8221   23.9112 C   0  0  0  0  0  0  0  0  0  0  0  0
   17.9755   18.6003   23.8494 H   0  0  0  0  0  0  0  0  0  0  0  0
   19.3286   18.6771   24.9627 H   0  0  0  0  0  0  0  0  0  0  0  0
   19.2364   20.3171   23.5449 C   0  0  0  0  0  0  0  0  0  0  0  0
   18.5762   20.8996   24.2018 H   0  0  0  0  0  0  0  0  0  0  0  0
   18.8626   20.5133   22.5334 H   0  0  0  0  0  0  0  0  0  0  0  0
   20.6687   20.8844   23.7091 C   0  0  0  0  0  0  0  0  0  0  0  0
   20.9867   20.7721   24.7545 H   0  0  0  0  0  0  0  0  0  0  0  0
   20.6140   21.9672   23.5313 H   0  0  0  0  0  0  0  0  0  0  0  0
   19.2403   16.5070   23.3227 O   0  0  0  0  0  0  0  0  0  0  0  0
   19.3387   16.3547   24.2858 H   0  0  0  0  0  0  0  0  0  0  0  0
  1  2  1  0  0  0  0
  1  3  1  0  0  0  0
  1  4  1  0  0  0  0
  4  5  1  0  0  0  0
  4  6  1  0  0  0  0
  4  7  1  0  0  0  0
  7  8  1  0  0  0  0
  7  9  1  0  0  0  0
  7 10  1  0  0  0  0
 10 11  1  0  0  0  0
 10 12  1  0  0  0  0
 10 13  1  0  0  0  0
 13 14  1  0  0  0  0
 13 15  1  0  0  0  0
 15 16  1  0  0  0  0
 15 17  1  0  0  0  0
 15 18  1  0  0  0  0
 18 19  1  0  0  0  0
 18 20  1  0  0  0  0
  1 21  1  0  0  0  0
 18 21  1  0  0  0  0
 21 22  1  0  0  0  0
 21 23  1  0  0  0  0
 13 24  1  0  0  0  0
 24 25  1  0  0  0  0
M  END
> <VConfSearch Rank>
661

> <Conf_Id>
95

> <Delta U+W>
-2.190

> <U+W>
8.723

> <U>
10.905

> <W>
-2.182

> <W(PB)>
-4.296

> <W(SA)>
2.114

> <Valence>
16.377

> <Coulomb>
-8.448

> <VdW>
2.976

> <VdW6>
-12.570

> <VdW12>
15.546

> <Bond>
0.439

> <Angle>
5.049

> <Pdih>
10.889

> <Idih>
0.000

> <Tether>
0.000

$$$$
VeraChem MOL file


 25 25  0  0  0  0  0  0  0  0999 V2000     
   21.6006   18.1657   21.8792 C   0  0  0  0  0  0  0  0  0  0  0  0
   22.3681   17.6243   21.3093 H   0  0  0  0  0  0  0  0  0  0  0  0
   21.3823   17.4924   22.7142 H   0  0  0  0  0  0  0  0  0  0  0  0
   20.3630   18.3166   20.9466 C   0  0  0  0  0  0  0  0  0  0  0  0
   20.7384   18.4506   19.9229 H   0  0  0  0  0  0  0  0  0  0  0  0
   19.8095   17.3680   20.9326 H   0  0  0  0  0  0  0  0  0  0  0  0
   19.3760   19.4816   21.2208 C   0  0  0  0  0  0  0  0  0  0  0  0
   18.6452   19.4981   20.4008 H   0  0  0  0  0  0  0  0  0  0  0  0
   19.9031   20.4348   21.1129 H   0  0  0  0  0  0  0  0  0  0  0  0
   18.5701   19.4410   22.5532 C   0  0  0  0  0  0  0  0  0  0  0  0
   18.2148   20.4538   22.7840 H   0  0  0  0  0  0  0  0  0  0  0  0
   17.6673   18.8455   22.3644 H   0  0  0  0  0  0  0  0  0  0  0  0
   19.2576   18.8471   23.8088 C   0  0  0  0  0  0  0  0  0  0  0  0
   19.5639   17.8223   23.5750 H   0  0  0  0  0  0  0  0  0  0  0  0
   20.4693   19.6332   24.3870 C   0  0  0  0  0  0  0  0  0  0  0  0
   20.0797   20.4011   25.0687 H   0  0  0  0  0  0  0  0  0  0  0  0
   21.0546   18.9502   25.0158 H   0  0  0  0  0  0  0  0  0  0  0  0
   21.4261   20.3523   23.3979 C   0  0  0  0  0  0  0  0  0  0  0  0
   22.1439   20.9327   23.9935 H   0  0  0  0  0  0  0  0  0  0  0  0
   20.8698   21.1192   22.8497 H   0  0  0  0  0  0  0  0  0  0  0  0
   22.2530   19.4644   22.4225 C   0  0  0  0  0  0  0  0  0  0  0  0
   23.1707   19.1661   22.9477 H   0  0  0  0  0  0  0  0  0  0  0  0
   22.5874   20.0814   21.5775 H   0  0  0  0  0  0  0  0  0  0  0  0
   18.2750   18.7703   24.8351 O   0  0  0  0  0  0  0  0  0  0  0  0
   17.5439   18.2191   24.4861 H   0  0  0  0  0  0  0  0  0  0  0  0
  1  2  1  0  0  0  0
  1  3  1  0  0  0  0
  1  4  1  0  0  0  0
  4  5  1  0  0  0  0
  4  6  1  0  0  0  0
  4  7  1  0  0  0  0
  7  8  1  0  0  0  0
  7  9  1  0  0  0  0
  7 10  1  0  0  0  0
 10 11  1  0  0  0  0
 10 12  1  0  0  0  0
 10 13  1  0  0  0  0
 13 14  1  0  0  0  0
 13 15  1  0  0  0  0
 15 16  1  0  0  0  0
 15 17  1  0  0  0  0
 15 18  1  0  0  0  0
 18 19  1  0  0  0  0
 18 20  1  0  0  0  0
  1 21  1  0  0  0  0
 18 21  1  0  0  0  0
 21 22  1  0  0  0  0
 21 23  1  0  0  0  0
 13 24  1  0  0  0  0
 24 25  1  0  0  0  0
M  END
> <VConfSearch Rank>
662

> <Conf_Id>
161

> <Delta U+W>
2.120

> <U+W>
13.033

> <U>
15.076

> <W>
-2.043

> <W(PB)>
-4.186

> <W(SA)>
2.143

> <Valence>
18.884

> <Coulomb>
-8.074

> <VdW>
4.266

> <VdW6>
-13.486

> <VdW12>
17.752

> <Bond>
0.713

> <Angle>
8.955

> <Pdih>
9.215

> <Idih>
0.000

> <Tether>
0.000

$$$$
VeraChem MOL file


 25 25  0  0  0  0  0  0  0  0999 V2000     
   20.1335   18.9967   24.5936 C   0  0  0  0  0  0  0  0  0  0  0  0
   19.8060   19.0172   25.6421 H   0  0  0  0  0  0  0  0  0  0  0  0
   21.1767   18.6585   24.6332 H   0  0  0  0  0  0  0  0  0  0  0  0
   20.0674   20.4433   24.0434 C   0  0  0  0  0  0  0  0  0  0  0  0
   19.0629   20.6703   23.6619 H   0  0  0  0  0  0  0  0  0  0  0  0
   20.2115   21.1163   24.8998 H   0  0  0  0  0  0  0  0  0  0  0  0
   21.1604   20.8043   22.9992 C   0  0  0  0  0  0  0  0  0  0  0  0
   22.1197   20.3320   23.2500 H   0  0  0  0  0  0  0  0  0  0  0  0
   21.3376   21.8851   23.0864 H   0  0  0  0  0  0  0  0  0  0  0  0
   20.7808   20.5298   21.5210 C   0  0  0  0  0  0  0  0  0  0  0  0
   19.7079   20.7037   21.3737 H   0  0  0  0  0  0  0  0  0  0  0  0
   21.2778   21.2890   20.9027 H   0  0  0  0  0  0  0  0  0  0  0  0
   21.2025   19.1522   20.9499 C   0  0  0  0  0  0  0  0  0  0  0  0
   22.2972   19.1500   20.8480 H   0  0  0  0  0  0  0  0  0  0  0  0
   20.8129   17.9118   21.7868 C   0  0  0  0  0  0  0  0  0  0  0  0
   20.9623   17.0176   21.1669 H   0  0  0  0  0  0  0  0  0  0  0  0
   21.5289   17.7971   22.6077 H   0  0  0  0  0  0  0  0  0  0  0  0
   19.3549   17.9138   22.3192 C   0  0  0  0  0  0  0  0  0  0  0  0
   18.8476   17.0066   21.9637 H   0  0  0  0  0  0  0  0  0  0  0  0
   18.7781   18.7435   21.8949 H   0  0  0  0  0  0  0  0  0  0  0  0
   19.2479   17.9532   23.8625 C   0  0  0  0  0  0  0  0  0  0  0  0
   19.4939   16.9585   24.2586 H   0  0  0  0  0  0  0  0  0  0  0  0
   18.1971   18.1296   24.1300 H   0  0  0  0  0  0  0  0  0  0  0  0
   20.6228   19.0164   19.6600 O   0  0  0  0  0  0  0  0  0  0  0  0
   19.6648   18.8834   19.8095 H   0  0  0  0  0  0  0  0  0  0  0  0
  1  2  1  0  0  0  0
  1  3  1  0  0  0  0
  1  4  1  0  0  0  0
  4  5  1  0  0  0  0
  4  6  1  0  0  0  0
  4  7  1  0  0  0  0
  7  8  1  0  0  0  0
  7  9  1  0  0  0  0
  7 10  1  0  0  0  0
 10 11  1  0  0  0  0
 10 12  1  0  0  0  0
 10 13  1  0  0  0  0
 13 14  1  0  0  0  0
 13 15  1  0  0  0  0
 15 16  1  0  0  0  0
 15 17  1  0  0  0  0
 15 18  1  0  0  0  0
 18 19  1  0  0  0  0
 18 20  1  0  0  0  0
  1 21  1  0  0  0  0
 18 21  1  0  0  0  0
 21 22  1  0  0  0  0
 21 23  1  0  0  0  0
 13 24  1  0  0  0  0
 24 25  1  0  0  0  0
M  END
> <VConfSearch Rank>
663

> <Conf_Id>
164

> <Delta U+W>
0.008

> <U+W>
10.922

> <U>
12.433

> <W>
-1.511

> <W(PB)>
-3.669

> <W(SA)>
2.157

> <Valence>
19.007

> <Coulomb>
-9.373

> <VdW>
2.799

> <VdW6>
-12.597

> <VdW12>
15.396

> <Bond>
0.425

> <Angle>
4.784

> <Pdih>
13.799

> <Idih>
0.000

> <Tether>
0.000

$$$$
VeraChem MOL file


 25 25  0  0  0  0  0  0  0  0999 V2000     
   20.5293   21.0095   22.8040 C   0  0  0  0  0  0  0  0  0  0  0  0
   20.1695   20.8591   21.7799 H   0  0  0  0  0  0  0  0  0  0  0  0
   20.6573   22.0967   22.8950 H   0  0  0  0  0  0  0  0  0  0  0  0
   21.9262   20.3653   22.9863 C   0  0  0  0  0  0  0  0  0  0  0  0
   22.6068   20.8481   22.2717 H   0  0  0  0  0  0  0  0  0  0  0  0
   22.3147   20.6169   23.9825 H   0  0  0  0  0  0  0  0  0  0  0  0
   22.0305   18.8328   22.7783 C   0  0  0  0  0  0  0  0  0  0  0  0
   21.7394   18.2997   23.6905 H   0  0  0  0  0  0  0  0  0  0  0  0
   23.0953   18.5951   22.6492 H   0  0  0  0  0  0  0  0  0  0  0  0
   21.2578   18.2763   21.5527 C   0  0  0  0  0  0  0  0  0  0  0  0
   21.1160   19.0536   20.7920 H   0  0  0  0  0  0  0  0  0  0  0  0
   21.8983   17.5202   21.0791 H   0  0  0  0  0  0  0  0  0  0  0  0
   19.9135   17.5835   21.8892 C   0  0  0  0  0  0  0  0  0  0  0  0
   20.1046   16.8195   22.6563 H   0  0  0  0  0  0  0  0  0  0  0  0
   18.7699   18.4988   22.3941 C   0  0  0  0  0  0  0  0  0  0  0  0
   18.5463   19.2834   21.6611 H   0  0  0  0  0  0  0  0  0  0  0  0
   17.8632   17.8811   22.4438 H   0  0  0  0  0  0  0  0  0  0  0  0
   18.9930   19.1045   23.8055 C   0  0  0  0  0  0  0  0  0  0  0  0
   19.6854   18.4834   24.3852 H   0  0  0  0  0  0  0  0  0  0  0  0
   18.0447   19.0469   24.3573 H   0  0  0  0  0  0  0  0  0  0  0  0
   19.4442   20.5873   23.8258 C   0  0  0  0  0  0  0  0  0  0  0  0
   19.7809   20.8436   24.8394 H   0  0  0  0  0  0  0  0  0  0  0  0
   18.5583   21.2102   23.6409 H   0  0  0  0  0  0  0  0  0  0  0  0
   19.4568   16.9338   20.7108 O   0  0  0  0  0  0  0  0  0  0  0  0
   19.2969   17.6393   20.0509 H   0  0  0  0  0  0  0  0  0  0  0  0
  1  2  1  0  0  0  0
  1  3  1  0  0  0  0
  1  4  1  0  0  0  0
  4  5  1  0  0  0  0
  4  6  1  0  0  0  0
  4  7  1  0  0  0  0
  7  8  1  0  0  0  0
  7  9  1  0  0  0  0
  7 10  1  0  0  0  0
 10 11  1  0  0  0  0
 10 12  1  0  0  0  0
 10 13  1  0  0  0  0
 13 14  1  0  0  0  0
 13 15  1  0  0  0  0
 15 16  1  0  0  0  0
 15 17  1  0  0  0  0
 15 18  1  0  0  0  0
 18 19  1  0  0  0  0
 18 20  1  0  0  0  0
  1 21  1  0  0  0  0
 18 21  1  0  0  0  0
 21 22  1  0  0  0  0
 21 23  1  0  0  0  0
 13 24  1  0  0  0  0
 24 25  1  0  0  0  0
M  END
> <VConfSearch Rank>
664

> <Conf_Id>
15

> <Delta U+W>
-1.271

> <U+W>
9.643

> <U>
11.413

> <W>
-1.770

> <W(PB)>
-3.908

> <W(SA)>
2.138

> <Valence>
17.496

> <Coulomb>
-8.736

> <VdW>
2.653

> <VdW6>
-12.485

> <VdW12>
15.138

> <Bond>
0.414

> <Angle>
5.295

> <Pdih>
11.787

> <Idih>
0.000

> <Tether>
0.000

$$$$
VeraChem MOL file


 25 25  0  0  0  0  0  0  0  0999 V2000     
   20.5425   20.3305   21.0897 C   0  0  0  0  0  0  0  0  0  0  0  0
   20.8401   20.8752   20.1832 H   0  0  0  0  0  0  0  0  0  0  0  0
   19.8546   21.0087   21.6102 H   0  0  0  0  0  0  0  0  0  0  0  0
   19.8008   19.0494   20.6254 C   0  0  0  0  0  0  0  0  0  0  0  0
   18.8622   19.3549   20.1431 H   0  0  0  0  0  0  0  0  0  0  0  0
   20.3939   18.5599   19.8409 H   0  0  0  0  0  0  0  0  0  0  0  0
   19.4787   17.9998   21.7162 C   0  0  0  0  0  0  0  0  0  0  0  0
   20.3796   17.4174   21.9422 H   0  0  0  0  0  0  0  0  0  0  0  0
   18.7737   17.2722   21.2915 H   0  0  0  0  0  0  0  0  0  0  0  0
   18.8614   18.5966   23.0078 C   0  0  0  0  0  0  0  0  0  0  0  0
   18.6081   19.6534   22.8680 H   0  0  0  0  0  0  0  0  0  0  0  0
   17.9010   18.0988   23.1953 H   0  0  0  0  0  0  0  0  0  0  0  0
   19.7314   18.4227   24.2739 C   0  0  0  0  0  0  0  0  0  0  0  0
   19.6712   17.3673   24.5761 H   0  0  0  0  0  0  0  0  0  0  0  0
   21.2357   18.7721   24.1345 C   0  0  0  0  0  0  0  0  0  0  0  0
   21.6627   18.7596   25.1464 H   0  0  0  0  0  0  0  0  0  0  0  0
   21.7605   17.9669   23.6066 H   0  0  0  0  0  0  0  0  0  0  0  0
   21.5833   20.1380   23.4845 C   0  0  0  0  0  0  0  0  0  0  0  0
   22.5272   20.4723   23.9365 H   0  0  0  0  0  0  0  0  0  0  0  0
   20.8464   20.9052   23.7551 H   0  0  0  0  0  0  0  0  0  0  0  0
   21.8112   20.1018   21.9481 C   0  0  0  0  0  0  0  0  0  0  0  0
   22.3274   19.1812   21.6444 H   0  0  0  0  0  0  0  0  0  0  0  0
   22.5080   20.9174   21.7105 H   0  0  0  0  0  0  0  0  0  0  0  0
   19.1765   19.2248   25.3069 O   0  0  0  0  0  0  0  0  0  0  0  0
   19.3367   20.1525   25.0408 H   0  0  0  0  0  0  0  0  0  0  0  0
  1  2  1  0  0  0  0
  1  3  1  0  0  0  0
  1  4  1  0  0  0  0
  4  5  1  0  0  0  0
  4  6  1  0  0  0  0
  4  7  1  0  0  0  0
  7  8  1  0  0  0  0
  7  9  1  0  0  0  0
  7 10  1  0  0  0  0
 10 11  1  0  0  0  0
 10 12  1  0  0  0  0
 10 13  1  0  0  0  0
 13 14  1  0  0  0  0
 13 15  1  0  0  0  0
 15 16  1  0  0  0  0
 15 17  1  0  0  0  0
 15 18  1  0  0  0  0
 18 19  1  0  0  0  0
 18 20  1  0  0  0  0
  1 21  1  0  0  0  0
 18 21  1  0  0  0  0
 21 22  1  0  0  0  0
 21 23  1  0  0  0  0
 13 24  1  0  0  0  0
 24 25  1  0  0  0  0
M  END
> <VConfSearch Rank>
665

> <Conf_Id>
115

> <Delta U+W>
0.038

> <U+W>
10.952

> <U>
12.526

> <W>
-1.575

> <W(PB)>
-3.698

> <W(SA)>
2.123

> <Valence>
19.016

> <Coulomb>
-9.226

> <VdW>
2.737

> <VdW6>
-12.612

> <VdW12>
15.349

> <Bond>
0.421

> <Angle>
4.883

> <Pdih>
13.711

> <Idih>
0.000

> <Tether>
0.000

$$$$
VeraChem MOL file


 25 25  0  0  0  0  0  0  0  0999 V2000     
   21.6625   20.8383   22.1112 C   0  0  0  0  0  0  0  0  0  0  0  0
   22.3294   21.6837   22.3292 H   0  0  0  0  0  0  0  0  0  0  0  0
   21.8434   20.5851   21.0578 H   0  0  0  0  0  0  0  0  0  0  0  0
   20.2105   21.3375   22.2957 C   0  0  0  0  0  0  0  0  0  0  0  0
   20.0655   21.7054   23.3205 H   0  0  0  0  0  0  0  0  0  0  0  0
   20.0797   22.2141   21.6464 H   0  0  0  0  0  0  0  0  0  0  0  0
   19.1116   20.3108   21.9362 C   0  0  0  0  0  0  0  0  0  0  0  0
   19.3798   19.7709   21.0183 H   0  0  0  0  0  0  0  0  0  0  0  0
   18.2029   20.8758   21.6869 H   0  0  0  0  0  0  0  0  0  0  0  0
   18.7510   19.3321   23.0860 C   0  0  0  0  0  0  0  0  0  0  0  0
   19.1624   19.6735   24.0441 H   0  0  0  0  0  0  0  0  0  0  0  0
   17.6599   19.3603   23.2097 H   0  0  0  0  0  0  0  0  0  0  0  0
   19.1611   17.8647   22.8281 C   0  0  0  0  0  0  0  0  0  0  0  0
   19.0334   17.6421   21.7590 H   0  0  0  0  0  0  0  0  0  0  0  0
   20.6079   17.5175   23.2437 C   0  0  0  0  0  0  0  0  0  0  0  0
   20.7357   17.6754   24.3227 H   0  0  0  0  0  0  0  0  0  0  0  0
   20.7499   16.4411   23.0805 H   0  0  0  0  0  0  0  0  0  0  0  0
   21.7196   18.2585   22.4616 C   0  0  0  0  0  0  0  0  0  0  0  0
   21.4688   18.3070   21.3935 H   0  0  0  0  0  0  0  0  0  0  0  0
   22.6267   17.6412   22.5193 H   0  0  0  0  0  0  0  0  0  0  0  0
   22.0763   19.6596   23.0234 C   0  0  0  0  0  0  0  0  0  0  0  0
   23.1687   19.7005   23.1340 H   0  0  0  0  0  0  0  0  0  0  0  0
   21.6769   19.8005   24.0365 H   0  0  0  0  0  0  0  0  0  0  0  0
   18.2889   17.0259   23.5760 O   0  0  0  0  0  0  0  0  0  0  0  0
   18.5292   16.1012   23.3580 H   0  0  0  0  0  0  0  0  0  0  0  0
  1  2  1  0  0  0  0
  1  3  1  0  0  0  0
  1  4  1  0  0  0  0
  4  5  1  0  0  0  0
  4  6  1  0  0  0  0
  4  7  1  0  0  0  0
  7  8  1  0  0  0  0
  7  9  1  0  0  0  0
  7 10  1  0  0  0  0
 10 11  1  0  0  0  0
 10 12  1  0  0  0  0
 10 13  1  0  0  0  0
 13 14  1  0  0  0  0
 13 15  1  0  0  0  0
 15 16  1  0  0  0  0
 15 17  1  0  0  0  0
 15 18  1  0  0  0  0
 18 19  1  0  0  0  0
 18 20  1  0  0  0  0
  1 21  1  0  0  0  0
 18 21  1  0  0  0  0
 21 22  1  0  0  0  0
 21 23  1  0  0  0  0
 13 24  1  0  0  0  0
 24 25  1  0  0  0  0
M  END
> <VConfSearch Rank>
666

> <Conf_Id>
30

> <Delta U+W>
0.000

> <U+W>
10.913

> <U>
13.140

> <W>
-2.227

> <W(PB)>
-4.367

> <W(SA)>
2.140

> <Valence>
19.155

> <Coulomb>
-8.157

> <VdW>
2.142

> <VdW6>
-11.576

> <VdW12>
13.718

> <Bond>
0.294

> <Angle>
3.547

> <Pdih>
15.314

> <Idih>
0.000

> <Tether>
0.000

$$$$
VeraChem MOL file


 25 25  0  0  0  0  0  0  0  0999 V2000     
   19.2923   17.8921   23.9683 C   0  0  0  0  0  0  0  0  0  0  0  0
   19.0711   16.8175   23.9128 H   0  0  0  0  0  0  0  0  0  0  0  0
   18.8120   18.2466   24.8905 H   0  0  0  0  0  0  0  0  0  0  0  0
   18.6142   18.5958   22.7670 C   0  0  0  0  0  0  0  0  0  0  0  0
   17.5998   18.1867   22.6640 H   0  0  0  0  0  0  0  0  0  0  0  0
   18.4626   19.6563   22.9992 H   0  0  0  0  0  0  0  0  0  0  0  0
   19.3577   18.4203   21.4187 C   0  0  0  0  0  0  0  0  0  0  0  0
   18.6614   17.9920   20.6850 H   0  0  0  0  0  0  0  0  0  0  0  0
   20.1618   17.6804   21.5060 H   0  0  0  0  0  0  0  0  0  0  0  0
   19.9224   19.7388   20.8319 C   0  0  0  0  0  0  0  0  0  0  0  0
   20.5833   19.4891   19.9913 H   0  0  0  0  0  0  0  0  0  0  0  0
   19.0907   20.3116   20.4014 H   0  0  0  0  0  0  0  0  0  0  0  0
   20.6793   20.6723   21.8096 C   0  0  0  0  0  0  0  0  0  0  0  0
   19.9604   21.1289   22.5029 H   0  0  0  0  0  0  0  0  0  0  0  0
   21.7986   19.9915   22.6349 C   0  0  0  0  0  0  0  0  0  0  0  0
   22.2513   19.1728   22.0611 H   0  0  0  0  0  0  0  0  0  0  0  0
   22.6051   20.7218   22.7838 H   0  0  0  0  0  0  0  0  0  0  0  0
   21.3683   19.5062   24.0481 C   0  0  0  0  0  0  0  0  0  0  0  0
   20.6580   20.2054   24.5096 H   0  0  0  0  0  0  0  0  0  0  0  0
   22.2643   19.5398   24.6832 H   0  0  0  0  0  0  0  0  0  0  0  0
   20.8293   18.0555   24.1082 C   0  0  0  0  0  0  0  0  0  0  0  0
   21.1079   17.6324   25.0831 H   0  0  0  0  0  0  0  0  0  0  0  0
   21.3525   17.4305   23.3735 H   0  0  0  0  0  0  0  0  0  0  0  0
   21.2630   21.7107   21.0317 O   0  0  0  0  0  0  0  0  0  0  0  0
   21.6715   22.3401   21.6621 H   0  0  0  0  0  0  0  0  0  0  0  0
  1  2  1  0  0  0  0
  1  3  1  0  0  0  0
  1  4  1  0  0  0  0
  4  5  1  0  0  0  0
  4  6  1  0  0  0  0
  4  7  1  0  0  0  0
  7  8  1  0  0  0  0
  7  9  1  0  0  0  0
  7 10  1  0  0  0  0
 10 11  1  0  0  0  0
 10 12  1  0  0  0  0
 10 13  1  0  0  0  0
 13 14  1  0  0  0  0
 13 15  1  0  0  0  0
 15 16  1  0  0  0  0
 15 17  1  0  0  0  0
 15 18  1  0  0  0  0
 18 19  1  0  0  0  0
 18 20  1  0  0  0  0
  1 21  1  0  0  0  0
 18 21  1  0  0  0  0
 21 22  1  0  0  0  0
 21 23  1  0  0  0  0
 13 24  1  0  0  0  0
 24 25  1  0  0  0  0
M  END
> <VConfSearch Rank>
667

> <Conf_Id>
162

> <Delta U+W>
0.219

> <U+W>
11.132

> <U>
13.296

> <W>
-2.164

> <W(PB)>
-4.311

> <W(SA)>
2.148

> <Valence>
18.607

> <Coulomb>
-8.339

> <VdW>
3.028

> <VdW6>
-12.271

> <VdW12>
15.299

> <Bond>
0.423

> <Angle>
4.488

> <Pdih>
13.696

> <Idih>
0.000

> <Tether>
0.000

$$$$
VeraChem MOL file


 25 25  0  0  0  0  0  0  0  0999 V2000     
   21.0686   20.6120   21.4082 C   0  0  0  0  0  0  0  0  0  0  0  0
   20.0405   20.9805   21.3012 H   0  0  0  0  0  0  0  0  0  0  0  0
   21.6751   21.2934   20.7959 H   0  0  0  0  0  0  0  0  0  0  0  0
   21.5302   20.7531   22.8802 C   0  0  0  0  0  0  0  0  0  0  0  0
   22.3807   20.0898   23.0873 H   0  0  0  0  0  0  0  0  0  0  0  0
   21.9227   21.7729   22.9944 H   0  0  0  0  0  0  0  0  0  0  0  0
   20.4108   20.5799   23.9443 C   0  0  0  0  0  0  0  0  0  0  0  0
   19.4631   21.0130   23.5975 H   0  0  0  0  0  0  0  0  0  0  0  0
   20.7044   21.1830   24.8145 H   0  0  0  0  0  0  0  0  0  0  0  0
   20.2011   19.1302   24.4539 C   0  0  0  0  0  0  0  0  0  0  0  0
   21.1599   18.5976   24.4725 H   0  0  0  0  0  0  0  0  0  0  0  0
   19.8886   19.1861   25.5048 H   0  0  0  0  0  0  0  0  0  0  0  0
   19.1261   18.2910   23.7181 C   0  0  0  0  0  0  0  0  0  0  0  0
   18.1405   18.7010   23.9817 H   0  0  0  0  0  0  0  0  0  0  0  0
   19.2155   18.2656   22.1736 C   0  0  0  0  0  0  0  0  0  0  0  0
   18.5450   17.4820   21.7975 H   0  0  0  0  0  0  0  0  0  0  0  0
   18.7954   19.1965   21.7778 H   0  0  0  0  0  0  0  0  0  0  0  0
   20.6391   18.0168   21.6090 C   0  0  0  0  0  0  0  0  0  0  0  0
   20.6127   17.1286   20.9634 H   0  0  0  0  0  0  0  0  0  0  0  0
   21.3389   17.7571   22.4121 H   0  0  0  0  0  0  0  0  0  0  0  0
   21.2099   19.1972   20.7865 C   0  0  0  0  0  0  0  0  0  0  0  0
   20.7244   19.2072   19.8012 H   0  0  0  0  0  0  0  0  0  0  0  0
   22.2730   18.9989   20.5934 H   0  0  0  0  0  0  0  0  0  0  0  0
   19.2136   16.9549   24.1990 O   0  0  0  0  0  0  0  0  0  0  0  0
   18.5308   16.4388   23.7230 H   0  0  0  0  0  0  0  0  0  0  0  0
  1  2  1  0  0  0  0
  1  3  1  0  0  0  0
  1  4  1  0  0  0  0
  4  5  1  0  0  0  0
  4  6  1  0  0  0  0
  4  7  1  0  0  0  0
  7  8  1  0  0  0  0
  7  9  1  0  0  0  0
  7 10  1  0  0  0  0
 10 11  1  0  0  0  0
 10 12  1  0  0  0  0
 10 13  1  0  0  0  0
 13 14  1  0  0  0  0
 13 15  1  0  0  0  0
 15 16  1  0  0  0  0
 15 17  1  0  0  0  0
 15 18  1  0  0  0  0
 18 19  1  0  0  0  0
 18 20  1  0  0  0  0
  1 21  1  0  0  0  0
 18 21  1  0  0  0  0
 21 22  1  0  0  0  0
 21 23  1  0  0  0  0
 13 24  1  0  0  0  0
 24 25  1  0  0  0  0
M  END
> <VConfSearch Rank>
668

> <Conf_Id>
155

> <Delta U+W>
0.339

> <U+W>
11.252

> <U>
13.420

> <W>
-2.167

> <W(PB)>
-4.325

> <W(SA)>
2.157

> <Valence>
18.609

> <Coulomb>
-8.052

> <VdW>
2.863

> <VdW6>
-12.524

> <VdW12>
15.387

> <Bond>
0.430

> <Angle>
4.724

> <Pdih>
13.455

> <Idih>
0.000

> <Tether>
0.000

$$$$
VeraChem MOL file


 25 25  0  0  0  0  0  0  0  0999 V2000     
   18.6868   18.2124   23.1645 C   0  0  0  0  0  0  0  0  0  0  0  0
   18.3280   17.5226   22.3887 H   0  0  0  0  0  0  0  0  0  0  0  0
   17.9838   18.1020   24.0014 H   0  0  0  0  0  0  0  0  0  0  0  0
   20.0720   17.7336   23.6732 C   0  0  0  0  0  0  0  0  0  0  0  0
   20.3771   18.3498   24.5249 H   0  0  0  0  0  0  0  0  0  0  0  0
   19.9373   16.7361   24.1131 H   0  0  0  0  0  0  0  0  0  0  0  0
   21.2225   17.6217   22.6306 C   0  0  0  0  0  0  0  0  0  0  0  0
   21.1504   16.6288   22.1665 H   0  0  0  0  0  0  0  0  0  0  0  0
   22.1849   17.6292   23.1602 H   0  0  0  0  0  0  0  0  0  0  0  0
   21.2692   18.6598   21.4764 C   0  0  0  0  0  0  0  0  0  0  0  0
   22.0510   18.3370   20.7765 H   0  0  0  0  0  0  0  0  0  0  0  0
   20.3549   18.5779   20.8823 H   0  0  0  0  0  0  0  0  0  0  0  0
   21.5435   20.1479   21.8434 C   0  0  0  0  0  0  0  0  0  0  0  0
   21.1397   20.7724   21.0337 H   0  0  0  0  0  0  0  0  0  0  0  0
   20.9712   20.6764   23.1827 C   0  0  0  0  0  0  0  0  0  0  0  0
   21.4102   20.1080   24.0078 H   0  0  0  0  0  0  0  0  0  0  0  0
   21.3624   21.6916   23.3308 H   0  0  0  0  0  0  0  0  0  0  0  0
   19.4222   20.7613   23.3303 C   0  0  0  0  0  0  0  0  0  0  0  0
   19.1054   21.7296   22.9194 H   0  0  0  0  0  0  0  0  0  0  0  0
   19.1689   20.7998   24.3983 H   0  0  0  0  0  0  0  0  0  0  0  0
   18.5590   19.6727   22.6400 C   0  0  0  0  0  0  0  0  0  0  0  0
   18.7197   19.7134   21.5581 H   0  0  0  0  0  0  0  0  0  0  0  0
   17.5059   19.9643   22.7533 H   0  0  0  0  0  0  0  0  0  0  0  0
   22.9541   20.3314   21.8950 O   0  0  0  0  0  0  0  0  0  0  0  0
   23.3086   20.0450   21.0281 H   0  0  0  0  0  0  0  0  0  0  0  0
  1  2  1  0  0  0  0
  1  3  1  0  0  0  0
  1  4  1  0  0  0  0
  4  5  1  0  0  0  0
  4  6  1  0  0  0  0
  4  7  1  0  0  0  0
  7  8  1  0  0  0  0
  7  9  1  0  0  0  0
  7 10  1  0  0  0  0
 10 11  1  0  0  0  0
 10 12  1  0  0  0  0
 10 13  1  0  0  0  0
 13 14  1  0  0  0  0
 13 15  1  0  0  0  0
 15 16  1  0  0  0  0
 15 17  1  0  0  0  0
 15 18  1  0  0  0  0
 18 19  1  0  0  0  0
 18 20  1  0  0  0  0
  1 21  1  0  0  0  0
 18 21  1  0  0  0  0
 21 22  1  0  0  0  0
 21 23  1  0  0  0  0
 13 24  1  0  0  0  0
 24 25  1  0  0  0  0
M  END
> <VConfSearch Rank>
669

> <Conf_Id>
146

> <Delta U+W>
2.553

> <U+W>
13.466

> <U>
15.643

> <W>
-2.176

> <W(PB)>
-4.307

> <W(SA)>
2.131

> <Valence>
18.916

> <Coulomb>
-7.506

> <VdW>
4.232

> <VdW6>
-13.632

> <VdW12>
17.864

> <Bond>
0.735

> <Angle>
9.140

> <Pdih>
9.042

> <Idih>
0.000

> <Tether>
0.000

$$$$
VeraChem MOL file


 25 25  0  0  0  0  0  0  0  0999 V2000     
   21.5385   19.2339   20.9878 C   0  0  0  0  0  0  0  0  0  0  0  0
   21.4066   19.9328   20.1508 H   0  0  0  0  0  0  0  0  0  0  0  0
   22.3947   18.6023   20.7141 H   0  0  0  0  0  0  0  0  0  0  0  0
   20.2968   18.3126   21.0852 C   0  0  0  0  0  0  0  0  0  0  0  0
   20.2271   17.7587   20.1391 H   0  0  0  0  0  0  0  0  0  0  0  0
   20.4545   17.5395   21.8459 H   0  0  0  0  0  0  0  0  0  0  0  0
   18.9367   19.0215   21.3039 C   0  0  0  0  0  0  0  0  0  0  0  0
   18.1505   18.2573   21.2338 H   0  0  0  0  0  0  0  0  0  0  0  0
   18.7515   19.7162   20.4736 H   0  0  0  0  0  0  0  0  0  0  0  0
   18.7452   19.7770   22.6449 C   0  0  0  0  0  0  0  0  0  0  0  0
   19.2045   20.7691   22.5914 H   0  0  0  0  0  0  0  0  0  0  0  0
   17.6706   19.9779   22.7515 H   0  0  0  0  0  0  0  0  0  0  0  0
   19.2464   19.0222   23.9031 C   0  0  0  0  0  0  0  0  0  0  0  0
   19.3259   17.9494   23.6817 H   0  0  0  0  0  0  0  0  0  0  0  0
   20.6022   19.5348   24.4516 C   0  0  0  0  0  0  0  0  0  0  0  0
   20.5298   20.6140   24.6408 H   0  0  0  0  0  0  0  0  0  0  0  0
   20.7674   19.0721   25.4334 H   0  0  0  0  0  0  0  0  0  0  0  0
   21.8616   19.2487   23.5892 C   0  0  0  0  0  0  0  0  0  0  0  0
   21.9800   18.1710   23.4177 H   0  0  0  0  0  0  0  0  0  0  0  0
   22.7342   19.5406   24.1896 H   0  0  0  0  0  0  0  0  0  0  0  0
   21.9300   20.0366   22.2554 C   0  0  0  0  0  0  0  0  0  0  0  0
   22.9643   20.3787   22.1135 H   0  0  0  0  0  0  0  0  0  0  0  0
   21.3447   20.9605   22.3237 H   0  0  0  0  0  0  0  0  0  0  0  0
   18.2810   19.1929   24.9347 O   0  0  0  0  0  0  0  0  0  0  0  0
   18.5865   18.6615   25.6993 H   0  0  0  0  0  0  0  0  0  0  0  0
  1  2  1  0  0  0  0
  1  3  1  0  0  0  0
  1  4  1  0  0  0  0
  4  5  1  0  0  0  0
  4  6  1  0  0  0  0
  4  7  1  0  0  0  0
  7  8  1  0  0  0  0
  7  9  1  0  0  0  0
  7 10  1  0  0  0  0
 10 11  1  0  0  0  0
 10 12  1  0  0  0  0
 10 13  1  0  0  0  0
 13 14  1  0  0  0  0
 13 15  1  0  0  0  0
 15 16  1  0  0  0  0
 15 17  1  0  0  0  0
 15 18  1  0  0  0  0
 18 19  1  0  0  0  0
 18 20  1  0  0  0  0
  1 21  1  0  0  0  0
 18 21  1  0  0  0  0
 21 22  1  0  0  0  0
 21 23  1  0  0  0  0
 13 24  1  0  0  0  0
 24 25  1  0  0  0  0
M  END
> <VConfSearch Rank>
670

> <Conf_Id>
62

> <Delta U+W>
-1.779

> <U+W>
9.134

> <U>
11.364

> <W>
-2.230

> <W(PB)>
-4.359

> <W(SA)>
2.129

> <Valence>
16.582

> <Coulomb>
-8.150

> <VdW>
2.933

> <VdW6>
-12.531

> <VdW12>
15.464

> <Bond>
0.439

> <Angle>
5.099

> <Pdih>
11.044

> <Idih>
0.000

> <Tether>
0.000

$$$$
VeraChem MOL file


 25 25  0  0  0  0  0  0  0  0999 V2000     
   19.4982   20.8284   22.9362 C   0  0  0  0  0  0  0  0  0  0  0  0
   19.9708   20.9333   21.9530 H   0  0  0  0  0  0  0  0  0  0  0  0
   19.0004   21.7924   23.1080 H   0  0  0  0  0  0  0  0  0  0  0  0
   20.5745   20.6635   24.0380 C   0  0  0  0  0  0  0  0  0  0  0  0
   21.2078   21.5609   24.0161 H   0  0  0  0  0  0  0  0  0  0  0  0
   20.0887   20.6670   25.0232 H   0  0  0  0  0  0  0  0  0  0  0  0
   21.5027   19.4260   23.9393 C   0  0  0  0  0  0  0  0  0  0  0  0
   21.0167   18.5449   24.3734 H   0  0  0  0  0  0  0  0  0  0  0  0
   22.3643   19.6148   24.5944 H   0  0  0  0  0  0  0  0  0  0  0  0
   22.0358   19.1087   22.5165 C   0  0  0  0  0  0  0  0  0  0  0  0
   22.0335   20.0057   21.8852 H   0  0  0  0  0  0  0  0  0  0  0  0
   23.0929   18.8311   22.6208 H   0  0  0  0  0  0  0  0  0  0  0  0
   21.3199   17.9373   21.7977 C   0  0  0  0  0  0  0  0  0  0  0  0
   21.3365   17.0626   22.4638 H   0  0  0  0  0  0  0  0  0  0  0  0
   19.8527   18.1868   21.3676 C   0  0  0  0  0  0  0  0  0  0  0  0
   19.7897   19.0561   20.7019 H   0  0  0  0  0  0  0  0  0  0  0  0
   19.5500   17.3296   20.7516 H   0  0  0  0  0  0  0  0  0  0  0  0
   18.8366   18.2998   22.5356 C   0  0  0  0  0  0  0  0  0  0  0  0
   19.2142   17.7822   23.4247 H   0  0  0  0  0  0  0  0  0  0  0  0
   17.9313   17.7429   22.2574 H   0  0  0  0  0  0  0  0  0  0  0  0
   18.3945   19.7422   22.8917 C   0  0  0  0  0  0  0  0  0  0  0  0
   17.8629   19.7252   23.8528 H   0  0  0  0  0  0  0  0  0  0  0  0
   17.6516   20.0589   22.1470 H   0  0  0  0  0  0  0  0  0  0  0  0
   22.0635   17.6320   20.6246 O   0  0  0  0  0  0  0  0  0  0  0  0
   22.9724   17.4095   20.9153 H   0  0  0  0  0  0  0  0  0  0  0  0
  1  2  1  0  0  0  0
  1  3  1  0  0  0  0
  1  4  1  0  0  0  0
  4  5  1  0  0  0  0
  4  6  1  0  0  0  0
  4  7  1  0  0  0  0
  7  8  1  0  0  0  0
  7  9  1  0  0  0  0
  7 10  1  0  0  0  0
 10 11  1  0  0  0  0
 10 12  1  0  0  0  0
 10 13  1  0  0  0  0
 13 14  1  0  0  0  0
 13 15  1  0  0  0  0
 15 16  1  0  0  0  0
 15 17  1  0  0  0  0
 15 18  1  0  0  0  0
 18 19  1  0  0  0  0
 18 20  1  0  0  0  0
  1 21  1  0  0  0  0
 18 21  1  0  0  0  0
 21 22  1  0  0  0  0
 21 23  1  0  0  0  0
 13 24  1  0  0  0  0
 24 25  1  0  0  0  0
M  END
> <VConfSearch Rank>
671

> <Conf_Id>
121

> <Delta U+W>
-1.283

> <U+W>
9.630

> <U>
11.876

> <W>
-2.246

> <W(PB)>
-4.376

> <W(SA)>
2.130

> <Valence>
17.153

> <Coulomb>
-7.966

> <VdW>
2.689

> <VdW6>
-12.458

> <VdW12>
15.147

> <Bond>
0.421

> <Angle>
5.258

> <Pdih>
11.475

> <Idih>
0.000

> <Tether>
0.000

$$$$
VeraChem MOL file


 25 25  0  0  0  0  0  0  0  0999 V2000     
   22.1134   19.7156   22.2905 C   0  0  0  0  0  0  0  0  0  0  0  0
   21.9687   18.7567   21.7799 H   0  0  0  0  0  0  0  0  0  0  0  0
   23.1480   20.0005   22.0559 H   0  0  0  0  0  0  0  0  0  0  0  0
   22.0246   19.5286   23.8257 C   0  0  0  0  0  0  0  0  0  0  0  0
   22.8139   18.8223   24.1170 H   0  0  0  0  0  0  0  0  0  0  0  0
   22.2759   20.4758   24.3220 H   0  0  0  0  0  0  0  0  0  0  0  0
   20.6834   19.0016   24.3970 C   0  0  0  0  0  0  0  0  0  0  0  0
   19.9699   19.8235   24.5249 H   0  0  0  0  0  0  0  0  0  0  0  0
   20.8825   18.6495   25.4185 H   0  0  0  0  0  0  0  0  0  0  0  0
   20.0353   17.8372   23.6011 C   0  0  0  0  0  0  0  0  0  0  0  0
   20.7873   17.2829   23.0266 H   0  0  0  0  0  0  0  0  0  0  0  0
   19.6438   17.1180   24.3328 H   0  0  0  0  0  0  0  0  0  0  0  0
   18.8496   18.2457   22.6915 C   0  0  0  0  0  0  0  0  0  0  0  0
   18.1239   18.7993   23.3046 H   0  0  0  0  0  0  0  0  0  0  0  0
   19.1975   19.1091   21.4526 C   0  0  0  0  0  0  0  0  0  0  0  0
   19.9276   18.5928   20.8172 H   0  0  0  0  0  0  0  0  0  0  0  0
   18.2878   19.1874   20.8429 H   0  0  0  0  0  0  0  0  0  0  0  0
   19.6603   20.5556   21.7730 C   0  0  0  0  0  0  0  0  0  0  0  0
   19.2791   20.8738   22.7499 H   0  0  0  0  0  0  0  0  0  0  0  0
   19.1805   21.2361   21.0562 H   0  0  0  0  0  0  0  0  0  0  0  0
   21.1885   20.7978   21.6798 C   0  0  0  0  0  0  0  0  0  0  0  0
   21.4231   21.7718   22.1302 H   0  0  0  0  0  0  0  0  0  0  0  0
   21.4494   20.8917   20.6168 H   0  0  0  0  0  0  0  0  0  0  0  0
   18.2361   17.0502   22.2259 O   0  0  0  0  0  0  0  0  0  0  0  0
   17.4486   17.3190   21.7086 H   0  0  0  0  0  0  0  0  0  0  0  0
  1  2  1  0  0  0  0
  1  3  1  0  0  0  0
  1  4  1  0  0  0  0
  4  5  1  0  0  0  0
  4  6  1  0  0  0  0
  4  7  1  0  0  0  0
  7  8  1  0  0  0  0
  7  9  1  0  0  0  0
  7 10  1  0  0  0  0
 10 11  1  0  0  0  0
 10 12  1  0  0  0  0
 10 13  1  0  0  0  0
 13 14  1  0  0  0  0
 13 15  1  0  0  0  0
 15 16  1  0  0  0  0
 15 17  1  0  0  0  0
 15 18  1  0  0  0  0
 18 19  1  0  0  0  0
 18 20  1  0  0  0  0
  1 21  1  0  0  0  0
 18 21  1  0  0  0  0
 21 22  1  0  0  0  0
 21 23  1  0  0  0  0
 13 24  1  0  0  0  0
 24 25  1  0  0  0  0
M  END
> <VConfSearch Rank>
672

> <Conf_Id>
24

> <Delta U+W>
-1.236

> <U+W>
9.678

> <U>
11.876

> <W>
-2.199

> <W(PB)>
-4.335

> <W(SA)>
2.137

> <Valence>
17.153

> <Coulomb>
-7.966

> <VdW>
2.689

> <VdW6>
-12.458

> <VdW12>
15.147

> <Bond>
0.421

> <Angle>
5.258

> <Pdih>
11.475

> <Idih>
0.000

> <Tether>
0.000

$$$$
VeraChem MOL file


 25 25  0  0  0  0  0  0  0  0999 V2000     
   19.1268   20.7750   21.7492 C   0  0  0  0  0  0  0  0  0  0  0  0
   18.1537   20.6148   21.2653 H   0  0  0  0  0  0  0  0  0  0  0  0
   19.3618   21.8375   21.5991 H   0  0  0  0  0  0  0  0  0  0  0  0
   18.9752   20.5304   23.2741 C   0  0  0  0  0  0  0  0  0  0  0  0
   19.8088   20.9860   23.8234 H   0  0  0  0  0  0  0  0  0  0  0  0
   18.0873   21.0891   23.6007 H   0  0  0  0  0  0  0  0  0  0  0  0
   18.7966   19.0554   23.7115 C   0  0  0  0  0  0  0  0  0  0  0  0
   18.2218   18.4934   22.9630 H   0  0  0  0  0  0  0  0  0  0  0  0
   18.1692   19.0642   24.6135 H   0  0  0  0  0  0  0  0  0  0  0  0
   20.1112   18.3131   24.0838 C   0  0  0  0  0  0  0  0  0  0  0  0
   20.8126   18.9901   24.5880 H   0  0  0  0  0  0  0  0  0  0  0  0
   19.8420   17.5564   24.8334 H   0  0  0  0  0  0  0  0  0  0  0  0
   20.8078   17.5864   22.9075 C   0  0  0  0  0  0  0  0  0  0  0  0
   20.0429   17.2941   22.1760 H   0  0  0  0  0  0  0  0  0  0  0  0
   21.9185   18.3958   22.1913 C   0  0  0  0  0  0  0  0  0  0  0  0
   22.7990   18.4626   22.8438 H   0  0  0  0  0  0  0  0  0  0  0  0
   22.2367   17.8184   21.3132 H   0  0  0  0  0  0  0  0  0  0  0  0
   21.5515   19.8276   21.7265 C   0  0  0  0  0  0  0  0  0  0  0  0
   22.3383   20.1763   21.0439 H   0  0  0  0  0  0  0  0  0  0  0  0
   21.5960   20.5157   22.5787 H   0  0  0  0  0  0  0  0  0  0  0  0
   20.1851   19.9267   21.0023 C   0  0  0  0  0  0  0  0  0  0  0  0
   19.7770   18.9316   20.7909 H   0  0  0  0  0  0  0  0  0  0  0  0
   20.3440   20.3776   20.0132 H   0  0  0  0  0  0  0  0  0  0  0  0
   21.4083   16.3988   23.4083 O   0  0  0  0  0  0  0  0  0  0  0  0
   22.0707   16.6818   24.0718 H   0  0  0  0  0  0  0  0  0  0  0  0
  1  2  1  0  0  0  0
  1  3  1  0  0  0  0
  1  4  1  0  0  0  0
  4  5  1  0  0  0  0
  4  6  1  0  0  0  0
  4  7  1  0  0  0  0
  7  8  1  0  0  0  0
  7  9  1  0  0  0  0
  7 10  1  0  0  0  0
 10 11  1  0  0  0  0
 10 12  1  0  0  0  0
 10 13  1  0  0  0  0
 13 14  1  0  0  0  0
 13 15  1  0  0  0  0
 15 16  1  0  0  0  0
 15 17  1  0  0  0  0
 15 18  1  0  0  0  0
 18 19  1  0  0  0  0
 18 20  1  0  0  0  0
  1 21  1  0  0  0  0
 18 21  1  0  0  0  0
 21 22  1  0  0  0  0
 21 23  1  0  0  0  0
 13 24  1  0  0  0  0
 24 25  1  0  0  0  0
M  END
> <VConfSearch Rank>
673

> <Conf_Id>
167

> <Delta U+W>
0.388

> <U+W>
11.301

> <U>
13.202

> <W>
-1.901

> <W(PB)>
-4.065

> <W(SA)>
2.163

> <Valence>
18.957

> <Coulomb>
-8.753

> <VdW>
2.998

> <VdW6>
-12.294

> <VdW12>
15.292

> <Bond>
0.419

> <Angle>
4.543

> <Pdih>
13.996

> <Idih>
0.000

> <Tether>
0.000

$$$$
VeraChem MOL file


 25 25  0  0  0  0  0  0  0  0999 V2000     
   21.7959   17.8414   22.3449 C   0  0  0  0  0  0  0  0  0  0  0  0
   22.7878   18.1362   21.9765 H   0  0  0  0  0  0  0  0  0  0  0  0
   21.8492   16.7553   22.5012 H   0  0  0  0  0  0  0  0  0  0  0  0
   20.7480   18.1069   21.2329 C   0  0  0  0  0  0  0  0  0  0  0  0
   20.9518   19.0584   20.7289 H   0  0  0  0  0  0  0  0  0  0  0  0
   20.9049   17.3474   20.4548 H   0  0  0  0  0  0  0  0  0  0  0  0
   19.2656   18.0360   21.6828 C   0  0  0  0  0  0  0  0  0  0  0  0
   19.1515   17.3943   22.5660 H   0  0  0  0  0  0  0  0  0  0  0  0
   18.7027   17.5302   20.8864 H   0  0  0  0  0  0  0  0  0  0  0  0
   18.5870   19.4141   21.9118 C   0  0  0  0  0  0  0  0  0  0  0  0
   18.6785   20.0217   21.0020 H   0  0  0  0  0  0  0  0  0  0  0  0
   17.5113   19.2351   22.0411 H   0  0  0  0  0  0  0  0  0  0  0  0
   19.0745   20.2407   23.1277 C   0  0  0  0  0  0  0  0  0  0  0  0
   19.0130   19.6201   24.0318 H   0  0  0  0  0  0  0  0  0  0  0  0
   20.5109   20.8048   22.9748 C   0  0  0  0  0  0  0  0  0  0  0  0
   20.7835   20.8586   21.9161 H   0  0  0  0  0  0  0  0  0  0  0  0
   20.5324   21.8490   23.3144 H   0  0  0  0  0  0  0  0  0  0  0  0
   21.6022   20.0431   23.7708 C   0  0  0  0  0  0  0  0  0  0  0  0
   21.5268   20.3478   24.8236 H   0  0  0  0  0  0  0  0  0  0  0  0
   22.5911   20.3814   23.4331 H   0  0  0  0  0  0  0  0  0  0  0  0
   21.5490   18.4951   23.7278 C   0  0  0  0  0  0  0  0  0  0  0  0
   20.6103   18.1296   24.1595 H   0  0  0  0  0  0  0  0  0  0  0  0
   22.3282   18.1237   24.4072 H   0  0  0  0  0  0  0  0  0  0  0  0
   18.1800   21.3363   23.2808 O   0  0  0  0  0  0  0  0  0  0  0  0
   18.4556   21.8126   24.0918 H   0  0  0  0  0  0  0  0  0  0  0  0
  1  2  1  0  0  0  0
  1  3  1  0  0  0  0
  1  4  1  0  0  0  0
  4  5  1  0  0  0  0
  4  6  1  0  0  0  0
  4  7  1  0  0  0  0
  7  8  1  0  0  0  0
  7  9  1  0  0  0  0
  7 10  1  0  0  0  0
 10 11  1  0  0  0  0
 10 12  1  0  0  0  0
 10 13  1  0  0  0  0
 13 14  1  0  0  0  0
 13 15  1  0  0  0  0
 15 16  1  0  0  0  0
 15 17  1  0  0  0  0
 15 18  1  0  0  0  0
 18 19  1  0  0  0  0
 18 20  1  0  0  0  0
  1 21  1  0  0  0  0
 18 21  1  0  0  0  0
 21 22  1  0  0  0  0
 21 23  1  0  0  0  0
 13 24  1  0  0  0  0
 24 25  1  0  0  0  0
M  END
> <VConfSearch Rank>
674

> <Conf_Id>
60

> <Delta U+W>
-1.838

> <U+W>
9.075

> <U>
11.150

> <W>
-2.074

> <W(PB)>
-4.196

> <W(SA)>
2.121

> <Valence>
16.582

> <Coulomb>
-8.361

> <VdW>
2.928

> <VdW6>
-12.539

> <VdW12>
15.467

> <Bond>
0.441

> <Angle>
5.093

> <Pdih>
11.049

> <Idih>
0.000

> <Tether>
0.000

$$$$
VeraChem MOL file


 25 25  0  0  0  0  0  0  0  0999 V2000     
   19.9967   17.4819   23.7683 C   0  0  0  0  0  0  0  0  0  0  0  0
   19.4021   16.6470   23.3735 H   0  0  0  0  0  0  0  0  0  0  0  0
   20.2858   17.1841   24.7855 H   0  0  0  0  0  0  0  0  0  0  0  0
   19.0964   18.7367   23.8931 C   0  0  0  0  0  0  0  0  0  0  0  0
   18.2865   18.4881   24.5923 H   0  0  0  0  0  0  0  0  0  0  0  0
   19.6431   19.5503   24.3834 H   0  0  0  0  0  0  0  0  0  0  0  0
   18.4353   19.2360   22.5837 C   0  0  0  0  0  0  0  0  0  0  0  0
   17.7450   20.0481   22.8500 H   0  0  0  0  0  0  0  0  0  0  0  0
   17.8078   18.4367   22.1667 H   0  0  0  0  0  0  0  0  0  0  0  0
   19.3839   19.7612   21.4750 C   0  0  0  0  0  0  0  0  0  0  0  0
   19.8001   18.9238   20.9058 H   0  0  0  0  0  0  0  0  0  0  0  0
   18.7636   20.3023   20.7481 H   0  0  0  0  0  0  0  0  0  0  0  0
   20.5241   20.6869   21.9725 C   0  0  0  0  0  0  0  0  0  0  0  0
   20.2699   21.0913   22.9615 H   0  0  0  0  0  0  0  0  0  0  0  0
   21.9100   19.9991   22.0474 C   0  0  0  0  0  0  0  0  0  0  0  0
   22.1514   19.5656   21.0681 H   0  0  0  0  0  0  0  0  0  0  0  0
   22.6610   20.7819   22.2178 H   0  0  0  0  0  0  0  0  0  0  0  0
   22.0998   18.9218   23.1500 C   0  0  0  0  0  0  0  0  0  0  0  0
   21.9033   19.3435   24.1442 H   0  0  0  0  0  0  0  0  0  0  0  0
   23.1656   18.6553   23.1572 H   0  0  0  0  0  0  0  0  0  0  0  0
   21.2942   17.6153   22.9293 C   0  0  0  0  0  0  0  0  0  0  0  0
   21.9394   16.7674   23.1974 H   0  0  0  0  0  0  0  0  0  0  0  0
   21.0824   17.4693   21.8641 H   0  0  0  0  0  0  0  0  0  0  0  0
   20.6408   21.7764   21.0651 O   0  0  0  0  0  0  0  0  0  0  0  0
   19.7804   22.2455   21.0775 H   0  0  0  0  0  0  0  0  0  0  0  0
  1  2  1  0  0  0  0
  1  3  1  0  0  0  0
  1  4  1  0  0  0  0
  4  5  1  0  0  0  0
  4  6  1  0  0  0  0
  4  7  1  0  0  0  0
  7  8  1  0  0  0  0
  7  9  1  0  0  0  0
  7 10  1  0  0  0  0
 10 11  1  0  0  0  0
 10 12  1  0  0  0  0
 10 13  1  0  0  0  0
 13 14  1  0  0  0  0
 13 15  1  0  0  0  0
 15 16  1  0  0  0  0
 15 17  1  0  0  0  0
 15 18  1  0  0  0  0
 18 19  1  0  0  0  0
 18 20  1  0  0  0  0
  1 21  1  0  0  0  0
 18 21  1  0  0  0  0
 21 22  1  0  0  0  0
 21 23  1  0  0  0  0
 13 24  1  0  0  0  0
 24 25  1  0  0  0  0
M  END
> <VConfSearch Rank>
675

> <Conf_Id>
129

> <Delta U+W>
-1.846

> <U+W>
9.067

> <U>
11.150

> <W>
-2.083

> <W(PB)>
-4.217

> <W(SA)>
2.134

> <Valence>
16.583

> <Coulomb>
-8.361

> <VdW>
2.928

> <VdW6>
-12.539

> <VdW12>
15.467

> <Bond>
0.441

> <Angle>
5.093

> <Pdih>
11.049

> <Idih>
0.000

> <Tether>
0.000

$$$$
VeraChem MOL file


 25 25  0  0  0  0  0  0  0  0999 V2000     
   20.6572   20.1580   20.8555 C   0  0  0  0  0  0  0  0  0  0  0  0
   20.1747   19.8262   19.9262 H   0  0  0  0  0  0  0  0  0  0  0  0
   21.2934   21.0075   20.5717 H   0  0  0  0  0  0  0  0  0  0  0  0
   21.5900   19.0360   21.3764 C   0  0  0  0  0  0  0  0  0  0  0  0
   22.3485   18.8574   20.6021 H   0  0  0  0  0  0  0  0  0  0  0  0
   22.1599   19.3861   22.2446 H   0  0  0  0  0  0  0  0  0  0  0  0
   20.9160   17.6747   21.6814 C   0  0  0  0  0  0  0  0  0  0  0  0
   21.7129   16.9588   21.9251 H   0  0  0  0  0  0  0  0  0  0  0  0
   20.4410   17.2920   20.7680 H   0  0  0  0  0  0  0  0  0  0  0  0
   19.8822   17.6450   22.8371 C   0  0  0  0  0  0  0  0  0  0  0  0
   18.9094   18.0009   22.4828 H   0  0  0  0  0  0  0  0  0  0  0  0
   19.7156   16.5891   23.0898 H   0  0  0  0  0  0  0  0  0  0  0  0
   20.3037   18.4159   24.1148 C   0  0  0  0  0  0  0  0  0  0  0  0
   21.3934   18.5512   24.1228 H   0  0  0  0  0  0  0  0  0  0  0  0
   19.6167   19.7946   24.2825 C   0  0  0  0  0  0  0  0  0  0  0  0
   18.5270   19.6670   24.2445 H   0  0  0  0  0  0  0  0  0  0  0  0
   19.8392   20.1571   25.2951 H   0  0  0  0  0  0  0  0  0  0  0  0
   20.0340   20.9115   23.2878 C   0  0  0  0  0  0  0  0  0  0  0  0
   21.1158   21.0912   23.3353 H   0  0  0  0  0  0  0  0  0  0  0  0
   19.5730   21.8441   23.6410 H   0  0  0  0  0  0  0  0  0  0  0  0
   19.5692   20.6866   21.8256 C   0  0  0  0  0  0  0  0  0  0  0  0
   19.2213   21.6491   21.4261 H   0  0  0  0  0  0  0  0  0  0  0  0
   18.6820   20.0439   21.7981 H   0  0  0  0  0  0  0  0  0  0  0  0
   19.9514   17.6285   25.2453 O   0  0  0  0  0  0  0  0  0  0  0  0
   18.9779   17.5258   25.2183 H   0  0  0  0  0  0  0  0  0  0  0  0
  1  2  1  0  0  0  0
  1  3  1  0  0  0  0
  1  4  1  0  0  0  0
  4  5  1  0  0  0  0
  4  6  1  0  0  0  0
  4  7  1  0  0  0  0
  7  8  1  0  0  0  0
  7  9  1  0  0  0  0
  7 10  1  0  0  0  0
 10 11  1  0  0  0  0
 10 12  1  0  0  0  0
 10 13  1  0  0  0  0
 13 14  1  0  0  0  0
 13 15  1  0  0  0  0
 15 16  1  0  0  0  0
 15 17  1  0  0  0  0
 15 18  1  0  0  0  0
 18 19  1  0  0  0  0
 18 20  1  0  0  0  0
  1 21  1  0  0  0  0
 18 21  1  0  0  0  0
 21 22  1  0  0  0  0
 21 23  1  0  0  0  0
 13 24  1  0  0  0  0
 24 25  1  0  0  0  0
M  END
> <VConfSearch Rank>
676

> <Conf_Id>
140

> <Delta U+W>
-1.702

> <U+W>
9.211

> <U>
11.181

> <W>
-1.969

> <W(PB)>
-4.093

> <W(SA)>
2.124

> <Valence>
16.954

> <Coulomb>
-8.661

> <VdW>
2.887

> <VdW6>
-12.561

> <VdW12>
15.448

> <Bond>
0.433

> <Angle>
5.120

> <Pdih>
11.401

> <Idih>
0.000

> <Tether>
0.000

$$$$
VeraChem MOL file


 25 25  0  0  0  0  0  0  0  0999 V2000     
   21.8386   18.1470   23.5213 C   0  0  0  0  0  0  0  0  0  0  0  0
   21.6918   17.1334   23.9181 H   0  0  0  0  0  0  0  0  0  0  0  0
   22.8918   18.3916   23.7161 H   0  0  0  0  0  0  0  0  0  0  0  0
   20.9658   19.1366   24.3359 C   0  0  0  0  0  0  0  0  0  0  0  0
   19.9813   18.7025   24.5436 H   0  0  0  0  0  0  0  0  0  0  0  0
   21.4329   19.2393   25.3250 H   0  0  0  0  0  0  0  0  0  0  0  0
   20.8184   20.5534   23.7231 C   0  0  0  0  0  0  0  0  0  0  0  0
   21.6689   20.7928   23.0719 H   0  0  0  0  0  0  0  0  0  0  0  0
   20.8764   21.2773   24.5475 H   0  0  0  0  0  0  0  0  0  0  0  0
   19.4738   20.8087   22.9897 C   0  0  0  0  0  0  0  0  0  0  0  0
   18.6434   20.6028   23.6777 H   0  0  0  0  0  0  0  0  0  0  0  0
   19.4189   21.8832   22.7695 H   0  0  0  0  0  0  0  0  0  0  0  0
   19.2452   20.0440   21.6616 C   0  0  0  0  0  0  0  0  0  0  0  0
   20.0924   20.2280   20.9876 H   0  0  0  0  0  0  0  0  0  0  0  0
   19.0358   18.5172   21.8332 C   0  0  0  0  0  0  0  0  0  0  0  0
   18.6948   18.2928   22.8490 H   0  0  0  0  0  0  0  0  0  0  0  0
   18.2112   18.1899   21.1855 H   0  0  0  0  0  0  0  0  0  0  0  0
   20.2650   17.6417   21.4758 C   0  0  0  0  0  0  0  0  0  0  0  0
   20.3218   17.5732   20.3807 H   0  0  0  0  0  0  0  0  0  0  0  0
   20.0881   16.6170   21.8294 H   0  0  0  0  0  0  0  0  0  0  0  0
   21.6455   18.1276   21.9843 C   0  0  0  0  0  0  0  0  0  0  0  0
   21.8900   19.1067   21.5567 H   0  0  0  0  0  0  0  0  0  0  0  0
   22.4027   17.4485   21.5694 H   0  0  0  0  0  0  0  0  0  0  0  0
   18.0783   20.5874   21.0573 O   0  0  0  0  0  0  0  0  0  0  0  0
   17.3400   20.4150   21.6771 H   0  0  0  0  0  0  0  0  0  0  0  0
  1  2  1  0  0  0  0
  1  3  1  0  0  0  0
  1  4  1  0  0  0  0
  4  5  1  0  0  0  0
  4  6  1  0  0  0  0
  4  7  1  0  0  0  0
  7  8  1  0  0  0  0
  7  9  1  0  0  0  0
  7 10  1  0  0  0  0
 10 11  1  0  0  0  0
 10 12  1  0  0  0  0
 10 13  1  0  0  0  0
 13 14  1  0  0  0  0
 13 15  1  0  0  0  0
 15 16  1  0  0  0  0
 15 17  1  0  0  0  0
 15 18  1  0  0  0  0
 18 19  1  0  0  0  0
 18 20  1  0  0  0  0
  1 21  1  0  0  0  0
 18 21  1  0  0  0  0
 21 22  1  0  0  0  0
 21 23  1  0  0  0  0
 13 24  1  0  0  0  0
 24 25  1  0  0  0  0
M  END
> <VConfSearch Rank>
677

> <Conf_Id>
68

> <Delta U+W>
-1.765

> <U+W>
9.148

> <U>
11.181

> <W>
-2.032

> <W(PB)>
-4.147

> <W(SA)>
2.114

> <Valence>
16.955

> <Coulomb>
-8.661

> <VdW>
2.887

> <VdW6>
-12.561

> <VdW12>
15.448

> <Bond>
0.433

> <Angle>
5.121

> <Pdih>
11.402

> <Idih>
0.000

> <Tether>
0.000

$$$$
VeraChem MOL file


 25 25  0  0  0  0  0  0  0  0999 V2000     
   20.3701   17.3698   23.0472 C   0  0  0  0  0  0  0  0  0  0  0  0
   20.5431   16.2964   23.2053 H   0  0  0  0  0  0  0  0  0  0  0  0
   19.3412   17.5317   23.3877 H   0  0  0  0  0  0  0  0  0  0  0  0
   20.4938   17.6583   21.5284 C   0  0  0  0  0  0  0  0  0  0  0  0
   21.5061   17.9953   21.2708 H   0  0  0  0  0  0  0  0  0  0  0  0
   20.3676   16.7035   20.9997 H   0  0  0  0  0  0  0  0  0  0  0  0
   19.4283   18.6332   20.9620 C   0  0  0  0  0  0  0  0  0  0  0  0
   18.4247   18.2494   21.1913 H   0  0  0  0  0  0  0  0  0  0  0  0
   19.5074   18.6140   19.8664 H   0  0  0  0  0  0  0  0  0  0  0  0
   19.5271   20.1138   21.4164 C   0  0  0  0  0  0  0  0  0  0  0  0
   20.5134   20.5241   21.1684 H   0  0  0  0  0  0  0  0  0  0  0  0
   18.8158   20.6814   20.8011 H   0  0  0  0  0  0  0  0  0  0  0  0
   19.1876   20.3517   22.9108 C   0  0  0  0  0  0  0  0  0  0  0  0
   18.6095   19.4993   23.2859 H   0  0  0  0  0  0  0  0  0  0  0  0
   20.4156   20.5752   23.8274 C   0  0  0  0  0  0  0  0  0  0  0  0
   20.7782   21.6011   23.6800 H   0  0  0  0  0  0  0  0  0  0  0  0
   20.0825   20.5214   24.8720 H   0  0  0  0  0  0  0  0  0  0  0  0
   21.6254   19.6248   23.6347 C   0  0  0  0  0  0  0  0  0  0  0  0
   22.4237   19.9719   24.3048 H   0  0  0  0  0  0  0  0  0  0  0  0
   22.0429   19.7350   22.6273 H   0  0  0  0  0  0  0  0  0  0  0  0
   21.3740   18.1296   23.9526 C   0  0  0  0  0  0  0  0  0  0  0  0
   21.0567   18.0289   24.9994 H   0  0  0  0  0  0  0  0  0  0  0  0
   22.3415   17.6133   23.8857 H   0  0  0  0  0  0  0  0  0  0  0  0
   18.3643   21.5071   23.0099 O   0  0  0  0  0  0  0  0  0  0  0  0
   18.8899   22.2531   22.6546 H   0  0  0  0  0  0  0  0  0  0  0  0
  1  2  1  0  0  0  0
  1  3  1  0  0  0  0
  1  4  1  0  0  0  0
  4  5  1  0  0  0  0
  4  6  1  0  0  0  0
  4  7  1  0  0  0  0
  7  8  1  0  0  0  0
  7  9  1  0  0  0  0
  7 10  1  0  0  0  0
 10 11  1  0  0  0  0
 10 12  1  0  0  0  0
 10 13  1  0  0  0  0
 13 14  1  0  0  0  0
 13 15  1  0  0  0  0
 15 16  1  0  0  0  0
 15 17  1  0  0  0  0
 15 18  1  0  0  0  0
 18 19  1  0  0  0  0
 18 20  1  0  0  0  0
  1 21  1  0  0  0  0
 18 21  1  0  0  0  0
 21 22  1  0  0  0  0
 21 23  1  0  0  0  0
 13 24  1  0  0  0  0
 24 25  1  0  0  0  0
M  END
> <VConfSearch Rank>
678

> <Conf_Id>
165

> <Delta U+W>
-1.999

> <U+W>
8.915

> <U>
10.935

> <W>
-2.020

> <W(PB)>
-4.135

> <W(SA)>
2.115

> <Valence>
16.757

> <Coulomb>
-8.731

> <VdW>
2.908

> <VdW6>
-12.597

> <VdW12>
15.506

> <Bond>
0.434

> <Angle>
5.069

> <Pdih>
11.254

> <Idih>
0.000

> <Tether>
0.000

$$$$
VeraChem MOL file


 25 25  0  0  0  0  0  0  0  0999 V2000     
   20.1049   20.8561   21.9466 C   0  0  0  0  0  0  0  0  0  0  0  0
   19.9059   21.8674   21.5663 H   0  0  0  0  0  0  0  0  0  0  0  0
   21.1203   20.6316   21.6012 H   0  0  0  0  0  0  0  0  0  0  0  0
   19.0750   19.9089   21.2777 C   0  0  0  0  0  0  0  0  0  0  0  0
   18.1030   20.4210   21.2746 H   0  0  0  0  0  0  0  0  0  0  0  0
   19.3440   19.7788   20.2207 H   0  0  0  0  0  0  0  0  0  0  0  0
   18.8620   18.5188   21.9277 C   0  0  0  0  0  0  0  0  0  0  0  0
   18.0394   18.0283   21.3896 H   0  0  0  0  0  0  0  0  0  0  0  0
   18.4929   18.6305   22.9536 H   0  0  0  0  0  0  0  0  0  0  0  0
   20.0767   17.5559   21.8906 C   0  0  0  0  0  0  0  0  0  0  0  0
   19.7405   16.5873   22.2849 H   0  0  0  0  0  0  0  0  0  0  0  0
   20.3551   17.3765   20.8442 H   0  0  0  0  0  0  0  0  0  0  0  0
   21.3421   17.9838   22.6738 C   0  0  0  0  0  0  0  0  0  0  0  0
   21.8873   18.7389   22.0954 H   0  0  0  0  0  0  0  0  0  0  0  0
   21.0654   18.5407   24.0942 C   0  0  0  0  0  0  0  0  0  0  0  0
   20.0993   18.1853   24.4715 H   0  0  0  0  0  0  0  0  0  0  0  0
   21.8123   18.1221   24.7823 H   0  0  0  0  0  0  0  0  0  0  0  0
   21.1597   20.0855   24.2110 C   0  0  0  0  0  0  0  0  0  0  0  0
   22.1458   20.4165   23.8575 H   0  0  0  0  0  0  0  0  0  0  0  0
   21.1283   20.3423   25.2786 H   0  0  0  0  0  0  0  0  0  0  0  0
   20.0545   20.9066   23.4960 C   0  0  0  0  0  0  0  0  0  0  0  0
   20.1892   21.9547   23.7966 H   0  0  0  0  0  0  0  0  0  0  0  0
   19.0604   20.6285   23.8687 H   0  0  0  0  0  0  0  0  0  0  0  0
   22.1774   16.8377   22.7925 O   0  0  0  0  0  0  0  0  0  0  0  0
   22.3720   16.5346   21.8811 H   0  0  0  0  0  0  0  0  0  0  0  0
  1  2  1  0  0  0  0
  1  3  1  0  0  0  0
  1  4  1  0  0  0  0
  4  5  1  0  0  0  0
  4  6  1  0  0  0  0
  4  7  1  0  0  0  0
  7  8  1  0  0  0  0
  7  9  1  0  0  0  0
  7 10  1  0  0  0  0
 10 11  1  0  0  0  0
 10 12  1  0  0  0  0
 10 13  1  0  0  0  0
 13 14  1  0  0  0  0
 13 15  1  0  0  0  0
 15 16  1  0  0  0  0
 15 17  1  0  0  0  0
 15 18  1  0  0  0  0
 18 19  1  0  0  0  0
 18 20  1  0  0  0  0
  1 21  1  0  0  0  0
 18 21  1  0  0  0  0
 21 22  1  0  0  0  0
 21 23  1  0  0  0  0
 13 24  1  0  0  0  0
 24 25  1  0  0  0  0
M  END
> <VConfSearch Rank>
679

> <Conf_Id>
133

> <Delta U+W>
-2.139

> <U+W>
8.774

> <U>
10.905

> <W>
-2.131

> <W(PB)>
-4.281

> <W(SA)>
2.150

> <Valence>
16.378

> <Coulomb>
-8.448

> <VdW>
2.976

> <VdW6>
-12.570

> <VdW12>
15.545

> <Bond>
0.439

> <Angle>
5.049

> <Pdih>
10.889

> <Idih>
0.000

> <Tether>
0.000

$$$$
VeraChem MOL file


 25 25  0  0  0  0  0  0  0  0999 V2000     
   20.3246   21.0442   22.3520 C   0  0  0  0  0  0  0  0  0  0  0  0
   20.4141   22.1123   22.1108 H   0  0  0  0  0  0  0  0  0  0  0  0
   19.6090   21.0127   23.1813 H   0  0  0  0  0  0  0  0  0  0  0  0
   21.7161   20.5372   22.8129 C   0  0  0  0  0  0  0  0  0  0  0  0
   22.2712   20.0913   21.9776 H   0  0  0  0  0  0  0  0  0  0  0  0
   22.3053   21.4154   23.1108 H   0  0  0  0  0  0  0  0  0  0  0  0
   21.6891   19.5765   24.0307 C   0  0  0  0  0  0  0  0  0  0  0  0
   21.1722   20.0645   24.8684 H   0  0  0  0  0  0  0  0  0  0  0  0
   22.7252   19.4344   24.3668 H   0  0  0  0  0  0  0  0  0  0  0  0
   21.0722   18.1717   23.7963 C   0  0  0  0  0  0  0  0  0  0  0  0
   21.5947   17.6535   22.9835 H   0  0  0  0  0  0  0  0  0  0  0  0
   21.2815   17.5767   24.6955 H   0  0  0  0  0  0  0  0  0  0  0  0
   19.5404   18.1726   23.5555 C   0  0  0  0  0  0  0  0  0  0  0  0
   19.1213   19.1124   23.9336 H   0  0  0  0  0  0  0  0  0  0  0  0
   19.1193   17.9836   22.0774 C   0  0  0  0  0  0  0  0  0  0  0  0
   19.2332   16.9215   21.8215 H   0  0  0  0  0  0  0  0  0  0  0  0
   18.0479   18.2037   21.9865 H   0  0  0  0  0  0  0  0  0  0  0  0
   19.8912   18.8030   21.0113 C   0  0  0  0  0  0  0  0  0  0  0  0
   19.5170   18.4925   20.0262 H   0  0  0  0  0  0  0  0  0  0  0  0
   20.9506   18.5223   21.0053 H   0  0  0  0  0  0  0  0  0  0  0  0
   19.7427   20.3428   21.0971 C   0  0  0  0  0  0  0  0  0  0  0  0
   18.6825   20.6122   20.9974 H   0  0  0  0  0  0  0  0  0  0  0  0
   20.2404   20.7691   20.2153 H   0  0  0  0  0  0  0  0  0  0  0  0
   18.9650   17.1063   24.3021 O   0  0  0  0  0  0  0  0  0  0  0  0
   17.9956   17.1586   24.1676 H   0  0  0  0  0  0  0  0  0  0  0  0
  1  2  1  0  0  0  0
  1  3  1  0  0  0  0
  1  4  1  0  0  0  0
  4  5  1  0  0  0  0
  4  6  1  0  0  0  0
  4  7  1  0  0  0  0
  7  8  1  0  0  0  0
  7  9  1  0  0  0  0
  7 10  1  0  0  0  0
 10 11  1  0  0  0  0
 10 12  1  0  0  0  0
 10 13  1  0  0  0  0
 13 14  1  0  0  0  0
 13 15  1  0  0  0  0
 15 16  1  0  0  0  0
 15 17  1  0  0  0  0
 15 18  1  0  0  0  0
 18 19  1  0  0  0  0
 18 20  1  0  0  0  0
  1 21  1  0  0  0  0
 18 21  1  0  0  0  0
 21 22  1  0  0  0  0
 21 23  1  0  0  0  0
 13 24  1  0  0  0  0
 24 25  1  0  0  0  0
M  END
> <VConfSearch Rank>
680

> <Conf_Id>
95

> <Delta U+W>
-2.190

> <U+W>
8.723

> <U>
10.905

> <W>
-2.182

> <W(PB)>
-4.296

> <W(SA)>
2.114

> <Valence>
16.377

> <Coulomb>
-8.448

> <VdW>
2.976

> <VdW6>
-12.570

> <VdW12>
15.546

> <Bond>
0.439

> <Angle>
5.049

> <Pdih>
10.889

> <Idih>
0.000

> <Tether>
0.000

$$$$
VeraChem MOL file


 25 25  0  0  0  0  0  0  0  0999 V2000     
   20.3183   19.1629   20.8344 C   0  0  0  0  0  0  0  0  0  0  0  0
   20.3994   19.0560   19.7441 H   0  0  0  0  0  0  0  0  0  0  0  0
   20.0418   20.2137   20.9666 H   0  0  0  0  0  0  0  0  0  0  0  0
   21.7304   18.8796   21.4259 C   0  0  0  0  0  0  0  0  0  0  0  0
   22.1965   18.1032   20.8039 H   0  0  0  0  0  0  0  0  0  0  0  0
   22.3569   19.7724   21.2962 H   0  0  0  0  0  0  0  0  0  0  0  0
   21.8258   18.3961   22.8969 C   0  0  0  0  0  0  0  0  0  0  0  0
   22.8750   18.1371   23.0943 H   0  0  0  0  0  0  0  0  0  0  0  0
   21.3030   17.4398   22.9976 H   0  0  0  0  0  0  0  0  0  0  0  0
   21.3815   19.3914   24.0097 C   0  0  0  0  0  0  0  0  0  0  0  0
   21.1530   18.8247   24.9219 H   0  0  0  0  0  0  0  0  0  0  0  0
   22.2550   20.0095   24.2552 H   0  0  0  0  0  0  0  0  0  0  0  0
   20.2073   20.3560   23.7053 C   0  0  0  0  0  0  0  0  0  0  0  0
   20.4722   20.9442   22.8206 H   0  0  0  0  0  0  0  0  0  0  0  0
   18.8037   19.7160   23.5032 C   0  0  0  0  0  0  0  0  0  0  0  0
   18.3397   19.6001   24.4920 H   0  0  0  0  0  0  0  0  0  0  0  0
   18.1725   20.4334   22.9635 H   0  0  0  0  0  0  0  0  0  0  0  0
   18.7134   18.3353   22.7985 C   0  0  0  0  0  0  0  0  0  0  0  0
   17.6666   18.0060   22.8472 H   0  0  0  0  0  0  0  0  0  0  0  0
   19.2444   17.5885   23.3971 H   0  0  0  0  0  0  0  0  0  0  0  0
   19.1480   18.2597   21.3056 C   0  0  0  0  0  0  0  0  0  0  0  0
   18.2738   18.5241   20.6951 H   0  0  0  0  0  0  0  0  0  0  0  0
   19.3746   17.2147   21.0542 H   0  0  0  0  0  0  0  0  0  0  0  0
   20.1059   21.2606   24.7989 O   0  0  0  0  0  0  0  0  0  0  0  0
   20.9745   21.7071   24.8782 H   0  0  0  0  0  0  0  0  0  0  0  0
  1  2  1  0  0  0  0
  1  3  1  0  0  0  0
  1  4  1  0  0  0  0
  4  5  1  0  0  0  0
  4  6  1  0  0  0  0
  4  7  1  0  0  0  0
  7  8  1  0  0  0  0
  7  9  1  0  0  0  0
  7 10  1  0  0  0  0
 10 11  1  0  0  0  0
 10 12  1  0  0  0  0
 10 13  1  0  0  0  0
 13 14  1  0  0  0  0
 13 15  1  0  0  0  0
 15 16  1  0  0  0  0
 15 17  1  0  0  0  0
 15 18  1  0  0  0  0
 18 19  1  0  0  0  0
 18 20  1  0  0  0  0
  1 21  1  0  0  0  0
 18 21  1  0  0  0  0
 21 22  1  0  0  0  0
 21 23  1  0  0  0  0
 13 24  1  0  0  0  0
 24 25  1  0  0  0  0
M  END
> <VConfSearch Rank>
681

> <Conf_Id>
161

> <Delta U+W>
2.120

> <U+W>
13.033

> <U>
15.076

> <W>
-2.043

> <W(PB)>
-4.186

> <W(SA)>
2.143

> <Valence>
18.884

> <Coulomb>
-8.074

> <VdW>
4.266

> <VdW6>
-13.486

> <VdW12>
17.752

> <Bond>
0.713

> <Angle>
8.955

> <Pdih>
9.215

> <Idih>
0.000

> <Tether>
0.000

$$$$
VeraChem MOL file


 25 25  0  0  0  0  0  0  0  0999 V2000     
   22.0871   19.7759   23.2990 C   0  0  0  0  0  0  0  0  0  0  0  0
   23.0522   20.2724   23.4699 H   0  0  0  0  0  0  0  0  0  0  0  0
   22.1294   18.8652   23.9097 H   0  0  0  0  0  0  0  0  0  0  0  0
   22.0006   19.4022   21.7981 C   0  0  0  0  0  0  0  0  0  0  0  0
   21.6048   20.2405   21.2093 H   0  0  0  0  0  0  0  0  0  0  0  0
   23.0316   19.2611   21.4454 H   0  0  0  0  0  0  0  0  0  0  0  0
   21.2350   18.0859   21.4874 C   0  0  0  0  0  0  0  0  0  0  0  0
   21.4276   17.3246   22.2552 H   0  0  0  0  0  0  0  0  0  0  0  0
   21.6655   17.6797   20.5617 H   0  0  0  0  0  0  0  0  0  0  0  0
   19.7126   18.2472   21.2409 C   0  0  0  0  0  0  0  0  0  0  0  0
   19.5154   19.2054   20.7449 H   0  0  0  0  0  0  0  0  0  0  0  0
   19.4101   17.4839   20.5120 H   0  0  0  0  0  0  0  0  0  0  0  0
   18.7954   18.0636   22.4766 C   0  0  0  0  0  0  0  0  0  0  0  0
   18.8114   16.9997   22.7535 H   0  0  0  0  0  0  0  0  0  0  0  0
   19.1692   18.8761   23.7379 C   0  0  0  0  0  0  0  0  0  0  0  0
   18.3251   18.8309   24.4390 H   0  0  0  0  0  0  0  0  0  0  0  0
   19.9854   18.3661   24.2608 H   0  0  0  0  0  0  0  0  0  0  0  0
   19.5232   20.3645   23.4760 C   0  0  0  0  0  0  0  0  0  0  0  0
   18.8575   20.9973   24.0786 H   0  0  0  0  0  0  0  0  0  0  0  0
   19.3149   20.6456   22.4374 H   0  0  0  0  0  0  0  0  0  0  0  0
   20.9852   20.7347   23.8226 C   0  0  0  0  0  0  0  0  0  0  0  0
   21.0823   20.8032   24.9147 H   0  0  0  0  0  0  0  0  0  0  0  0
   21.1837   21.7456   23.4412 H   0  0  0  0  0  0  0  0  0  0  0  0
   17.4729   18.4177   22.0972 O   0  0  0  0  0  0  0  0  0  0  0  0
   17.4749   19.3911   21.9956 H   0  0  0  0  0  0  0  0  0  0  0  0
  1  2  1  0  0  0  0
  1  3  1  0  0  0  0
  1  4  1  0  0  0  0
  4  5  1  0  0  0  0
  4  6  1  0  0  0  0
  4  7  1  0  0  0  0
  7  8  1  0  0  0  0
  7  9  1  0  0  0  0
  7 10  1  0  0  0  0
 10 11  1  0  0  0  0
 10 12  1  0  0  0  0
 10 13  1  0  0  0  0
 13 14  1  0  0  0  0
 13 15  1  0  0  0  0
 15 16  1  0  0  0  0
 15 17  1  0  0  0  0
 15 18  1  0  0  0  0
 18 19  1  0  0  0  0
 18 20  1  0  0  0  0
  1 21  1  0  0  0  0
 18 21  1  0  0  0  0
 21 22  1  0  0  0  0
 21 23  1  0  0  0  0
 13 24  1  0  0  0  0
 24 25  1  0  0  0  0
M  END
> <VConfSearch Rank>
682

> <Conf_Id>
164

> <Delta U+W>
0.008

> <U+W>
10.922

> <U>
12.433

> <W>
-1.511

> <W(PB)>
-3.669

> <W(SA)>
2.157

> <Valence>
19.007

> <Coulomb>
-9.373

> <VdW>
2.799

> <VdW6>
-12.597

> <VdW12>
15.396

> <Bond>
0.425

> <Angle>
4.784

> <Pdih>
13.799

> <Idih>
0.000

> <Tether>
0.000

$$$$
VeraChem MOL file


 25 25  0  0  0  0  0  0  0  0999 V2000     
   20.3124   20.8868   21.9287 C   0  0  0  0  0  0  0  0  0  0  0  0
   20.4478   20.2149   21.0736 H   0  0  0  0  0  0  0  0  0  0  0  0
   20.3140   21.8944   21.4913 H   0  0  0  0  0  0  0  0  0  0  0  0
   21.5288   20.7982   22.8838 C   0  0  0  0  0  0  0  0  0  0  0  0
   22.4190   21.0908   22.3104 H   0  0  0  0  0  0  0  0  0  0  0  0
   21.4244   21.5527   23.6752 H   0  0  0  0  0  0  0  0  0  0  0  0
   21.8167   19.4218   23.5359 C   0  0  0  0  0  0  0  0  0  0  0  0
   21.1927   19.2791   24.4254 H   0  0  0  0  0  0  0  0  0  0  0  0
   22.8441   19.4556   23.9237 H   0  0  0  0  0  0  0  0  0  0  0  0
   21.6975   18.2004   22.5857 C   0  0  0  0  0  0  0  0  0  0  0  0
   21.8505   18.4988   21.5416 H   0  0  0  0  0  0  0  0  0  0  0  0
   22.5300   17.5232   22.8190 H   0  0  0  0  0  0  0  0  0  0  0  0
   20.3915   17.3808   22.7383 C   0  0  0  0  0  0  0  0  0  0  0  0
   20.2789   17.1101   23.7979 H   0  0  0  0  0  0  0  0  0  0  0  0
   19.0835   18.0695   22.2745 C   0  0  0  0  0  0  0  0  0  0  0  0
   19.1505   18.3636   21.2201 H   0  0  0  0  0  0  0  0  0  0  0  0
   18.2903   17.3108   22.3143 H   0  0  0  0  0  0  0  0  0  0  0  0
   18.6253   19.2620   23.1559 C   0  0  0  0  0  0  0  0  0  0  0  0
   19.0345   19.1710   24.1685 H   0  0  0  0  0  0  0  0  0  0  0  0
   17.5375   19.1899   23.2919 H   0  0  0  0  0  0  0  0  0  0  0  0
   18.9209   20.6676   22.5733 C   0  0  0  0  0  0  0  0  0  0  0  0
   18.7622   21.4194   23.3583 H   0  0  0  0  0  0  0  0  0  0  0  0
   18.1654   20.8778   21.8040 H   0  0  0  0  0  0  0  0  0  0  0  0
   20.5413   16.1870   21.9822 O   0  0  0  0  0  0  0  0  0  0  0  0
   20.6389   16.4625   21.0477 H   0  0  0  0  0  0  0  0  0  0  0  0
  1  2  1  0  0  0  0
  1  3  1  0  0  0  0
  1  4  1  0  0  0  0
  4  5  1  0  0  0  0
  4  6  1  0  0  0  0
  4  7  1  0  0  0  0
  7  8  1  0  0  0  0
  7  9  1  0  0  0  0
  7 10  1  0  0  0  0
 10 11  1  0  0  0  0
 10 12  1  0  0  0  0
 10 13  1  0  0  0  0
 13 14  1  0  0  0  0
 13 15  1  0  0  0  0
 15 16  1  0  0  0  0
 15 17  1  0  0  0  0
 15 18  1  0  0  0  0
 18 19  1  0  0  0  0
 18 20  1  0  0  0  0
  1 21  1  0  0  0  0
 18 21  1  0  0  0  0
 21 22  1  0  0  0  0
 21 23  1  0  0  0  0
 13 24  1  0  0  0  0
 24 25  1  0  0  0  0
M  END
> <VConfSearch Rank>
683

> <Conf_Id>
15

> <Delta U+W>
-1.271

> <U+W>
9.643

> <U>
11.413

> <W>
-1.770

> <W(PB)>
-3.908

> <W(SA)>
2.138

> <Valence>
17.496

> <Coulomb>
-8.736

> <VdW>
2.653

> <VdW6>
-12.485

> <VdW12>
15.138

> <Bond>
0.414

> <Angle>
5.295

> <Pdih>
11.787

> <Idih>
0.000

> <Tether>
0.000

$$$$
VeraChem MOL file


 25 25  0  0  0  0  0  0  0  0999 V2000     
   18.4341   19.3602   22.4643 C   0  0  0  0  0  0  0  0  0  0  0  0
   17.3692   19.3242   22.1966 H   0  0  0  0  0  0  0  0  0  0  0  0
   18.5559   20.3101   22.9999 H   0  0  0  0  0  0  0  0  0  0  0  0
   18.7043   18.1604   23.4100 C   0  0  0  0  0  0  0  0  0  0  0  0
   18.1583   18.3354   24.3471 H   0  0  0  0  0  0  0  0  0  0  0  0
   18.2620   17.2555   22.9715 H   0  0  0  0  0  0  0  0  0  0  0  0
   20.1850   17.8621   23.7474 C   0  0  0  0  0  0  0  0  0  0  0  0
   20.6519   17.3300   22.9104 H   0  0  0  0  0  0  0  0  0  0  0  0
   20.2073   17.1475   24.5814 H   0  0  0  0  0  0  0  0  0  0  0  0
   21.0101   19.1146   24.1423 C   0  0  0  0  0  0  0  0  0  0  0  0
   20.3597   19.9869   24.2705 H   0  0  0  0  0  0  0  0  0  0  0  0
   21.4494   18.9423   25.1335 H   0  0  0  0  0  0  0  0  0  0  0  0
   22.1659   19.4528   23.1728 C   0  0  0  0  0  0  0  0  0  0  0  0
   22.9637   18.7141   23.3363 H   0  0  0  0  0  0  0  0  0  0  0  0
   21.8292   19.4331   21.6593 C   0  0  0  0  0  0  0  0  0  0  0  0
   22.6957   19.8553   21.1327 H   0  0  0  0  0  0  0  0  0  0  0  0
   21.7700   18.3981   21.3016 H   0  0  0  0  0  0  0  0  0  0  0  0
   20.5668   20.2158   21.2092 C   0  0  0  0  0  0  0  0  0  0  0  0
   20.7616   20.5697   20.1875 H   0  0  0  0  0  0  0  0  0  0  0  0
   20.4293   21.1253   21.8081 H   0  0  0  0  0  0  0  0  0  0  0  0
   19.2563   19.3832   21.1520 C   0  0  0  0  0  0  0  0  0  0  0  0
   19.4489   18.3629   20.7939 H   0  0  0  0  0  0  0  0  0  0  0  0
   18.6194   19.8448   20.3849 H   0  0  0  0  0  0  0  0  0  0  0  0
   22.6625   20.7413   23.5070 O   0  0  0  0  0  0  0  0  0  0  0  0
   21.9580   21.3727   23.2575 H   0  0  0  0  0  0  0  0  0  0  0  0
  1  2  1  0  0  0  0
  1  3  1  0  0  0  0
  1  4  1  0  0  0  0
  4  5  1  0  0  0  0
  4  6  1  0  0  0  0
  4  7  1  0  0  0  0
  7  8  1  0  0  0  0
  7  9  1  0  0  0  0
  7 10  1  0  0  0  0
 10 11  1  0  0  0  0
 10 12  1  0  0  0  0
 10 13  1  0  0  0  0
 13 14  1  0  0  0  0
 13 15  1  0  0  0  0
 15 16  1  0  0  0  0
 15 17  1  0  0  0  0
 15 18  1  0  0  0  0
 18 19  1  0  0  0  0
 18 20  1  0  0  0  0
  1 21  1  0  0  0  0
 18 21  1  0  0  0  0
 21 22  1  0  0  0  0
 21 23  1  0  0  0  0
 13 24  1  0  0  0  0
 24 25  1  0  0  0  0
M  END
> <VConfSearch Rank>
684

> <Conf_Id>
115

> <Delta U+W>
0.038

> <U+W>
10.952

> <U>
12.526

> <W>
-1.575

> <W(PB)>
-3.698

> <W(SA)>
2.123

> <Valence>
19.016

> <Coulomb>
-9.226

> <VdW>
2.737

> <VdW6>
-12.612

> <VdW12>
15.349

> <Bond>
0.421

> <Angle>
4.883

> <Pdih>
13.711

> <Idih>
0.000

> <Tether>
0.000

$$$$
VeraChem MOL file


 25 25  0  0  0  0  0  0  0  0999 V2000     
   19.5672   21.0228   23.5897 C   0  0  0  0  0  0  0  0  0  0  0  0
   19.5262   21.7764   24.3880 H   0  0  0  0  0  0  0  0  0  0  0  0
   18.9817   21.4413   22.7599 H   0  0  0  0  0  0  0  0  0  0  0  0
   18.8855   19.7436   24.1285 C   0  0  0  0  0  0  0  0  0  0  0  0
   19.4011   19.3940   25.0333 H   0  0  0  0  0  0  0  0  0  0  0  0
   17.8742   20.0229   24.4547 H   0  0  0  0  0  0  0  0  0  0  0  0
   18.7546   18.5889   23.1085 C   0  0  0  0  0  0  0  0  0  0  0  0
   18.4590   18.9799   22.1258 H   0  0  0  0  0  0  0  0  0  0  0  0
   17.9175   17.9562   23.4340 H   0  0  0  0  0  0  0  0  0  0  0  0
   20.0108   17.6827   23.0046 C   0  0  0  0  0  0  0  0  0  0  0  0
   20.7013   17.8613   23.8383 H   0  0  0  0  0  0  0  0  0  0  0  0
   19.6750   16.6433   23.1209 H   0  0  0  0  0  0  0  0  0  0  0  0
   20.7662   17.7894   21.6608 C   0  0  0  0  0  0  0  0  0  0  0  0
   20.0355   17.9343   20.8523 H   0  0  0  0  0  0  0  0  0  0  0  0
   21.8143   18.9227   21.5991 C   0  0  0  0  0  0  0  0  0  0  0  0
   22.5875   18.7596   22.3614 H   0  0  0  0  0  0  0  0  0  0  0  0
   22.3278   18.8464   20.6317 H   0  0  0  0  0  0  0  0  0  0  0  0
   21.2473   20.3587   21.7143 C   0  0  0  0  0  0  0  0  0  0  0  0
   20.3241   20.4538   21.1273 H   0  0  0  0  0  0  0  0  0  0  0  0
   21.9683   21.0341   21.2334 H   0  0  0  0  0  0  0  0  0  0  0  0
   21.0465   20.8558   23.1698 C   0  0  0  0  0  0  0  0  0  0  0  0
   21.5212   21.8436   23.2477 H   0  0  0  0  0  0  0  0  0  0  0  0
   21.5797   20.2203   23.8893 H   0  0  0  0  0  0  0  0  0  0  0  0
   21.4510   16.5619   21.4421 O   0  0  0  0  0  0  0  0  0  0  0  0
   21.8786   16.6288   20.5629 H   0  0  0  0  0  0  0  0  0  0  0  0
  1  2  1  0  0  0  0
  1  3  1  0  0  0  0
  1  4  1  0  0  0  0
  4  5  1  0  0  0  0
  4  6  1  0  0  0  0
  4  7  1  0  0  0  0
  7  8  1  0  0  0  0
  7  9  1  0  0  0  0
  7 10  1  0  0  0  0
 10 11  1  0  0  0  0
 10 12  1  0  0  0  0
 10 13  1  0  0  0  0
 13 14  1  0  0  0  0
 13 15  1  0  0  0  0
 15 16  1  0  0  0  0
 15 17  1  0  0  0  0
 15 18  1  0  0  0  0
 18 19  1  0  0  0  0
 18 20  1  0  0  0  0
  1 21  1  0  0  0  0
 18 21  1  0  0  0  0
 21 22  1  0  0  0  0
 21 23  1  0  0  0  0
 13 24  1  0  0  0  0
 24 25  1  0  0  0  0
M  END
> <VConfSearch Rank>
685

> <Conf_Id>
30

> <Delta U+W>
0.000

> <U+W>
10.913

> <U>
13.140

> <W>
-2.227

> <W(PB)>
-4.367

> <W(SA)>
2.140

> <Valence>
19.155

> <Coulomb>
-8.157

> <VdW>
2.142

> <VdW6>
-11.576

> <VdW12>
13.718

> <Bond>
0.294

> <Angle>
3.547

> <Pdih>
15.314

> <Idih>
0.000

> <Tether>
0.000

$$$$
VeraChem MOL file


 25 25  0  0  0  0  0  0  0  0999 V2000     
   21.2136   18.7580   20.7836 C   0  0  0  0  0  0  0  0  0  0  0  0
   20.9864   19.0294   19.7437 H   0  0  0  0  0  0  0  0  0  0  0  0
   22.0573   18.0565   20.7296 H   0  0  0  0  0  0  0  0  0  0  0  0
   19.9947   18.0058   21.3724 C   0  0  0  0  0  0  0  0  0  0  0  0
   19.6431   17.2887   20.6180 H   0  0  0  0  0  0  0  0  0  0  0  0
   20.3177   17.3842   22.2155 H   0  0  0  0  0  0  0  0  0  0  0  0
   18.8105   18.9208   21.7749 C   0  0  0  0  0  0  0  0  0  0  0  0
   17.9067   18.5782   21.2530 H   0  0  0  0  0  0  0  0  0  0  0  0
   18.9669   19.9460   21.4195 H   0  0  0  0  0  0  0  0  0  0  0  0
   18.5109   18.9349   23.2953 C   0  0  0  0  0  0  0  0  0  0  0  0
   17.7951   19.7421   23.5001 H   0  0  0  0  0  0  0  0  0  0  0  0
   17.9953   18.0016   23.5563 H   0  0  0  0  0  0  0  0  0  0  0  0
   19.7248   19.0828   24.2464 C   0  0  0  0  0  0  0  0  0  0  0  0
   20.3106   18.1541   24.2320 H   0  0  0  0  0  0  0  0  0  0  0  0
   20.6687   20.2682   23.9283 C   0  0  0  0  0  0  0  0  0  0  0  0
   20.1025   21.0993   23.4887 H   0  0  0  0  0  0  0  0  0  0  0  0
   21.0621   20.6555   24.8777 H   0  0  0  0  0  0  0  0  0  0  0  0
   21.8990   19.9086   23.0481 C   0  0  0  0  0  0  0  0  0  0  0  0
   22.2903   18.9134   23.2988 H   0  0  0  0  0  0  0  0  0  0  0  0
   22.6993   20.6122   23.3160 H   0  0  0  0  0  0  0  0  0  0  0  0
   21.6757   20.0428   21.5214 C   0  0  0  0  0  0  0  0  0  0  0  0
   22.6285   20.3469   21.0667 H   0  0  0  0  0  0  0  0  0  0  0  0
   20.9903   20.8745   21.3145 H   0  0  0  0  0  0  0  0  0  0  0  0
   19.2094   19.2592   25.5608 O   0  0  0  0  0  0  0  0  0  0  0  0
   19.9795   19.2717   26.1667 H   0  0  0  0  0  0  0  0  0  0  0  0
  1  2  1  0  0  0  0
  1  3  1  0  0  0  0
  1  4  1  0  0  0  0
  4  5  1  0  0  0  0
  4  6  1  0  0  0  0
  4  7  1  0  0  0  0
  7  8  1  0  0  0  0
  7  9  1  0  0  0  0
  7 10  1  0  0  0  0
 10 11  1  0  0  0  0
 10 12  1  0  0  0  0
 10 13  1  0  0  0  0
 13 14  1  0  0  0  0
 13 15  1  0  0  0  0
 15 16  1  0  0  0  0
 15 17  1  0  0  0  0
 15 18  1  0  0  0  0
 18 19  1  0  0  0  0
 18 20  1  0  0  0  0
  1 21  1  0  0  0  0
 18 21  1  0  0  0  0
 21 22  1  0  0  0  0
 21 23  1  0  0  0  0
 13 24  1  0  0  0  0
 24 25  1  0  0  0  0
M  END
> <VConfSearch Rank>
686

> <Conf_Id>
162

> <Delta U+W>
0.219

> <U+W>
11.132

> <U>
13.296

> <W>
-2.164

> <W(PB)>
-4.311

> <W(SA)>
2.148

> <Valence>
18.607

> <Coulomb>
-8.339

> <VdW>
3.028

> <VdW6>
-12.271

> <VdW12>
15.299

> <Bond>
0.423

> <Angle>
4.488

> <Pdih>
13.696

> <Idih>
0.000

> <Tether>
0.000

$$$$
VeraChem MOL file


 25 25  0  0  0  0  0  0  0  0999 V2000     
   22.1216   20.1205   22.3665 C   0  0  0  0  0  0  0  0  0  0  0  0
   22.5841   19.1314   22.4762 H   0  0  0  0  0  0  0  0  0  0  0  0
   22.9570   20.7959   22.1362 H   0  0  0  0  0  0  0  0  0  0  0  0
   21.1575   20.1218   21.1540 C   0  0  0  0  0  0  0  0  0  0  0  0
   20.4363   20.9466   21.2303 H   0  0  0  0  0  0  0  0  0  0  0  0
   21.7635   20.3470   20.2657 H   0  0  0  0  0  0  0  0  0  0  0  0
   20.4392   18.7715   20.8782 C   0  0  0  0  0  0  0  0  0  0  0  0
   21.1028   17.9202   21.0811 H   0  0  0  0  0  0  0  0  0  0  0  0
   20.2397   18.7331   19.7984 H   0  0  0  0  0  0  0  0  0  0  0  0
   19.0748   18.5900   21.5928 C   0  0  0  0  0  0  0  0  0  0  0  0
   18.5636   19.5571   21.6747 H   0  0  0  0  0  0  0  0  0  0  0  0
   18.4321   17.9851   20.9398 H   0  0  0  0  0  0  0  0  0  0  0  0
   19.1074   17.8731   22.9663 C   0  0  0  0  0  0  0  0  0  0  0  0
   19.3404   16.8135   22.7874 H   0  0  0  0  0  0  0  0  0  0  0  0
   20.1375   18.4037   23.9917 C   0  0  0  0  0  0  0  0  0  0  0  0
   19.9143   17.9623   24.9717 H   0  0  0  0  0  0  0  0  0  0  0  0
   21.1279   18.0122   23.7358 H   0  0  0  0  0  0  0  0  0  0  0  0
   20.1735   19.9480   24.1371 C   0  0  0  0  0  0  0  0  0  0  0  0
   19.9820   20.2084   25.1868 H   0  0  0  0  0  0  0  0  0  0  0  0
   19.3515   20.4129   23.5800 H   0  0  0  0  0  0  0  0  0  0  0  0
   21.5155   20.5932   23.7146 C   0  0  0  0  0  0  0  0  0  0  0  0
   22.2572   20.4126   24.5045 H   0  0  0  0  0  0  0  0  0  0  0  0
   21.3766   21.6824   23.6789 H   0  0  0  0  0  0  0  0  0  0  0  0
   17.8081   17.9697   23.5378 O   0  0  0  0  0  0  0  0  0  0  0  0
   17.8470   17.5149   24.4043 H   0  0  0  0  0  0  0  0  0  0  0  0
  1  2  1  0  0  0  0
  1  3  1  0  0  0  0
  1  4  1  0  0  0  0
  4  5  1  0  0  0  0
  4  6  1  0  0  0  0
  4  7  1  0  0  0  0
  7  8  1  0  0  0  0
  7  9  1  0  0  0  0
  7 10  1  0  0  0  0
 10 11  1  0  0  0  0
 10 12  1  0  0  0  0
 10 13  1  0  0  0  0
 13 14  1  0  0  0  0
 13 15  1  0  0  0  0
 15 16  1  0  0  0  0
 15 17  1  0  0  0  0
 15 18  1  0  0  0  0
 18 19  1  0  0  0  0
 18 20  1  0  0  0  0
  1 21  1  0  0  0  0
 18 21  1  0  0  0  0
 21 22  1  0  0  0  0
 21 23  1  0  0  0  0
 13 24  1  0  0  0  0
 24 25  1  0  0  0  0
M  END
> <VConfSearch Rank>
687

> <Conf_Id>
155

> <Delta U+W>
0.339

> <U+W>
11.252

> <U>
13.420

> <W>
-2.167

> <W(PB)>
-4.325

> <W(SA)>
2.157

> <Valence>
18.609

> <Coulomb>
-8.052

> <VdW>
2.863

> <VdW6>
-12.524

> <VdW12>
15.387

> <Bond>
0.430

> <Angle>
4.724

> <Pdih>
13.455

> <Idih>
0.000

> <Tether>
0.000

$$$$
VeraChem MOL file


 25 25  0  0  0  0  0  0  0  0999 V2000     
   18.7092   18.9648   21.5503 C   0  0  0  0  0  0  0  0  0  0  0  0
   18.1188   18.0738   21.8033 H   0  0  0  0  0  0  0  0  0  0  0  0
   18.1647   19.4531   20.7306 H   0  0  0  0  0  0  0  0  0  0  0  0
   18.6922   19.9471   22.7509 C   0  0  0  0  0  0  0  0  0  0  0  0
   19.1797   20.8828   22.4595 H   0  0  0  0  0  0  0  0  0  0  0  0
   17.6484   20.2439   22.9220 H   0  0  0  0  0  0  0  0  0  0  0  0
   19.2497   19.4324   24.1102 C   0  0  0  0  0  0  0  0  0  0  0  0
   18.4276   18.9232   24.6313 H   0  0  0  0  0  0  0  0  0  0  0  0
   19.5064   20.2955   24.7394 H   0  0  0  0  0  0  0  0  0  0  0  0
   20.4499   18.4472   24.0843 C   0  0  0  0  0  0  0  0  0  0  0  0
   20.6046   18.0917   25.1114 H   0  0  0  0  0  0  0  0  0  0  0  0
   20.1582   17.5395   23.5488 H   0  0  0  0  0  0  0  0  0  0  0  0
   21.8151   18.9734   23.5517 C   0  0  0  0  0  0  0  0  0  0  0  0
   22.3988   18.1059   23.2118 H   0  0  0  0  0  0  0  0  0  0  0  0
   21.7877   20.0095   22.4001 C   0  0  0  0  0  0  0  0  0  0  0  0
   21.2646   20.9079   22.7403 H   0  0  0  0  0  0  0  0  0  0  0  0
   22.8181   20.3542   22.2419 H   0  0  0  0  0  0  0  0  0  0  0  0
   21.2473   19.5445   21.0144 C   0  0  0  0  0  0  0  0  0  0  0  0
   22.0880   19.0964   20.4672 H   0  0  0  0  0  0  0  0  0  0  0  0
   20.9572   20.4290   20.4315 H   0  0  0  0  0  0  0  0  0  0  0  0
   20.0888   18.5131   20.9875 C   0  0  0  0  0  0  0  0  0  0  0  0
   20.4182   17.5841   21.4631 H   0  0  0  0  0  0  0  0  0  0  0  0
   19.9293   18.2218   19.9403 H   0  0  0  0  0  0  0  0  0  0  0  0
   22.5022   19.5820   24.6397 O   0  0  0  0  0  0  0  0  0  0  0  0
   22.5641   18.9082   25.3478 H   0  0  0  0  0  0  0  0  0  0  0  0
  1  2  1  0  0  0  0
  1  3  1  0  0  0  0
  1  4  1  0  0  0  0
  4  5  1  0  0  0  0
  4  6  1  0  0  0  0
  4  7  1  0  0  0  0
  7  8  1  0  0  0  0
  7  9  1  0  0  0  0
  7 10  1  0  0  0  0
 10 11  1  0  0  0  0
 10 12  1  0  0  0  0
 10 13  1  0  0  0  0
 13 14  1  0  0  0  0
 13 15  1  0  0  0  0
 15 16  1  0  0  0  0
 15 17  1  0  0  0  0
 15 18  1  0  0  0  0
 18 19  1  0  0  0  0
 18 20  1  0  0  0  0
  1 21  1  0  0  0  0
 18 21  1  0  0  0  0
 21 22  1  0  0  0  0
 21 23  1  0  0  0  0
 13 24  1  0  0  0  0
 24 25  1  0  0  0  0
M  END
> <VConfSearch Rank>
688

> <Conf_Id>
146

> <Delta U+W>
2.553

> <U+W>
13.466

> <U>
15.643

> <W>
-2.176

> <W(PB)>
-4.307

> <W(SA)>
2.131

> <Valence>
18.916

> <Coulomb>
-7.506

> <VdW>
4.232

> <VdW6>
-13.632

> <VdW12>
17.864

> <Bond>
0.735

> <Angle>
9.140

> <Pdih>
9.042

> <Idih>
0.000

> <Tether>
0.000

$$$$
VeraChem MOL file


 25 25  0  0  0  0  0  0  0  0999 V2000     
   20.5905   20.1723   20.8258 C   0  0  0  0  0  0  0  0  0  0  0  0
   20.4343   21.2489   20.6737 H   0  0  0  0  0  0  0  0  0  0  0  0
   20.8928   19.7757   19.8469 H   0  0  0  0  0  0  0  0  0  0  0  0
   19.2414   19.5074   21.1975 C   0  0  0  0  0  0  0  0  0  0  0  0
   18.5539   19.6735   20.3569 H   0  0  0  0  0  0  0  0  0  0  0  0
   19.3547   18.4186   21.2496 H   0  0  0  0  0  0  0  0  0  0  0  0
   18.5451   20.0436   22.4734 C   0  0  0  0  0  0  0  0  0  0  0  0
   17.5586   19.5643   22.5379 H   0  0  0  0  0  0  0  0  0  0  0  0
   18.3473   21.1175   22.3552 H   0  0  0  0  0  0  0  0  0  0  0  0
   19.2742   19.8114   23.8226 C   0  0  0  0  0  0  0  0  0  0  0  0
   20.0445   20.5740   23.9748 H   0  0  0  0  0  0  0  0  0  0  0  0
   18.5429   19.9973   24.6208 H   0  0  0  0  0  0  0  0  0  0  0  0
   19.8784   18.3957   24.0092 C   0  0  0  0  0  0  0  0  0  0  0  0
   19.3910   17.6934   23.3196 H   0  0  0  0  0  0  0  0  0  0  0  0
   21.4137   18.3302   23.8080 C   0  0  0  0  0  0  0  0  0  0  0  0
   21.8960   19.0568   24.4752 H   0  0  0  0  0  0  0  0  0  0  0  0
   21.7579   17.3438   24.1455 H   0  0  0  0  0  0  0  0  0  0  0  0
   21.9414   18.5328   22.3616 C   0  0  0  0  0  0  0  0  0  0  0  0
   21.5039   17.7922   21.6798 H   0  0  0  0  0  0  0  0  0  0  0  0
   23.0164   18.3069   22.3782 H   0  0  0  0  0  0  0  0  0  0  0  0
   21.7766   19.9702   21.8040 C   0  0  0  0  0  0  0  0  0  0  0  0
   22.6931   20.2317   21.2574 H   0  0  0  0  0  0  0  0  0  0  0  0
   21.7307   20.6977   22.6222 H   0  0  0  0  0  0  0  0  0  0  0  0
   19.6076   17.9715   25.3404 O   0  0  0  0  0  0  0  0  0  0  0  0
   19.9444   17.0547   25.4196 H   0  0  0  0  0  0  0  0  0  0  0  0
  1  2  1  0  0  0  0
  1  3  1  0  0  0  0
  1  4  1  0  0  0  0
  4  5  1  0  0  0  0
  4  6  1  0  0  0  0
  4  7  1  0  0  0  0
  7  8  1  0  0  0  0
  7  9  1  0  0  0  0
  7 10  1  0  0  0  0
 10 11  1  0  0  0  0
 10 12  1  0  0  0  0
 10 13  1  0  0  0  0
 13 14  1  0  0  0  0
 13 15  1  0  0  0  0
 15 16  1  0  0  0  0
 15 17  1  0  0  0  0
 15 18  1  0  0  0  0
 18 19  1  0  0  0  0
 18 20  1  0  0  0  0
  1 21  1  0  0  0  0
 18 21  1  0  0  0  0
 21 22  1  0  0  0  0
 21 23  1  0  0  0  0
 13 24  1  0  0  0  0
 24 25  1  0  0  0  0
M  END
> <VConfSearch Rank>
689

> <Conf_Id>
62

> <Delta U+W>
-1.779

> <U+W>
9.134

> <U>
11.364

> <W>
-2.230

> <W(PB)>
-4.359

> <W(SA)>
2.129

> <Valence>
16.582

> <Coulomb>
-8.150

> <VdW>
2.933

> <VdW6>
-12.531

> <VdW12>
15.464

> <Bond>
0.439

> <Angle>
5.099

> <Pdih>
11.044

> <Idih>
0.000

> <Tether>
0.000

$$$$
VeraChem MOL file


 25 25  0  0  0  0  0  0  0  0999 V2000     
   19.3983   17.6103   22.8343 C   0  0  0  0  0  0  0  0  0  0  0  0
   19.8009   17.7850   23.8385 H   0  0  0  0  0  0  0  0  0  0  0  0
   18.8423   16.6667   22.9196 H   0  0  0  0  0  0  0  0  0  0  0  0
   20.5492   17.3764   21.8241 C   0  0  0  0  0  0  0  0  0  0  0  0
   21.1121   16.4967   22.1648 H   0  0  0  0  0  0  0  0  0  0  0  0
   20.1256   17.0987   20.8495 H   0  0  0  0  0  0  0  0  0  0  0  0
   21.5583   18.5355   21.6221 C   0  0  0  0  0  0  0  0  0  0  0  0
   21.1660   19.2669   20.9064 H   0  0  0  0  0  0  0  0  0  0  0  0
   22.4421   18.1122   21.1253 H   0  0  0  0  0  0  0  0  0  0  0  0
   22.0253   19.2424   22.9227 C   0  0  0  0  0  0  0  0  0  0  0  0
   21.9184   18.5812   23.7914 H   0  0  0  0  0  0  0  0  0  0  0  0
   23.1044   19.4200   22.8255 H   0  0  0  0  0  0  0  0  0  0  0  0
   21.3551   20.6124   23.1974 C   0  0  0  0  0  0  0  0  0  0  0  0
   21.4768   21.2410   22.3036 H   0  0  0  0  0  0  0  0  0  0  0  0
   19.8500   20.5817   23.5629 C   0  0  0  0  0  0  0  0  0  0  0  0
   19.6825   19.9605   24.4511 H   0  0  0  0  0  0  0  0  0  0  0  0
   19.5742   21.6001   23.8673 H   0  0  0  0  0  0  0  0  0  0  0  0
   18.9016   20.1716   22.4045 C   0  0  0  0  0  0  0  0  0  0  0  0
   19.3699   20.3741   21.4346 H   0  0  0  0  0  0  0  0  0  0  0  0
   18.0246   20.8327   22.4292 H   0  0  0  0  0  0  0  0  0  0  0  0
   18.3771   18.7141   22.4623 C   0  0  0  0  0  0  0  0  0  0  0  0
   17.9079   18.4656   21.5008 H   0  0  0  0  0  0  0  0  0  0  0  0
   17.5687   18.6778   23.2053 H   0  0  0  0  0  0  0  0  0  0  0  0
   22.0460   21.2210   24.2812 O   0  0  0  0  0  0  0  0  0  0  0  0
   22.9849   21.2972   24.0114 H   0  0  0  0  0  0  0  0  0  0  0  0
  1  2  1  0  0  0  0
  1  3  1  0  0  0  0
  1  4  1  0  0  0  0
  4  5  1  0  0  0  0
  4  6  1  0  0  0  0
  4  7  1  0  0  0  0
  7  8  1  0  0  0  0
  7  9  1  0  0  0  0
  7 10  1  0  0  0  0
 10 11  1  0  0  0  0
 10 12  1  0  0  0  0
 10 13  1  0  0  0  0
 13 14  1  0  0  0  0
 13 15  1  0  0  0  0
 15 16  1  0  0  0  0
 15 17  1  0  0  0  0
 15 18  1  0  0  0  0
 18 19  1  0  0  0  0
 18 20  1  0  0  0  0
  1 21  1  0  0  0  0
 18 21  1  0  0  0  0
 21 22  1  0  0  0  0
 21 23  1  0  0  0  0
 13 24  1  0  0  0  0
 24 25  1  0  0  0  0
M  END
> <VConfSearch Rank>
690

> <Conf_Id>
121

> <Delta U+W>
-1.283

> <U+W>
9.630

> <U>
11.876

> <W>
-2.246

> <W(PB)>
-4.376

> <W(SA)>
2.130

> <Valence>
17.153

> <Coulomb>
-7.966

> <VdW>
2.689

> <VdW6>
-12.458

> <VdW12>
15.147

> <Bond>
0.421

> <Angle>
5.258

> <Pdih>
11.475

> <Idih>
0.000

> <Tether>
0.000

$$$$
VeraChem MOL file


 25 25  0  0  0  0  0  0  0  0999 V2000     
   20.2996   17.4204   22.9963 C   0  0  0  0  0  0  0  0  0  0  0  0
   19.9604   17.8688   23.9371 H   0  0  0  0  0  0  0  0  0  0  0  0
   20.2581   16.3374   23.1754 H   0  0  0  0  0  0  0  0  0  0  0  0
   21.7808   17.7857   22.7271 C   0  0  0  0  0  0  0  0  0  0  0  0
   22.3730   17.3966   23.5666 H   0  0  0  0  0  0  0  0  0  0  0  0
   22.1328   17.2436   21.8391 H   0  0  0  0  0  0  0  0  0  0  0  0
   22.1196   19.2898   22.5658 C   0  0  0  0  0  0  0  0  0  0  0  0
   21.9230   19.6208   21.5397 H   0  0  0  0  0  0  0  0  0  0  0  0
   23.2071   19.3912   22.6834 H   0  0  0  0  0  0  0  0  0  0  0  0
   21.4317   20.2376   23.5846 C   0  0  0  0  0  0  0  0  0  0  0  0
   21.1600   19.7028   24.5027 H   0  0  0  0  0  0  0  0  0  0  0  0
   22.1772   20.9820   23.8946 H   0  0  0  0  0  0  0  0  0  0  0  0
   20.2149   21.0211   23.0320 C   0  0  0  0  0  0  0  0  0  0  0  0
   20.5296   21.5377   22.1139 H   0  0  0  0  0  0  0  0  0  0  0  0
   18.9478   20.1888   22.7109 C   0  0  0  0  0  0  0  0  0  0  0  0
   18.6056   19.6501   23.6031 H   0  0  0  0  0  0  0  0  0  0  0  0
   18.1429   20.8969   22.4742 H   0  0  0  0  0  0  0  0  0  0  0  0
   19.0857   19.2297   21.4983 C   0  0  0  0  0  0  0  0  0  0  0  0
   19.8713   19.5793   20.8189 H   0  0  0  0  0  0  0  0  0  0  0  0
   18.1628   19.2911   20.9054 H   0  0  0  0  0  0  0  0  0  0  0  0
   19.3002   17.7368   21.8558 C   0  0  0  0  0  0  0  0  0  0  0  0
   19.5995   17.1927   20.9498 H   0  0  0  0  0  0  0  0  0  0  0  0
   18.3269   17.3178   22.1458 H   0  0  0  0  0  0  0  0  0  0  0  0
   19.8563   21.9953   24.0040 O   0  0  0  0  0  0  0  0  0  0  0  0
   19.1314   22.5286   23.6164 H   0  0  0  0  0  0  0  0  0  0  0  0
  1  2  1  0  0  0  0
  1  3  1  0  0  0  0
  1  4  1  0  0  0  0
  4  5  1  0  0  0  0
  4  6  1  0  0  0  0
  4  7  1  0  0  0  0
  7  8  1  0  0  0  0
  7  9  1  0  0  0  0
  7 10  1  0  0  0  0
 10 11  1  0  0  0  0
 10 12  1  0  0  0  0
 10 13  1  0  0  0  0
 13 14  1  0  0  0  0
 13 15  1  0  0  0  0
 15 16  1  0  0  0  0
 15 17  1  0  0  0  0
 15 18  1  0  0  0  0
 18 19  1  0  0  0  0
 18 20  1  0  0  0  0
  1 21  1  0  0  0  0
 18 21  1  0  0  0  0
 21 22  1  0  0  0  0
 21 23  1  0  0  0  0
 13 24  1  0  0  0  0
 24 25  1  0  0  0  0
M  END
> <VConfSearch Rank>
691

> <Conf_Id>
24

> <Delta U+W>
-1.236

> <U+W>
9.678

> <U>
11.876

> <W>
-2.199

> <W(PB)>
-4.335

> <W(SA)>
2.137

> <Valence>
17.153

> <Coulomb>
-7.966

> <VdW>
2.689

> <VdW6>
-12.458

> <VdW12>
15.147

> <Bond>
0.421

> <Angle>
5.258

> <Pdih>
11.475

> <Idih>
0.000

> <Tether>
0.000

$$$$
VeraChem MOL file


 25 25  0  0  0  0  0  0  0  0999 V2000     
   19.7385   18.7632   24.6861 C   0  0  0  0  0  0  0  0  0  0  0  0
   20.0012   19.4262   25.5216 H   0  0  0  0  0  0  0  0  0  0  0  0
   19.2530   17.8894   25.1417 H   0  0  0  0  0  0  0  0  0  0  0  0
   18.6924   19.4768   23.7890 C   0  0  0  0  0  0  0  0  0  0  0  0
   18.1699   18.7513   23.1526 H   0  0  0  0  0  0  0  0  0  0  0  0
   17.9152   19.8724   24.4572 H   0  0  0  0  0  0  0  0  0  0  0  0
   19.2225   20.6503   22.9285 C   0  0  0  0  0  0  0  0  0  0  0  0
   20.0164   21.1944   23.4576 H   0  0  0  0  0  0  0  0  0  0  0  0
   18.3970   21.3680   22.8251 H   0  0  0  0  0  0  0  0  0  0  0  0
   19.6682   20.2653   21.4893 C   0  0  0  0  0  0  0  0  0  0  0  0
   19.0170   19.4854   21.0744 H   0  0  0  0  0  0  0  0  0  0  0  0
   19.5021   21.1520   20.8624 H   0  0  0  0  0  0  0  0  0  0  0  0
   21.1563   19.8609   21.3515 C   0  0  0  0  0  0  0  0  0  0  0  0
   21.7325   20.3812   22.1280 H   0  0  0  0  0  0  0  0  0  0  0  0
   21.4416   18.3399   21.4350 C   0  0  0  0  0  0  0  0  0  0  0  0
   21.0877   17.8520   20.5173 H   0  0  0  0  0  0  0  0  0  0  0  0
   22.5314   18.2063   21.4469 H   0  0  0  0  0  0  0  0  0  0  0  0
   20.8441   17.5816   22.6468 C   0  0  0  0  0  0  0  0  0  0  0  0
   21.3173   16.5914   22.6960 H   0  0  0  0  0  0  0  0  0  0  0  0
   19.7826   17.3753   22.4671 H   0  0  0  0  0  0  0  0  0  0  0  0
   21.0492   18.2985   24.0053 C   0  0  0  0  0  0  0  0  0  0  0  0
   21.7330   19.1492   23.9037 H   0  0  0  0  0  0  0  0  0  0  0  0
   21.5618   17.6105   24.6914 H   0  0  0  0  0  0  0  0  0  0  0  0
   21.6261   20.3089   20.0865 O   0  0  0  0  0  0  0  0  0  0  0  0
   21.0860   19.8487   19.4116 H   0  0  0  0  0  0  0  0  0  0  0  0
  1  2  1  0  0  0  0
  1  3  1  0  0  0  0
  1  4  1  0  0  0  0
  4  5  1  0  0  0  0
  4  6  1  0  0  0  0
  4  7  1  0  0  0  0
  7  8  1  0  0  0  0
  7  9  1  0  0  0  0
  7 10  1  0  0  0  0
 10 11  1  0  0  0  0
 10 12  1  0  0  0  0
 10 13  1  0  0  0  0
 13 14  1  0  0  0  0
 13 15  1  0  0  0  0
 15 16  1  0  0  0  0
 15 17  1  0  0  0  0
 15 18  1  0  0  0  0
 18 19  1  0  0  0  0
 18 20  1  0  0  0  0
  1 21  1  0  0  0  0
 18 21  1  0  0  0  0
 21 22  1  0  0  0  0
 21 23  1  0  0  0  0
 13 24  1  0  0  0  0
 24 25  1  0  0  0  0
M  END
> <VConfSearch Rank>
692

> <Conf_Id>
167

> <Delta U+W>
0.388

> <U+W>
11.301

> <U>
13.202

> <W>
-1.901

> <W(PB)>
-4.065

> <W(SA)>
2.163

> <Valence>
18.957

> <Coulomb>
-8.753

> <VdW>
2.998

> <VdW6>
-12.294

> <VdW12>
15.292

> <Bond>
0.419

> <Angle>
4.543

> <Pdih>
13.996

> <Idih>
0.000

> <Tether>
0.000

$$$$
VeraChem MOL file


 25 25  0  0  0  0  0  0  0  0999 V2000     
   20.1534   17.7629   21.2194 C   0  0  0  0  0  0  0  0  0  0  0  0
   21.0035   17.1116   20.9755 H   0  0  0  0  0  0  0  0  0  0  0  0
   19.3245   17.4170   20.5867 H   0  0  0  0  0  0  0  0  0  0  0  0
   20.4957   19.2151   20.7958 C   0  0  0  0  0  0  0  0  0  0  0  0
   21.5362   19.4546   21.0425 H   0  0  0  0  0  0  0  0  0  0  0  0
   20.4617   19.2466   19.6981 H   0  0  0  0  0  0  0  0  0  0  0  0
   19.5417   20.3106   21.3386 C   0  0  0  0  0  0  0  0  0  0  0  0
   18.5486   19.8967   21.5558 H   0  0  0  0  0  0  0  0  0  0  0  0
   19.3791   21.0368   20.5305 H   0  0  0  0  0  0  0  0  0  0  0  0
   20.0865   21.1041   22.5575 C   0  0  0  0  0  0  0  0  0  0  0  0
   21.0604   21.5419   22.3024 H   0  0  0  0  0  0  0  0  0  0  0  0
   19.4138   21.9558   22.7244 H   0  0  0  0  0  0  0  0  0  0  0  0
   20.2089   20.3338   23.8958 C   0  0  0  0  0  0  0  0  0  0  0  0
   19.2423   19.8693   24.1326 H   0  0  0  0  0  0  0  0  0  0  0  0
   21.3253   19.2575   23.9070 C   0  0  0  0  0  0  0  0  0  0  0  0
   22.0715   19.4811   23.1380 H   0  0  0  0  0  0  0  0  0  0  0  0
   21.8821   19.3172   24.8516 H   0  0  0  0  0  0  0  0  0  0  0  0
   20.8278   17.7960   23.7615 C   0  0  0  0  0  0  0  0  0  0  0  0
   20.4247   17.4782   24.7328 H   0  0  0  0  0  0  0  0  0  0  0  0
   21.6903   17.1435   23.5694 H   0  0  0  0  0  0  0  0  0  0  0  0
   19.7372   17.5298   22.6936 C   0  0  0  0  0  0  0  0  0  0  0  0
   18.8255   18.0923   22.9252 H   0  0  0  0  0  0  0  0  0  0  0  0
   19.4419   16.4757   22.7856 H   0  0  0  0  0  0  0  0  0  0  0  0
   20.5014   21.2890   24.9088 O   0  0  0  0  0  0  0  0  0  0  0  0
   20.5083   20.8027   25.7596 H   0  0  0  0  0  0  0  0  0  0  0  0
  1  2  1  0  0  0  0
  1  3  1  0  0  0  0
  1  4  1  0  0  0  0
  4  5  1  0  0  0  0
  4  6  1  0  0  0  0
  4  7  1  0  0  0  0
  7  8  1  0  0  0  0
  7  9  1  0  0  0  0
  7 10  1  0  0  0  0
 10 11  1  0  0  0  0
 10 12  1  0  0  0  0
 10 13  1  0  0  0  0
 13 14  1  0  0  0  0
 13 15  1  0  0  0  0
 15 16  1  0  0  0  0
 15 17  1  0  0  0  0
 15 18  1  0  0  0  0
 18 19  1  0  0  0  0
 18 20  1  0  0  0  0
  1 21  1  0  0  0  0
 18 21  1  0  0  0  0
 21 22  1  0  0  0  0
 21 23  1  0  0  0  0
 13 24  1  0  0  0  0
 24 25  1  0  0  0  0
M  END
> <VConfSearch Rank>
693

> <Conf_Id>
60

> <Delta U+W>
-1.838

> <U+W>
9.075

> <U>
11.150

> <W>
-2.074

> <W(PB)>
-4.196

> <W(SA)>
2.121

> <Valence>
16.582

> <Coulomb>
-8.361

> <VdW>
2.928

> <VdW6>
-12.539

> <VdW12>
15.467

> <Bond>
0.441

> <Angle>
5.093

> <Pdih>
11.049

> <Idih>
0.000

> <Tether>
0.000

$$$$
VeraChem MOL file


 25 25  0  0  0  0  0  0  0  0999 V2000     
   21.3547   20.2234   24.1121 C   0  0  0  0  0  0  0  0  0  0  0  0
   22.0818   19.7203   24.7637 H   0  0  0  0  0  0  0  0  0  0  0  0
   21.3305   21.2691   24.4479 H   0  0  0  0  0  0  0  0  0  0  0  0
   19.9467   19.6262   24.3603 C   0  0  0  0  0  0  0  0  0  0  0  0
   19.6967   19.8090   25.4143 H   0  0  0  0  0  0  0  0  0  0  0  0
   19.1911   20.1858   23.7973 H   0  0  0  0  0  0  0  0  0  0  0  0
   19.7964   18.1044   24.1102 C   0  0  0  0  0  0  0  0  0  0  0  0
   18.7889   17.8130   24.4373 H   0  0  0  0  0  0  0  0  0  0  0  0
   20.4909   17.5592   24.7636 H   0  0  0  0  0  0  0  0  0  0  0  0
   19.9853   17.6113   22.6521 C   0  0  0  0  0  0  0  0  0  0  0  0
   21.0507   17.5095   22.4225 H   0  0  0  0  0  0  0  0  0  0  0  0
   19.5979   16.5848   22.6051 H   0  0  0  0  0  0  0  0  0  0  0  0
   19.2873   18.4776   21.5718 C   0  0  0  0  0  0  0  0  0  0  0  0
   18.4999   19.0869   22.0354 H   0  0  0  0  0  0  0  0  0  0  0  0
   20.2483   19.4040   20.7860 C   0  0  0  0  0  0  0  0  0  0  0  0
   21.0547   18.8007   20.3489 H   0  0  0  0  0  0  0  0  0  0  0  0
   19.6911   19.8152   19.9338 H   0  0  0  0  0  0  0  0  0  0  0  0
   20.8618   20.6002   21.5638 C   0  0  0  0  0  0  0  0  0  0  0  0
   20.0728   21.2420   21.9765 H   0  0  0  0  0  0  0  0  0  0  0  0
   21.3849   21.2261   20.8280 H   0  0  0  0  0  0  0  0  0  0  0  0
   21.8898   20.2078   22.6565 C   0  0  0  0  0  0  0  0  0  0  0  0
   22.7236   20.9218   22.6125 H   0  0  0  0  0  0  0  0  0  0  0  0
   22.3482   19.2401   22.4236 H   0  0  0  0  0  0  0  0  0  0  0  0
   18.6750   17.6054   20.6291 O   0  0  0  0  0  0  0  0  0  0  0  0
   18.0195   17.0717   21.1250 H   0  0  0  0  0  0  0  0  0  0  0  0
  1  2  1  0  0  0  0
  1  3  1  0  0  0  0
  1  4  1  0  0  0  0
  4  5  1  0  0  0  0
  4  6  1  0  0  0  0
  4  7  1  0  0  0  0
  7  8  1  0  0  0  0
  7  9  1  0  0  0  0
  7 10  1  0  0  0  0
 10 11  1  0  0  0  0
 10 12  1  0  0  0  0
 10 13  1  0  0  0  0
 13 14  1  0  0  0  0
 13 15  1  0  0  0  0
 15 16  1  0  0  0  0
 15 17  1  0  0  0  0
 15 18  1  0  0  0  0
 18 19  1  0  0  0  0
 18 20  1  0  0  0  0
  1 21  1  0  0  0  0
 18 21  1  0  0  0  0
 21 22  1  0  0  0  0
 21 23  1  0  0  0  0
 13 24  1  0  0  0  0
 24 25  1  0  0  0  0
M  END
> <VConfSearch Rank>
694

> <Conf_Id>
129

> <Delta U+W>
-1.846

> <U+W>
9.067

> <U>
11.150

> <W>
-2.083

> <W(PB)>
-4.217

> <W(SA)>
2.134

> <Valence>
16.583

> <Coulomb>
-8.361

> <VdW>
2.928

> <VdW6>
-12.539

> <VdW12>
15.467

> <Bond>
0.441

> <Angle>
5.093

> <Pdih>
11.049

> <Idih>
0.000

> <Tether>
0.000

$$$$
VeraChem MOL file


 25 25  0  0  0  0  0  0  0  0999 V2000     
   21.6819   20.6369   22.1727 C   0  0  0  0  0  0  0  0  0  0  0  0
   22.7521   20.3897   22.1782 H   0  0  0  0  0  0  0  0  0  0  0  0
   21.6235   21.6928   21.8751 H   0  0  0  0  0  0  0  0  0  0  0  0
   21.1252   20.5316   23.6146 C   0  0  0  0  0  0  0  0  0  0  0  0
   21.6751   21.2569   24.2298 H   0  0  0  0  0  0  0  0  0  0  0  0
   20.0850   20.8752   23.6478 H   0  0  0  0  0  0  0  0  0  0  0  0
   21.2634   19.1494   24.3006 C   0  0  0  0  0  0  0  0  0  0  0  0
   20.9356   19.2637   25.3429 H   0  0  0  0  0  0  0  0  0  0  0  0
   22.3255   18.8738   24.3511 H   0  0  0  0  0  0  0  0  0  0  0  0
   20.4668   17.9728   23.6790 C   0  0  0  0  0  0  0  0  0  0  0  0
   21.0113   17.5577   22.8248 H   0  0  0  0  0  0  0  0  0  0  0  0
   20.4592   17.1641   24.4223 H   0  0  0  0  0  0  0  0  0  0  0  0
   19.0080   18.3090   23.2747 C   0  0  0  0  0  0  0  0  0  0  0  0
   18.6720   19.2053   23.8129 H   0  0  0  0  0  0  0  0  0  0  0  0
   18.8012   18.5191   21.7535 C   0  0  0  0  0  0  0  0  0  0  0  0
   19.1642   17.6371   21.2100 H   0  0  0  0  0  0  0  0  0  0  0  0
   17.7197   18.5602   21.5666 H   0  0  0  0  0  0  0  0  0  0  0  0
   19.4284   19.7956   21.1304 C   0  0  0  0  0  0  0  0  0  0  0  0
   19.0496   20.6981   21.6270 H   0  0  0  0  0  0  0  0  0  0  0  0
   19.0611   19.8617   20.0971 H   0  0  0  0  0  0  0  0  0  0  0  0
   20.9781   19.7976   21.0750 C   0  0  0  0  0  0  0  0  0  0  0  0
   21.2846   20.2135   20.1054 H   0  0  0  0  0  0  0  0  0  0  0  0
   21.3645   18.7722   21.0657 H   0  0  0  0  0  0  0  0  0  0  0  0
   18.1768   17.2242   23.6678 O   0  0  0  0  0  0  0  0  0  0  0  0
   18.4926   16.4404   23.1730 H   0  0  0  0  0  0  0  0  0  0  0  0
  1  2  1  0  0  0  0
  1  3  1  0  0  0  0
  1  4  1  0  0  0  0
  4  5  1  0  0  0  0
  4  6  1  0  0  0  0
  4  7  1  0  0  0  0
  7  8  1  0  0  0  0
  7  9  1  0  0  0  0
  7 10  1  0  0  0  0
 10 11  1  0  0  0  0
 10 12  1  0  0  0  0
 10 13  1  0  0  0  0
 13 14  1  0  0  0  0
 13 15  1  0  0  0  0
 15 16  1  0  0  0  0
 15 17  1  0  0  0  0
 15 18  1  0  0  0  0
 18 19  1  0  0  0  0
 18 20  1  0  0  0  0
  1 21  1  0  0  0  0
 18 21  1  0  0  0  0
 21 22  1  0  0  0  0
 21 23  1  0  0  0  0
 13 24  1  0  0  0  0
 24 25  1  0  0  0  0
M  END
> <VConfSearch Rank>
695

> <Conf_Id>
140

> <Delta U+W>
-1.702

> <U+W>
9.211

> <U>
11.181

> <W>
-1.969

> <W(PB)>
-4.093

> <W(SA)>
2.124

> <Valence>
16.954

> <Coulomb>
-8.661

> <VdW>
2.887

> <VdW6>
-12.561

> <VdW12>
15.448

> <Bond>
0.433

> <Angle>
5.120

> <Pdih>
11.401

> <Idih>
0.000

> <Tether>
0.000

$$$$
VeraChem MOL file


 25 25  0  0  0  0  0  0  0  0999 V2000     
   21.0191   20.7278   23.7913 C   0  0  0  0  0  0  0  0  0  0  0  0
   21.9639   21.2225   23.5282 H   0  0  0  0  0  0  0  0  0  0  0  0
   20.6660   21.2295   24.7026 H   0  0  0  0  0  0  0  0  0  0  0  0
   21.3100   19.2475   24.1499 C   0  0  0  0  0  0  0  0  0  0  0  0
   22.0474   18.8208   23.4607 H   0  0  0  0  0  0  0  0  0  0  0  0
   21.8153   19.2457   25.1255 H   0  0  0  0  0  0  0  0  0  0  0  0
   20.0638   18.3302   24.2510 C   0  0  0  0  0  0  0  0  0  0  0  0
   19.1639   18.9112   24.4904 H   0  0  0  0  0  0  0  0  0  0  0  0
   20.2127   17.6648   25.1124 H   0  0  0  0  0  0  0  0  0  0  0  0
   19.8215   17.4231   23.0143 C   0  0  0  0  0  0  0  0  0  0  0  0
   20.7215   16.8236   22.8252 H   0  0  0  0  0  0  0  0  0  0  0  0
   19.0358   16.7044   23.2834 H   0  0  0  0  0  0  0  0  0  0  0  0
   19.3861   18.1274   21.7046 C   0  0  0  0  0  0  0  0  0  0  0  0
   18.5038   18.7499   21.9044 H   0  0  0  0  0  0  0  0  0  0  0  0
   20.4945   18.9883   21.0451 C   0  0  0  0  0  0  0  0  0  0  0  0
   21.4828   18.6526   21.3757 H   0  0  0  0  0  0  0  0  0  0  0  0
   20.4912   18.8139   19.9606 H   0  0  0  0  0  0  0  0  0  0  0  0
   20.3507   20.5179   21.2565 C   0  0  0  0  0  0  0  0  0  0  0  0
   19.5742   20.8806   20.5691 H   0  0  0  0  0  0  0  0  0  0  0  0
   21.2806   21.0105   20.9417 H   0  0  0  0  0  0  0  0  0  0  0  0
   19.9736   20.9981   22.6804 C   0  0  0  0  0  0  0  0  0  0  0  0
   18.9947   20.6016   22.9734 H   0  0  0  0  0  0  0  0  0  0  0  0
   19.8267   22.0855   22.6291 H   0  0  0  0  0  0  0  0  0  0  0  0
   19.0066   17.1113   20.7850 O   0  0  0  0  0  0  0  0  0  0  0  0
   19.8063   16.5689   20.6265 H   0  0  0  0  0  0  0  0  0  0  0  0
  1  2  1  0  0  0  0
  1  3  1  0  0  0  0
  1  4  1  0  0  0  0
  4  5  1  0  0  0  0
  4  6  1  0  0  0  0
  4  7  1  0  0  0  0
  7  8  1  0  0  0  0
  7  9  1  0  0  0  0
  7 10  1  0  0  0  0
 10 11  1  0  0  0  0
 10 12  1  0  0  0  0
 10 13  1  0  0  0  0
 13 14  1  0  0  0  0
 13 15  1  0  0  0  0
 15 16  1  0  0  0  0
 15 17  1  0  0  0  0
 15 18  1  0  0  0  0
 18 19  1  0  0  0  0
 18 20  1  0  0  0  0
  1 21  1  0  0  0  0
 18 21  1  0  0  0  0
 21 22  1  0  0  0  0
 21 23  1  0  0  0  0
 13 24  1  0  0  0  0
 24 25  1  0  0  0  0
M  END
> <VConfSearch Rank>
696

> <Conf_Id>
68

> <Delta U+W>
-1.765

> <U+W>
9.148

> <U>
11.181

> <W>
-2.032

> <W(PB)>
-4.147

> <W(SA)>
2.114

> <Valence>
16.955

> <Coulomb>
-8.661

> <VdW>
2.887

> <VdW6>
-12.561

> <VdW12>
15.448

> <Bond>
0.433

> <Angle>
5.121

> <Pdih>
11.402

> <Idih>
0.000

> <Tether>
0.000

$$$$
VeraChem MOL file


 25 25  0  0  0  0  0  0  0  0999 V2000     
   21.4145   20.1968   23.7071 C   0  0  0  0  0  0  0  0  0  0  0  0
   22.1919   20.7162   24.2842 H   0  0  0  0  0  0  0  0  0  0  0  0
   20.4730   20.5369   24.1530 H   0  0  0  0  0  0  0  0  0  0  0  0
   21.5979   18.6712   23.9175 C   0  0  0  0  0  0  0  0  0  0  0  0
   22.1984   18.2299   23.1117 H   0  0  0  0  0  0  0  0  0  0  0  0
   22.1968   18.5333   24.8282 H   0  0  0  0  0  0  0  0  0  0  0  0
   20.2796   17.8786   24.1189 C   0  0  0  0  0  0  0  0  0  0  0  0
   19.7202   18.3098   24.9605 H   0  0  0  0  0  0  0  0  0  0  0  0
   20.5471   16.8608   24.4341 H   0  0  0  0  0  0  0  0  0  0  0  0
   19.3426   17.7605   22.8874 C   0  0  0  0  0  0  0  0  0  0  0  0
   19.8757   17.3039   22.0448 H   0  0  0  0  0  0  0  0  0  0  0  0
   18.5573   17.0409   23.1557 H   0  0  0  0  0  0  0  0  0  0  0  0
   18.6695   19.0912   22.4618 C   0  0  0  0  0  0  0  0  0  0  0  0
   18.7006   19.7926   23.3036 H   0  0  0  0  0  0  0  0  0  0  0  0
   19.2950   19.7651   21.2158 C   0  0  0  0  0  0  0  0  0  0  0  0
   18.9510   19.2302   20.3207 H   0  0  0  0  0  0  0  0  0  0  0  0
   18.8902   20.7821   21.1321 H   0  0  0  0  0  0  0  0  0  0  0  0
   20.8426   19.8317   21.1486 C   0  0  0  0  0  0  0  0  0  0  0  0
   21.1092   20.2663   20.1756 H   0  0  0  0  0  0  0  0  0  0  0  0
   21.2692   18.8224   21.1267 H   0  0  0  0  0  0  0  0  0  0  0  0
   21.5354   20.6853   22.2402 C   0  0  0  0  0  0  0  0  0  0  0  0
   21.1716   21.7199   22.1779 H   0  0  0  0  0  0  0  0  0  0  0  0
   22.6042   20.7318   21.9903 H   0  0  0  0  0  0  0  0  0  0  0  0
   17.3023   18.8331   22.1670 O   0  0  0  0  0  0  0  0  0  0  0  0
   17.2947   18.1926   21.4263 H   0  0  0  0  0  0  0  0  0  0  0  0
  1  2  1  0  0  0  0
  1  3  1  0  0  0  0
  1  4  1  0  0  0  0
  4  5  1  0  0  0  0
  4  6  1  0  0  0  0
  4  7  1  0  0  0  0
  7  8  1  0  0  0  0
  7  9  1  0  0  0  0
  7 10  1  0  0  0  0
 10 11  1  0  0  0  0
 10 12  1  0  0  0  0
 10 13  1  0  0  0  0
 13 14  1  0  0  0  0
 13 15  1  0  0  0  0
 15 16  1  0  0  0  0
 15 17  1  0  0  0  0
 15 18  1  0  0  0  0
 18 19  1  0  0  0  0
 18 20  1  0  0  0  0
  1 21  1  0  0  0  0
 18 21  1  0  0  0  0
 21 22  1  0  0  0  0
 21 23  1  0  0  0  0
 13 24  1  0  0  0  0
 24 25  1  0  0  0  0
M  END
> <VConfSearch Rank>
697

> <Conf_Id>
165

> <Delta U+W>
-1.999

> <U+W>
8.915

> <U>
10.935

> <W>
-2.020

> <W(PB)>
-4.135

> <W(SA)>
2.115

> <Valence>
16.757

> <Coulomb>
-8.731

> <VdW>
2.908

> <VdW6>
-12.597

> <VdW12>
15.506

> <Bond>
0.434

> <Angle>
5.069

> <Pdih>
11.254

> <Idih>
0.000

> <Tether>
0.000

$$$$
VeraChem MOL file


 25 25  0  0  0  0  0  0  0  0999 V2000     
   20.1144   20.7746   23.5412 C   0  0  0  0  0  0  0  0  0  0  0  0
   20.0764   21.7564   24.0328 H   0  0  0  0  0  0  0  0  0  0  0  0
   19.1351   20.3292   23.7495 H   0  0  0  0  0  0  0  0  0  0  0  0
   21.2439   19.9655   24.2304 C   0  0  0  0  0  0  0  0  0  0  0  0
   22.0927   20.6449   24.3885 H   0  0  0  0  0  0  0  0  0  0  0  0
   20.9100   19.6708   25.2345 H   0  0  0  0  0  0  0  0  0  0  0  0
   21.7828   18.7201   23.4829 C   0  0  0  0  0  0  0  0  0  0  0  0
   22.6326   18.3332   24.0616 H   0  0  0  0  0  0  0  0  0  0  0  0
   22.2152   19.0119   22.5190 H   0  0  0  0  0  0  0  0  0  0  0  0
   20.7814   17.5512   23.2960 C   0  0  0  0  0  0  0  0  0  0  0  0
   21.3349   16.7117   22.8540 H   0  0  0  0  0  0  0  0  0  0  0  0
   20.4489   17.2079   24.2840 H   0  0  0  0  0  0  0  0  0  0  0  0
   19.5338   17.8226   22.4198 C   0  0  0  0  0  0  0  0  0  0  0  0
   18.8011   18.3945   23.0011 H   0  0  0  0  0  0  0  0  0  0  0  0
   19.8251   18.5760   21.0963 C   0  0  0  0  0  0  0  0  0  0  0  0
   20.8724   18.4496   20.7975 H   0  0  0  0  0  0  0  0  0  0  0  0
   19.2405   18.1060   20.2938 H   0  0  0  0  0  0  0  0  0  0  0  0
   19.4420   20.0800   21.1124 C   0  0  0  0  0  0  0  0  0  0  0  0
   18.3821   20.1814   21.3831 H   0  0  0  0  0  0  0  0  0  0  0  0
   19.5201   20.4556   20.0831 H   0  0  0  0  0  0  0  0  0  0  0  0
   20.2954   21.0062   22.0184 C   0  0  0  0  0  0  0  0  0  0  0  0
   19.9866   22.0382   21.8024 H   0  0  0  0  0  0  0  0  0  0  0  0
   21.3546   20.9600   21.7344 H   0  0  0  0  0  0  0  0  0  0  0  0
   18.9529   16.5623   22.1040 O   0  0  0  0  0  0  0  0  0  0  0  0
   18.7387   16.1287   22.9564 H   0  0  0  0  0  0  0  0  0  0  0  0
  1  2  1  0  0  0  0
  1  3  1  0  0  0  0
  1  4  1  0  0  0  0
  4  5  1  0  0  0  0
  4  6  1  0  0  0  0
  4  7  1  0  0  0  0
  7  8  1  0  0  0  0
  7  9  1  0  0  0  0
  7 10  1  0  0  0  0
 10 11  1  0  0  0  0
 10 12  1  0  0  0  0
 10 13  1  0  0  0  0
 13 14  1  0  0  0  0
 13 15  1  0  0  0  0
 15 16  1  0  0  0  0
 15 17  1  0  0  0  0
 15 18  1  0  0  0  0
 18 19  1  0  0  0  0
 18 20  1  0  0  0  0
  1 21  1  0  0  0  0
 18 21  1  0  0  0  0
 21 22  1  0  0  0  0
 21 23  1  0  0  0  0
 13 24  1  0  0  0  0
 24 25  1  0  0  0  0
M  END
> <VConfSearch Rank>
698

> <Conf_Id>
133

> <Delta U+W>
-2.139

> <U+W>
8.774

> <U>
10.905

> <W>
-2.131

> <W(PB)>
-4.281

> <W(SA)>
2.150

> <Valence>
16.378

> <Coulomb>
-8.448

> <VdW>
2.976

> <VdW6>
-12.570

> <VdW12>
15.545

> <Bond>
0.439

> <Angle>
5.049

> <Pdih>
10.889

> <Idih>
0.000

> <Tether>
0.000

$$$$
VeraChem MOL file


 25 25  0  0  0  0  0  0  0  0999 V2000     
   18.6021   18.6073   22.3037 C   0  0  0  0  0  0  0  0  0  0  0  0
   17.5797   18.3042   22.0394 H   0  0  0  0  0  0  0  0  0  0  0  0
   18.9062   17.8912   23.0754 H   0  0  0  0  0  0  0  0  0  0  0  0
   18.5423   20.0437   22.8857 C   0  0  0  0  0  0  0  0  0  0  0  0
   18.7408   20.7937   22.1094 H   0  0  0  0  0  0  0  0  0  0  0  0
   17.5069   20.2284   23.2031 H   0  0  0  0  0  0  0  0  0  0  0  0
   19.4446   20.2826   24.1250 C   0  0  0  0  0  0  0  0  0  0  0  0
   19.1926   19.5517   24.9055 H   0  0  0  0  0  0  0  0  0  0  0  0
   19.1824   21.2634   24.5447 H   0  0  0  0  0  0  0  0  0  0  0  0
   20.9777   20.2671   23.8840 C   0  0  0  0  0  0  0  0  0  0  0  0
   21.2555   21.0127   23.1296 H   0  0  0  0  0  0  0  0  0  0  0  0
   21.4508   20.6114   24.8136 H   0  0  0  0  0  0  0  0  0  0  0  0
   21.5594   18.8754   23.5249 C   0  0  0  0  0  0  0  0  0  0  0  0
   20.8512   18.1010   23.8420 H   0  0  0  0  0  0  0  0  0  0  0  0
   21.8903   18.6817   22.0246 C   0  0  0  0  0  0  0  0  0  0  0  0
   22.8283   19.2111   21.8091 H   0  0  0  0  0  0  0  0  0  0  0  0
   22.0945   17.6184   21.8443 H   0  0  0  0  0  0  0  0  0  0  0  0
   20.8355   19.1701   20.9985 C   0  0  0  0  0  0  0  0  0  0  0  0
   21.2623   19.0249   19.9967 H   0  0  0  0  0  0  0  0  0  0  0  0
   20.6917   20.2533   21.0831 H   0  0  0  0  0  0  0  0  0  0  0  0
   19.4685   18.4415   21.0280 C   0  0  0  0  0  0  0  0  0  0  0  0
   19.6229   17.3706   20.8384 H   0  0  0  0  0  0  0  0  0  0  0  0
   18.8822   18.8113   20.1757 H   0  0  0  0  0  0  0  0  0  0  0  0
   22.7667   18.6881   24.2549 O   0  0  0  0  0  0  0  0  0  0  0  0
   23.0872   17.7863   24.0440 H   0  0  0  0  0  0  0  0  0  0  0  0
  1  2  1  0  0  0  0
  1  3  1  0  0  0  0
  1  4  1  0  0  0  0
  4  5  1  0  0  0  0
  4  6  1  0  0  0  0
  4  7  1  0  0  0  0
  7  8  1  0  0  0  0
  7  9  1  0  0  0  0
  7 10  1  0  0  0  0
 10 11  1  0  0  0  0
 10 12  1  0  0  0  0
 10 13  1  0  0  0  0
 13 14  1  0  0  0  0
 13 15  1  0  0  0  0
 15 16  1  0  0  0  0
 15 17  1  0  0  0  0
 15 18  1  0  0  0  0
 18 19  1  0  0  0  0
 18 20  1  0  0  0  0
  1 21  1  0  0  0  0
 18 21  1  0  0  0  0
 21 22  1  0  0  0  0
 21 23  1  0  0  0  0
 13 24  1  0  0  0  0
 24 25  1  0  0  0  0
M  END
> <VConfSearch Rank>
699

> <Conf_Id>
95

> <Delta U+W>
-2.190

> <U+W>
8.723

> <U>
10.905

> <W>
-2.182

> <W(PB)>
-4.296

> <W(SA)>
2.114

> <Valence>
16.377

> <Coulomb>
-8.448

> <VdW>
2.976

> <VdW6>
-12.570

> <VdW12>
15.546

> <Bond>
0.439

> <Angle>
5.049

> <Pdih>
10.889

> <Idih>
0.000

> <Tether>
0.000

$$$$
VeraChem MOL file


 25 25  0  0  0  0  0  0  0  0999 V2000     
   21.1230   19.4941   21.0656 C   0  0  0  0  0  0  0  0  0  0  0  0
   21.5138   19.7192   20.0638 H   0  0  0  0  0  0  0  0  0  0  0  0
   21.8985   18.8576   21.5035 H   0  0  0  0  0  0  0  0  0  0  0  0
   19.7969   18.7021   20.8695 C   0  0  0  0  0  0  0  0  0  0  0  0
   19.3072   19.1003   19.9703 H   0  0  0  0  0  0  0  0  0  0  0  0
   20.0378   17.6571   20.6320 H   0  0  0  0  0  0  0  0  0  0  0  0
   18.7453   18.7392   22.0093 C   0  0  0  0  0  0  0  0  0  0  0  0
   17.8422   18.2308   21.6451 H   0  0  0  0  0  0  0  0  0  0  0  0
   18.4139   19.7712   22.1619 H   0  0  0  0  0  0  0  0  0  0  0  0
   19.1315   18.0745   23.3641 C   0  0  0  0  0  0  0  0  0  0  0  0
   18.4873   18.4807   24.1550 H   0  0  0  0  0  0  0  0  0  0  0  0
   18.8706   17.0109   23.2858 H   0  0  0  0  0  0  0  0  0  0  0  0
   20.6092   18.1522   23.8247 C   0  0  0  0  0  0  0  0  0  0  0  0
   21.2317   17.7017   23.0448 H   0  0  0  0  0  0  0  0  0  0  0  0
   21.1626   19.5615   24.1827 C   0  0  0  0  0  0  0  0  0  0  0  0
   20.9139   19.7655   25.2329 H   0  0  0  0  0  0  0  0  0  0  0  0
   22.2585   19.5219   24.1415 H   0  0  0  0  0  0  0  0  0  0  0  0
   20.6711   20.7819   23.3581 C   0  0  0  0  0  0  0  0  0  0  0  0
   21.0847   21.6861   23.8251 H   0  0  0  0  0  0  0  0  0  0  0  0
   19.5908   20.8968   23.4912 H   0  0  0  0  0  0  0  0  0  0  0  0
   21.0516   20.8313   21.8493 C   0  0  0  0  0  0  0  0  0  0  0  0
   22.0430   21.2988   21.7756 H   0  0  0  0  0  0  0  0  0  0  0  0
   20.3663   21.5166   21.3325 H   0  0  0  0  0  0  0  0  0  0  0  0
   20.7354   17.3409   24.9867 O   0  0  0  0  0  0  0  0  0  0  0  0
   20.4462   16.4392   24.7350 H   0  0  0  0  0  0  0  0  0  0  0  0
  1  2  1  0  0  0  0
  1  3  1  0  0  0  0
  1  4  1  0  0  0  0
  4  5  1  0  0  0  0
  4  6  1  0  0  0  0
  4  7  1  0  0  0  0
  7  8  1  0  0  0  0
  7  9  1  0  0  0  0
  7 10  1  0  0  0  0
 10 11  1  0  0  0  0
 10 12  1  0  0  0  0
 10 13  1  0  0  0  0
 13 14  1  0  0  0  0
 13 15  1  0  0  0  0
 15 16  1  0  0  0  0
 15 17  1  0  0  0  0
 15 18  1  0  0  0  0
 18 19  1  0  0  0  0
 18 20  1  0  0  0  0
  1 21  1  0  0  0  0
 18 21  1  0  0  0  0
 21 22  1  0  0  0  0
 21 23  1  0  0  0  0
 13 24  1  0  0  0  0
 24 25  1  0  0  0  0
M  END
> <VConfSearch Rank>
700

> <Conf_Id>
161

> <Delta U+W>
2.120

> <U+W>
13.033

> <U>
15.076

> <W>
-2.043

> <W(PB)>
-4.186

> <W(SA)>
2.143

> <Valence>
18.884

> <Coulomb>
-8.074

> <VdW>
4.266

> <VdW6>
-13.486

> <VdW12>
17.752

> <Bond>
0.713

> <Angle>
8.955

> <Pdih>
9.215

> <Idih>
0.000

> <Tether>
0.000

$$$$
VeraChem MOL file


 25 25  0  0  0  0  0  0  0  0999 V2000     
   20.8799   18.0148   24.1112 C   0  0  0  0  0  0  0  0  0  0  0  0
   21.1623   17.1642   24.7466 H   0  0  0  0  0  0  0  0  0  0  0  0
   20.7511   18.8531   24.8075 H   0  0  0  0  0  0  0  0  0  0  0  0
   19.5281   17.6779   23.4339 C   0  0  0  0  0  0  0  0  0  0  0  0
   19.6867   17.1145   22.5046 H   0  0  0  0  0  0  0  0  0  0  0  0
   18.9992   16.9873   24.1052 H   0  0  0  0  0  0  0  0  0  0  0  0
   18.5841   18.8905   23.2020 C   0  0  0  0  0  0  0  0  0  0  0  0
   18.6434   19.6039   24.0350 H   0  0  0  0  0  0  0  0  0  0  0  0
   17.5568   18.5017   23.2256 H   0  0  0  0  0  0  0  0  0  0  0  0
   18.7584   19.6152   21.8423 C   0  0  0  0  0  0  0  0  0  0  0  0
   19.0297   18.8896   21.0659 H   0  0  0  0  0  0  0  0  0  0  0  0
   17.7746   19.9981   21.5401 H   0  0  0  0  0  0  0  0  0  0  0  0
   19.7246   20.8269   21.8307 C   0  0  0  0  0  0  0  0  0  0  0  0
   19.2517   21.6411   22.3983 H   0  0  0  0  0  0  0  0  0  0  0  0
   21.1278   20.5939   22.4369 C   0  0  0  0  0  0  0  0  0  0  0  0
   21.7682   21.4414   22.1580 H   0  0  0  0  0  0  0  0  0  0  0  0
   21.0581   20.6526   23.5285 H   0  0  0  0  0  0  0  0  0  0  0  0
   21.8204   19.2767   21.9959 C   0  0  0  0  0  0  0  0  0  0  0  0
   22.7890   19.5223   21.5397 H   0  0  0  0  0  0  0  0  0  0  0  0
   21.2541   18.7765   21.2020 H   0  0  0  0  0  0  0  0  0  0  0  0
   22.0706   18.2788   23.1519 C   0  0  0  0  0  0  0  0  0  0  0  0
   22.9187   18.6380   23.7506 H   0  0  0  0  0  0  0  0  0  0  0  0
   22.3950   17.3235   22.7174 H   0  0  0  0  0  0  0  0  0  0  0  0
   19.8881   21.2441   20.4825 O   0  0  0  0  0  0  0  0  0  0  0  0
   20.4321   20.5535   20.0524 H   0  0  0  0  0  0  0  0  0  0  0  0
  1  2  1  0  0  0  0
  1  3  1  0  0  0  0
  1  4  1  0  0  0  0
  4  5  1  0  0  0  0
  4  6  1  0  0  0  0
  4  7  1  0  0  0  0
  7  8  1  0  0  0  0
  7  9  1  0  0  0  0
  7 10  1  0  0  0  0
 10 11  1  0  0  0  0
 10 12  1  0  0  0  0
 10 13  1  0  0  0  0
 13 14  1  0  0  0  0
 13 15  1  0  0  0  0
 15 16  1  0  0  0  0
 15 17  1  0  0  0  0
 15 18  1  0  0  0  0
 18 19  1  0  0  0  0
 18 20  1  0  0  0  0
  1 21  1  0  0  0  0
 18 21  1  0  0  0  0
 21 22  1  0  0  0  0
 21 23  1  0  0  0  0
 13 24  1  0  0  0  0
 24 25  1  0  0  0  0
M  END
> <VConfSearch Rank>
701

> <Conf_Id>
164

> <Delta U+W>
0.008

> <U+W>
10.922

> <U>
12.433

> <W>
-1.511

> <W(PB)>
-3.669

> <W(SA)>
2.157

> <Valence>
19.007

> <Coulomb>
-9.373

> <VdW>
2.799

> <VdW6>
-12.597

> <VdW12>
15.396

> <Bond>
0.425

> <Angle>
4.784

> <Pdih>
13.799

> <Idih>
0.000

> <Tether>
0.000

$$$$
VeraChem MOL file


 25 25  0  0  0  0  0  0  0  0999 V2000     
   20.7633   20.9542   22.3774 C   0  0  0  0  0  0  0  0  0  0  0  0
   21.6186   20.3790   22.0054 H   0  0  0  0  0  0  0  0  0  0  0  0
   21.0451   22.0037   22.2166 H   0  0  0  0  0  0  0  0  0  0  0  0
   20.5983   20.7513   23.9043 C   0  0  0  0  0  0  0  0  0  0  0  0
   21.5240   21.0974   24.3839 H   0  0  0  0  0  0  0  0  0  0  0  0
   19.8058   21.4154   24.2750 H   0  0  0  0  0  0  0  0  0  0  0  0
   20.3188   19.3093   24.3996 C   0  0  0  0  0  0  0  0  0  0  0  0
   19.2510   19.0753   24.3207 H   0  0  0  0  0  0  0  0  0  0  0  0
   20.5247   19.2919   25.4786 H   0  0  0  0  0  0  0  0  0  0  0  0
   21.1703   18.2004   23.7257 C   0  0  0  0  0  0  0  0  0  0  0  0
   22.1088   18.6102   23.3331 H   0  0  0  0  0  0  0  0  0  0  0  0
   21.4685   17.4948   24.5127 H   0  0  0  0  0  0  0  0  0  0  0  0
   20.4305   17.3801   22.6394 C   0  0  0  0  0  0  0  0  0  0  0  0
   19.4977   16.9959   23.0763 H   0  0  0  0  0  0  0  0  0  0  0  0
   20.0778   18.1264   21.3282 C   0  0  0  0  0  0  0  0  0  0  0  0
   20.9803   18.5337   20.8567 H   0  0  0  0  0  0  0  0  0  0  0  0
   19.6965   17.3747   20.6241 H   0  0  0  0  0  0  0  0  0  0  0  0
   18.9849   19.2190   21.4725 C   0  0  0  0  0  0  0  0  0  0  0  0
   18.3490   19.0142   22.3412 H   0  0  0  0  0  0  0  0  0  0  0  0
   18.3068   19.1417   20.6115 H   0  0  0  0  0  0  0  0  0  0  0  0
   19.5083   20.6775   21.5124 C   0  0  0  0  0  0  0  0  0  0  0  0
   18.6931   21.3400   21.8333 H   0  0  0  0  0  0  0  0  0  0  0  0
   19.7462   20.9770   20.4826 H   0  0  0  0  0  0  0  0  0  0  0  0
   21.2559   16.2751   22.2973 O   0  0  0  0  0  0  0  0  0  0  0  0
   22.0745   16.6505   21.9129 H   0  0  0  0  0  0  0  0  0  0  0  0
  1  2  1  0  0  0  0
  1  3  1  0  0  0  0
  1  4  1  0  0  0  0
  4  5  1  0  0  0  0
  4  6  1  0  0  0  0
  4  7  1  0  0  0  0
  7  8  1  0  0  0  0
  7  9  1  0  0  0  0
  7 10  1  0  0  0  0
 10 11  1  0  0  0  0
 10 12  1  0  0  0  0
 10 13  1  0  0  0  0
 13 14  1  0  0  0  0
 13 15  1  0  0  0  0
 15 16  1  0  0  0  0
 15 17  1  0  0  0  0
 15 18  1  0  0  0  0
 18 19  1  0  0  0  0
 18 20  1  0  0  0  0
  1 21  1  0  0  0  0
 18 21  1  0  0  0  0
 21 22  1  0  0  0  0
 21 23  1  0  0  0  0
 13 24  1  0  0  0  0
 24 25  1  0  0  0  0
M  END
> <VConfSearch Rank>
702

> <Conf_Id>
15

> <Delta U+W>
-1.271

> <U+W>
9.643

> <U>
11.413

> <W>
-1.770

> <W(PB)>
-3.908

> <W(SA)>
2.138

> <Valence>
17.496

> <Coulomb>
-8.736

> <VdW>
2.653

> <VdW6>
-12.485

> <VdW12>
15.138

> <Bond>
0.414

> <Angle>
5.295

> <Pdih>
11.787

> <Idih>
0.000

> <Tether>
0.000

$$$$
VeraChem MOL file


 25 25  0  0  0  0  0  0  0  0999 V2000     
   20.9527   18.6093   24.3532 C   0  0  0  0  0  0  0  0  0  0  0  0
   21.1141   18.2921   25.3926 H   0  0  0  0  0  0  0  0  0  0  0  0
   21.9317   18.9737   24.0169 H   0  0  0  0  0  0  0  0  0  0  0  0
   20.5350   17.3469   23.5540 C   0  0  0  0  0  0  0  0  0  0  0  0
   21.3940   16.6628   23.5239 H   0  0  0  0  0  0  0  0  0  0  0  0
   19.7507   16.8168   24.1114 H   0  0  0  0  0  0  0  0  0  0  0  0
   20.0324   17.5754   22.1081 C   0  0  0  0  0  0  0  0  0  0  0  0
   18.9939   17.9256   22.1318 H   0  0  0  0  0  0  0  0  0  0  0  0
   19.9881   16.6001   21.6045 H   0  0  0  0  0  0  0  0  0  0  0  0
   20.9239   18.5288   21.2703 C   0  0  0  0  0  0  0  0  0  0  0  0
   21.8559   18.7580   21.7988 H   0  0  0  0  0  0  0  0  0  0  0  0
   21.2380   18.0002   20.3608 H   0  0  0  0  0  0  0  0  0  0  0  0
   20.2274   19.8375   20.8316 C   0  0  0  0  0  0  0  0  0  0  0  0
   19.5183   19.5841   20.0304 H   0  0  0  0  0  0  0  0  0  0  0  0
   19.4300   20.5978   21.9227 C   0  0  0  0  0  0  0  0  0  0  0  0
   19.1507   21.5706   21.4962 H   0  0  0  0  0  0  0  0  0  0  0  0
   18.4729   20.0951   22.1066 H   0  0  0  0  0  0  0  0  0  0  0  0
   20.1536   20.8557   23.2714 C   0  0  0  0  0  0  0  0  0  0  0  0
   19.7500   21.7957   23.6722 H   0  0  0  0  0  0  0  0  0  0  0  0
   21.2241   21.0438   23.1177 H   0  0  0  0  0  0  0  0  0  0  0  0
   19.9294   19.7717   24.3616 C   0  0  0  0  0  0  0  0  0  0  0  0
   18.9011   19.3869   24.3339 H   0  0  0  0  0  0  0  0  0  0  0  0
   20.0255   20.2740   25.3340 H   0  0  0  0  0  0  0  0  0  0  0  0
   21.2163   20.7113   20.3053 O   0  0  0  0  0  0  0  0  0  0  0  0
   21.7650   20.9847   21.0677 H   0  0  0  0  0  0  0  0  0  0  0  0
  1  2  1  0  0  0  0
  1  3  1  0  0  0  0
  1  4  1  0  0  0  0
  4  5  1  0  0  0  0
  4  6  1  0  0  0  0
  4  7  1  0  0  0  0
  7  8  1  0  0  0  0
  7  9  1  0  0  0  0
  7 10  1  0  0  0  0
 10 11  1  0  0  0  0
 10 12  1  0  0  0  0
 10 13  1  0  0  0  0
 13 14  1  0  0  0  0
 13 15  1  0  0  0  0
 15 16  1  0  0  0  0
 15 17  1  0  0  0  0
 15 18  1  0  0  0  0
 18 19  1  0  0  0  0
 18 20  1  0  0  0  0
  1 21  1  0  0  0  0
 18 21  1  0  0  0  0
 21 22  1  0  0  0  0
 21 23  1  0  0  0  0
 13 24  1  0  0  0  0
 24 25  1  0  0  0  0
M  END
> <VConfSearch Rank>
703

> <Conf_Id>
115

> <Delta U+W>
0.038

> <U+W>
10.952

> <U>
12.526

> <W>
-1.575

> <W(PB)>
-3.698

> <W(SA)>
2.123

> <Valence>
19.016

> <Coulomb>
-9.226

> <VdW>
2.737

> <VdW6>
-12.612

> <VdW12>
15.349

> <Bond>
0.421

> <Angle>
4.883

> <Pdih>
13.711

> <Idih>
0.000

> <Tether>
0.000

$$$$
VeraChem MOL file


 25 25  0  0  0  0  0  0  0  0999 V2000     
   20.6479   21.0937   23.7058 C   0  0  0  0  0  0  0  0  0  0  0  0
   20.3472   21.9068   24.3805 H   0  0  0  0  0  0  0  0  0  0  0  0
   21.7298   21.2165   23.5611 H   0  0  0  0  0  0  0  0  0  0  0  0
   19.9054   21.3083   22.3663 C   0  0  0  0  0  0  0  0  0  0  0  0
   18.8196   21.3070   22.5326 H   0  0  0  0  0  0  0  0  0  0  0  0
   20.1486   22.3203   22.0145 H   0  0  0  0  0  0  0  0  0  0  0  0
   20.2748   20.3122   21.2429 C   0  0  0  0  0  0  0  0  0  0  0  0
   21.3584   20.1345   21.2319 H   0  0  0  0  0  0  0  0  0  0  0  0
   20.0499   20.7999   20.2843 H   0  0  0  0  0  0  0  0  0  0  0  0
   19.4810   18.9787   21.2848 C   0  0  0  0  0  0  0  0  0  0  0  0
   18.6194   19.0487   21.9604 H   0  0  0  0  0  0  0  0  0  0  0  0
   19.0559   18.8193   20.2846 H   0  0  0  0  0  0  0  0  0  0  0  0
   20.3324   17.7394   21.6412 C   0  0  0  0  0  0  0  0  0  0  0  0
   21.3317   17.8545   21.1975 H   0  0  0  0  0  0  0  0  0  0  0  0
   20.4833   17.4753   23.1558 C   0  0  0  0  0  0  0  0  0  0  0  0
   19.4974   17.2964   23.6048 H   0  0  0  0  0  0  0  0  0  0  0  0
   21.0402   16.5365   23.2743 H   0  0  0  0  0  0  0  0  0  0  0  0
   21.2391   18.5693   23.9487 C   0  0  0  0  0  0  0  0  0  0  0  0
   22.1097   18.9218   23.3797 H   0  0  0  0  0  0  0  0  0  0  0  0
   21.6533   18.0935   24.8483 H   0  0  0  0  0  0  0  0  0  0  0  0
   20.3521   19.7524   24.4171 C   0  0  0  0  0  0  0  0  0  0  0  0
   20.5437   19.9022   25.4886 H   0  0  0  0  0  0  0  0  0  0  0  0
   19.2840   19.5078   24.3450 H   0  0  0  0  0  0  0  0  0  0  0  0
   19.7078   16.5968   21.0685 O   0  0  0  0  0  0  0  0  0  0  0  0
   20.2890   15.8310   21.2588 H   0  0  0  0  0  0  0  0  0  0  0  0
  1  2  1  0  0  0  0
  1  3  1  0  0  0  0
  1  4  1  0  0  0  0
  4  5  1  0  0  0  0
  4  6  1  0  0  0  0
  4  7  1  0  0  0  0
  7  8  1  0  0  0  0
  7  9  1  0  0  0  0
  7 10  1  0  0  0  0
 10 11  1  0  0  0  0
 10 12  1  0  0  0  0
 10 13  1  0  0  0  0
 13 14  1  0  0  0  0
 13 15  1  0  0  0  0
 15 16  1  0  0  0  0
 15 17  1  0  0  0  0
 15 18  1  0  0  0  0
 18 19  1  0  0  0  0
 18 20  1  0  0  0  0
  1 21  1  0  0  0  0
 18 21  1  0  0  0  0
 21 22  1  0  0  0  0
 21 23  1  0  0  0  0
 13 24  1  0  0  0  0
 24 25  1  0  0  0  0
M  END
> <VConfSearch Rank>
704

> <Conf_Id>
30

> <Delta U+W>
0.000

> <U+W>
10.913

> <U>
13.140

> <W>
-2.227

> <W(PB)>
-4.367

> <W(SA)>
2.140

> <Valence>
19.155

> <Coulomb>
-8.157

> <VdW>
2.142

> <VdW6>
-11.576

> <VdW12>
13.718

> <Bond>
0.294

> <Angle>
3.547

> <Pdih>
15.314

> <Idih>
0.000

> <Tether>
0.000

$$$$
VeraChem MOL file


 25 25  0  0  0  0  0  0  0  0999 V2000     
   20.5809   17.7924   21.1103 C   0  0  0  0  0  0  0  0  0  0  0  0
   20.8140   16.7190   21.1246 H   0  0  0  0  0  0  0  0  0  0  0  0
   20.5671   18.0789   20.0499 H   0  0  0  0  0  0  0  0  0  0  0  0
   21.7365   18.5552   21.8036 C   0  0  0  0  0  0  0  0  0  0  0  0
   22.6846   18.1324   21.4440 H   0  0  0  0  0  0  0  0  0  0  0  0
   21.7495   19.5959   21.4595 H   0  0  0  0  0  0  0  0  0  0  0  0
   21.7165   18.4793   23.3514 C   0  0  0  0  0  0  0  0  0  0  0  0
   22.6808   18.0831   23.6976 H   0  0  0  0  0  0  0  0  0  0  0  0
   20.9740   17.7523   23.7002 H   0  0  0  0  0  0  0  0  0  0  0  0
   21.4797   19.8432   24.0481 C   0  0  0  0  0  0  0  0  0  0  0  0
   21.2947   19.6600   25.1149 H   0  0  0  0  0  0  0  0  0  0  0  0
   22.4098   20.4243   23.9992 H   0  0  0  0  0  0  0  0  0  0  0  0
   20.3418   20.7296   23.4829 C   0  0  0  0  0  0  0  0  0  0  0  0
   20.6450   21.1272   22.5052 H   0  0  0  0  0  0  0  0  0  0  0  0
   18.9734   20.0221   23.3265 C   0  0  0  0  0  0  0  0  0  0  0  0
   18.8527   19.2503   24.0973 H   0  0  0  0  0  0  0  0  0  0  0  0
   18.1837   20.7584   23.5272 H   0  0  0  0  0  0  0  0  0  0  0  0
   18.6937   19.4412   21.9115 C   0  0  0  0  0  0  0  0  0  0  0  0
   19.0958   20.0954   21.1262 H   0  0  0  0  0  0  0  0  0  0  0  0
   17.6040   19.4537   21.7714 H   0  0  0  0  0  0  0  0  0  0  0  0
   19.1570   17.9786   21.6989 C   0  0  0  0  0  0  0  0  0  0  0  0
   18.4572   17.5017   20.9990 H   0  0  0  0  0  0  0  0  0  0  0  0
   19.0477   17.4115   22.6321 H   0  0  0  0  0  0  0  0  0  0  0  0
   20.1812   21.8262   24.3750 O   0  0  0  0  0  0  0  0  0  0  0  0
   19.5173   22.4236   23.9714 H   0  0  0  0  0  0  0  0  0  0  0  0
  1  2  1  0  0  0  0
  1  3  1  0  0  0  0
  1  4  1  0  0  0  0
  4  5  1  0  0  0  0
  4  6  1  0  0  0  0
  4  7  1  0  0  0  0
  7  8  1  0  0  0  0
  7  9  1  0  0  0  0
  7 10  1  0  0  0  0
 10 11  1  0  0  0  0
 10 12  1  0  0  0  0
 10 13  1  0  0  0  0
 13 14  1  0  0  0  0
 13 15  1  0  0  0  0
 15 16  1  0  0  0  0
 15 17  1  0  0  0  0
 15 18  1  0  0  0  0
 18 19  1  0  0  0  0
 18 20  1  0  0  0  0
  1 21  1  0  0  0  0
 18 21  1  0  0  0  0
 21 22  1  0  0  0  0
 21 23  1  0  0  0  0
 13 24  1  0  0  0  0
 24 25  1  0  0  0  0
M  END
> <VConfSearch Rank>
705

> <Conf_Id>
162

> <Delta U+W>
0.219

> <U+W>
11.132

> <U>
13.296

> <W>
-2.164

> <W(PB)>
-4.311

> <W(SA)>
2.148

> <Valence>
18.607

> <Coulomb>
-8.339

> <VdW>
3.028

> <VdW6>
-12.271

> <VdW12>
15.299

> <Bond>
0.423

> <Angle>
4.488

> <Pdih>
13.696

> <Idih>
0.000

> <Tether>
0.000

$$$$
VeraChem MOL file


 25 25  0  0  0  0  0  0  0  0999 V2000     
   19.6911   17.6427   23.6934 C   0  0  0  0  0  0  0  0  0  0  0  0
   18.7130   17.8061   23.2236 H   0  0  0  0  0  0  0  0  0  0  0  0
   19.5616   16.7368   24.3012 H   0  0  0  0  0  0  0  0  0  0  0  0
   20.7552   17.3423   22.6084 C   0  0  0  0  0  0  0  0  0  0  0  0
   21.7672   17.5257   22.9935 H   0  0  0  0  0  0  0  0  0  0  0  0
   20.7112   16.2627   22.4095 H   0  0  0  0  0  0  0  0  0  0  0  0
   20.5337   18.0599   21.2476 C   0  0  0  0  0  0  0  0  0  0  0  0
   19.4654   18.1210   21.0005 H   0  0  0  0  0  0  0  0  0  0  0  0
   20.9742   17.4159   20.4741 H   0  0  0  0  0  0  0  0  0  0  0  0
   21.2112   19.4486   21.1141 C   0  0  0  0  0  0  0  0  0  0  0  0
   22.1552   19.4597   21.6728 H   0  0  0  0  0  0  0  0  0  0  0  0
   21.5029   19.5797   20.0639 H   0  0  0  0  0  0  0  0  0  0  0  0
   20.3428   20.6766   21.4873 C   0  0  0  0  0  0  0  0  0  0  0  0
   19.5744   20.7942   20.7096 H   0  0  0  0  0  0  0  0  0  0  0  0
   19.6120   20.6104   22.8494 C   0  0  0  0  0  0  0  0  0  0  0  0
   19.2160   21.6073   23.0824 H   0  0  0  0  0  0  0  0  0  0  0  0
   18.7216   19.9812   22.7450 H   0  0  0  0  0  0  0  0  0  0  0  0
   20.4908   20.1333   24.0359 C   0  0  0  0  0  0  0  0  0  0  0  0
   20.4818   20.9070   24.8155 H   0  0  0  0  0  0  0  0  0  0  0  0
   21.5423   20.0516   23.7362 H   0  0  0  0  0  0  0  0  0  0  0  0
   20.0283   18.7997   24.6710 C   0  0  0  0  0  0  0  0  0  0  0  0
   19.1415   18.9932   25.2898 H   0  0  0  0  0  0  0  0  0  0  0  0
   20.8090   18.4613   25.3657 H   0  0  0  0  0  0  0  0  0  0  0  0
   21.1855   21.8229   21.4804 O   0  0  0  0  0  0  0  0  0  0  0  0
   20.6227   22.5877   21.7201 H   0  0  0  0  0  0  0  0  0  0  0  0
  1  2  1  0  0  0  0
  1  3  1  0  0  0  0
  1  4  1  0  0  0  0
  4  5  1  0  0  0  0
  4  6  1  0  0  0  0
  4  7  1  0  0  0  0
  7  8  1  0  0  0  0
  7  9  1  0  0  0  0
  7 10  1  0  0  0  0
 10 11  1  0  0  0  0
 10 12  1  0  0  0  0
 10 13  1  0  0  0  0
 13 14  1  0  0  0  0
 13 15  1  0  0  0  0
 15 16  1  0  0  0  0
 15 17  1  0  0  0  0
 15 18  1  0  0  0  0
 18 19  1  0  0  0  0
 18 20  1  0  0  0  0
  1 21  1  0  0  0  0
 18 21  1  0  0  0  0
 21 22  1  0  0  0  0
 21 23  1  0  0  0  0
 13 24  1  0  0  0  0
 24 25  1  0  0  0  0
M  END
> <VConfSearch Rank>
706

> <Conf_Id>
155

> <Delta U+W>
0.339

> <U+W>
11.252

> <U>
13.420

> <W>
-2.167

> <W(PB)>
-4.325

> <W(SA)>
2.157

> <Valence>
18.609

> <Coulomb>
-8.052

> <VdW>
2.863

> <VdW6>
-12.524

> <VdW12>
15.387

> <Bond>
0.430

> <Angle>
4.724

> <Pdih>
13.455

> <Idih>
0.000

> <Tether>
0.000

$$$$
VeraChem MOL file


 25 25  0  0  0  0  0  0  0  0999 V2000     
   21.5848   17.7190   23.1766 C   0  0  0  0  0  0  0  0  0  0  0  0
   22.6329   17.8751   22.8874 H   0  0  0  0  0  0  0  0  0  0  0  0
   21.5639   16.7457   23.6855 H   0  0  0  0  0  0  0  0  0  0  0  0
   21.1805   18.7861   24.2277 C   0  0  0  0  0  0  0  0  0  0  0  0
   20.1769   18.5618   24.6029 H   0  0  0  0  0  0  0  0  0  0  0  0
   21.8216   18.6440   25.1083 H   0  0  0  0  0  0  0  0  0  0  0  0
   21.2955   20.2827   23.8153 C   0  0  0  0  0  0  0  0  0  0  0  0
   22.3263   20.6021   24.0203 H   0  0  0  0  0  0  0  0  0  0  0  0
   20.6633   20.8852   24.4816 H   0  0  0  0  0  0  0  0  0  0  0  0
   20.9874   20.6626   22.3413 C   0  0  0  0  0  0  0  0  0  0  0  0
   21.2575   21.7188   22.2115 H   0  0  0  0  0  0  0  0  0  0  0  0
   21.6895   20.1442   21.6824 H   0  0  0  0  0  0  0  0  0  0  0  0
   19.5287   20.4776   21.8291 C   0  0  0  0  0  0  0  0  0  0  0  0
   19.5679   20.3799   20.7347 H   0  0  0  0  0  0  0  0  0  0  0  0
   18.7169   19.2807   22.3850 C   0  0  0  0  0  0  0  0  0  0  0  0
   18.6122   19.3924   23.4681 H   0  0  0  0  0  0  0  0  0  0  0  0
   17.6882   19.3792   22.0140 H   0  0  0  0  0  0  0  0  0  0  0  0
   19.1951   17.8433   22.0195 C   0  0  0  0  0  0  0  0  0  0  0  0
   18.7426   17.5821   21.0531 H   0  0  0  0  0  0  0  0  0  0  0  0
   18.7710   17.1335   22.7424 H   0  0  0  0  0  0  0  0  0  0  0  0
   20.7198   17.5887   21.8887 C   0  0  0  0  0  0  0  0  0  0  0  0
   21.1242   18.2099   21.0834 H   0  0  0  0  0  0  0  0  0  0  0  0
   20.8534   16.5648   21.5137 H   0  0  0  0  0  0  0  0  0  0  0  0
   18.8004   21.6572   22.1518 O   0  0  0  0  0  0  0  0  0  0  0  0
   19.2881   22.4083   21.7551 H   0  0  0  0  0  0  0  0  0  0  0  0
  1  2  1  0  0  0  0
  1  3  1  0  0  0  0
  1  4  1  0  0  0  0
  4  5  1  0  0  0  0
  4  6  1  0  0  0  0
  4  7  1  0  0  0  0
  7  8  1  0  0  0  0
  7  9  1  0  0  0  0
  7 10  1  0  0  0  0
 10 11  1  0  0  0  0
 10 12  1  0  0  0  0
 10 13  1  0  0  0  0
 13 14  1  0  0  0  0
 13 15  1  0  0  0  0
 15 16  1  0  0  0  0
 15 17  1  0  0  0  0
 15 18  1  0  0  0  0
 18 19  1  0  0  0  0
 18 20  1  0  0  0  0
  1 21  1  0  0  0  0
 18 21  1  0  0  0  0
 21 22  1  0  0  0  0
 21 23  1  0  0  0  0
 13 24  1  0  0  0  0
 24 25  1  0  0  0  0
M  END
> <VConfSearch Rank>
707

> <Conf_Id>
146

> <Delta U+W>
2.553

> <U+W>
13.466

> <U>
15.643

> <W>
-2.176

> <W(PB)>
-4.307

> <W(SA)>
2.131

> <Valence>
18.916

> <Coulomb>
-7.506

> <VdW>
4.232

> <VdW6>
-13.632

> <VdW12>
17.864

> <Bond>
0.735

> <Angle>
9.140

> <Pdih>
9.042

> <Idih>
0.000

> <Tether>
0.000

$$$$
VeraChem MOL file


 25 25  0  0  0  0  0  0  0  0999 V2000     
   18.3509   18.6504   22.4017 C   0  0  0  0  0  0  0  0  0  0  0  0
   17.6416   18.5655   23.2361 H   0  0  0  0  0  0  0  0  0  0  0  0
   17.7883   18.3595   21.5040 H   0  0  0  0  0  0  0  0  0  0  0  0
   19.4882   17.6154   22.5901 C   0  0  0  0  0  0  0  0  0  0  0  0
   19.0252   16.6192   22.5914 H   0  0  0  0  0  0  0  0  0  0  0  0
   20.1485   17.6111   21.7153 H   0  0  0  0  0  0  0  0  0  0  0  0
   20.3147   17.7397   23.8947 C   0  0  0  0  0  0  0  0  0  0  0  0
   20.9941   16.8775   23.9391 H   0  0  0  0  0  0  0  0  0  0  0  0
   19.6456   17.6365   24.7597 H   0  0  0  0  0  0  0  0  0  0  0  0
   21.1667   19.0241   24.0675 C   0  0  0  0  0  0  0  0  0  0  0  0
   20.5447   19.8466   24.4345 H   0  0  0  0  0  0  0  0  0  0  0  0
   21.8771   18.8328   24.8831 H   0  0  0  0  0  0  0  0  0  0  0  0
   21.9516   19.4681   22.8062 C   0  0  0  0  0  0  0  0  0  0  0  0
   22.0552   18.6179   22.1187 H   0  0  0  0  0  0  0  0  0  0  0  0
   21.3158   20.6634   22.0521 C   0  0  0  0  0  0  0  0  0  0  0  0
   21.1831   21.5006   22.7501 H   0  0  0  0  0  0  0  0  0  0  0  0
   22.0374   21.0138   21.3025 H   0  0  0  0  0  0  0  0  0  0  0  0
   19.9767   20.3948   21.3129 C   0  0  0  0  0  0  0  0  0  0  0  0
   20.0918   19.5866   20.5792 H   0  0  0  0  0  0  0  0  0  0  0  0
   19.7534   21.2914   20.7185 H   0  0  0  0  0  0  0  0  0  0  0  0
   18.7613   20.1370   22.2407 C   0  0  0  0  0  0  0  0  0  0  0  0
   17.8944   20.6672   21.8231 H   0  0  0  0  0  0  0  0  0  0  0  0
   18.9191   20.6025   23.2201 H   0  0  0  0  0  0  0  0  0  0  0  0
   23.2541   19.8703   23.2150 O   0  0  0  0  0  0  0  0  0  0  0  0
   23.7516   20.0901   22.3999 H   0  0  0  0  0  0  0  0  0  0  0  0
  1  2  1  0  0  0  0
  1  3  1  0  0  0  0
  1  4  1  0  0  0  0
  4  5  1  0  0  0  0
  4  6  1  0  0  0  0
  4  7  1  0  0  0  0
  7  8  1  0  0  0  0
  7  9  1  0  0  0  0
  7 10  1  0  0  0  0
 10 11  1  0  0  0  0
 10 12  1  0  0  0  0
 10 13  1  0  0  0  0
 13 14  1  0  0  0  0
 13 15  1  0  0  0  0
 15 16  1  0  0  0  0
 15 17  1  0  0  0  0
 15 18  1  0  0  0  0
 18 19  1  0  0  0  0
 18 20  1  0  0  0  0
  1 21  1  0  0  0  0
 18 21  1  0  0  0  0
 21 22  1  0  0  0  0
 21 23  1  0  0  0  0
 13 24  1  0  0  0  0
 24 25  1  0  0  0  0
M  END
> <VConfSearch Rank>
708

> <Conf_Id>
62

> <Delta U+W>
-1.779

> <U+W>
9.134

> <U>
11.364

> <W>
-2.230

> <W(PB)>
-4.359

> <W(SA)>
2.129

> <Valence>
16.582

> <Coulomb>
-8.150

> <VdW>
2.933

> <VdW6>
-12.531

> <VdW12>
15.464

> <Bond>
0.439

> <Angle>
5.099

> <Pdih>
11.044

> <Idih>
0.000

> <Tether>
0.000

$$$$
VeraChem MOL file


 25 25  0  0  0  0  0  0  0  0999 V2000     
   19.3141   18.7211   21.2032 C   0  0  0  0  0  0  0  0  0  0  0  0
   20.0425   17.9065   21.2872 H   0  0  0  0  0  0  0  0  0  0  0  0
   18.7027   18.4562   20.3299 H   0  0  0  0  0  0  0  0  0  0  0  0
   20.0306   20.0549   20.8757 C   0  0  0  0  0  0  0  0  0  0  0  0
   20.5585   19.9190   19.9219 H   0  0  0  0  0  0  0  0  0  0  0  0
   19.2793   20.8345   20.6908 H   0  0  0  0  0  0  0  0  0  0  0  0
   21.0552   20.5799   21.9137 C   0  0  0  0  0  0  0  0  0  0  0  0
   20.5453   21.1259   22.7154 H   0  0  0  0  0  0  0  0  0  0  0  0
   21.6662   21.3407   21.4089 H   0  0  0  0  0  0  0  0  0  0  0  0
   22.0082   19.5072   22.5058 C   0  0  0  0  0  0  0  0  0  0  0  0
   22.1098   18.6517   21.8268 H   0  0  0  0  0  0  0  0  0  0  0  0
   23.0089   19.9558   22.5575 H   0  0  0  0  0  0  0  0  0  0  0  0
   21.6436   19.0270   23.9333 C   0  0  0  0  0  0  0  0  0  0  0  0
   21.5435   19.9112   24.5793 H   0  0  0  0  0  0  0  0  0  0  0  0
   20.3505   18.1844   24.0672 C   0  0  0  0  0  0  0  0  0  0  0  0
   20.4069   17.2905   23.4343 H   0  0  0  0  0  0  0  0  0  0  0  0
   20.3206   17.8064   25.0978 H   0  0  0  0  0  0  0  0  0  0  0  0
   19.0309   18.9639   23.8210 C   0  0  0  0  0  0  0  0  0  0  0  0
   19.1766   20.0341   24.0060 H   0  0  0  0  0  0  0  0  0  0  0  0
   18.3012   18.6508   24.5803 H   0  0  0  0  0  0  0  0  0  0  0  0
   18.3751   18.7350   22.4352 C   0  0  0  0  0  0  0  0  0  0  0  0
   17.5891   19.4872   22.2841 H   0  0  0  0  0  0  0  0  0  0  0  0
   17.8575   17.7665   22.4649 H   0  0  0  0  0  0  0  0  0  0  0  0
   22.7227   18.2330   24.4102 O   0  0  0  0  0  0  0  0  0  0  0  0
   23.5228   18.7982   24.3851 H   0  0  0  0  0  0  0  0  0  0  0  0
  1  2  1  0  0  0  0
  1  3  1  0  0  0  0
  1  4  1  0  0  0  0
  4  5  1  0  0  0  0
  4  6  1  0  0  0  0
  4  7  1  0  0  0  0
  7  8  1  0  0  0  0
  7  9  1  0  0  0  0
  7 10  1  0  0  0  0
 10 11  1  0  0  0  0
 10 12  1  0  0  0  0
 10 13  1  0  0  0  0
 13 14  1  0  0  0  0
 13 15  1  0  0  0  0
 15 16  1  0  0  0  0
 15 17  1  0  0  0  0
 15 18  1  0  0  0  0
 18 19  1  0  0  0  0
 18 20  1  0  0  0  0
  1 21  1  0  0  0  0
 18 21  1  0  0  0  0
 21 22  1  0  0  0  0
 21 23  1  0  0  0  0
 13 24  1  0  0  0  0
 24 25  1  0  0  0  0
M  END
> <VConfSearch Rank>
709

> <Conf_Id>
121

> <Delta U+W>
-1.283

> <U+W>
9.630

> <U>
11.876

> <W>
-2.246

> <W(PB)>
-4.376

> <W(SA)>
2.130

> <Valence>
17.153

> <Coulomb>
-7.966

> <VdW>
2.689

> <VdW6>
-12.458

> <VdW12>
15.147

> <Bond>
0.421

> <Angle>
5.258

> <Pdih>
11.475

> <Idih>
0.000

> <Tether>
0.000

$$$$
VeraChem MOL file


 25 25  0  0  0  0  0  0  0  0999 V2000     
   18.9538   20.2372   23.4395 C   0  0  0  0  0  0  0  0  0  0  0  0
   19.2972   19.5789   24.2456 H   0  0  0  0  0  0  0  0  0  0  0  0
   18.1473   20.8304   23.8915 H   0  0  0  0  0  0  0  0  0  0  0  0
   18.3262   19.4053   22.2933 C   0  0  0  0  0  0  0  0  0  0  0  0
   17.4773   18.8510   22.7163 H   0  0  0  0  0  0  0  0  0  0  0  0
   17.8945   20.0847   21.5459 H   0  0  0  0  0  0  0  0  0  0  0  0
   19.2463   18.3857   21.5744 C   0  0  0  0  0  0  0  0  0  0  0  0
   19.8383   18.8823   20.7974 H   0  0  0  0  0  0  0  0  0  0  0  0
   18.5948   17.6940   21.0231 H   0  0  0  0  0  0  0  0  0  0  0  0
   20.1637   17.5485   22.5057 C   0  0  0  0  0  0  0  0  0  0  0  0
   19.7472   17.4835   23.5182 H   0  0  0  0  0  0  0  0  0  0  0  0
   20.1623   16.5179   22.1268 H   0  0  0  0  0  0  0  0  0  0  0  0
   21.6420   18.0089   22.5550 C   0  0  0  0  0  0  0  0  0  0  0  0
   22.0174   18.0633   21.5230 H   0  0  0  0  0  0  0  0  0  0  0  0
   21.9172   19.3693   23.2443 C   0  0  0  0  0  0  0  0  0  0  0  0
   21.5489   19.3581   24.2774 H   0  0  0  0  0  0  0  0  0  0  0  0
   23.0064   19.4795   23.3267 H   0  0  0  0  0  0  0  0  0  0  0  0
   21.3879   20.6100   22.4763 C   0  0  0  0  0  0  0  0  0  0  0  0
   21.2857   20.3865   21.4083 H   0  0  0  0  0  0  0  0  0  0  0  0
   22.1559   21.3943   22.5203 H   0  0  0  0  0  0  0  0  0  0  0  0
   20.0770   21.2230   23.0318 C   0  0  0  0  0  0  0  0  0  0  0  0
   19.6817   21.9413   22.3008 H   0  0  0  0  0  0  0  0  0  0  0  0
   20.3337   21.8151   23.9209 H   0  0  0  0  0  0  0  0  0  0  0  0
   22.3767   17.0135   23.2563 O   0  0  0  0  0  0  0  0  0  0  0  0
   23.3189   17.2805   23.2224 H   0  0  0  0  0  0  0  0  0  0  0  0
  1  2  1  0  0  0  0
  1  3  1  0  0  0  0
  1  4  1  0  0  0  0
  4  5  1  0  0  0  0
  4  6  1  0  0  0  0
  4  7  1  0  0  0  0
  7  8  1  0  0  0  0
  7  9  1  0  0  0  0
  7 10  1  0  0  0  0
 10 11  1  0  0  0  0
 10 12  1  0  0  0  0
 10 13  1  0  0  0  0
 13 14  1  0  0  0  0
 13 15  1  0  0  0  0
 15 16  1  0  0  0  0
 15 17  1  0  0  0  0
 15 18  1  0  0  0  0
 18 19  1  0  0  0  0
 18 20  1  0  0  0  0
  1 21  1  0  0  0  0
 18 21  1  0  0  0  0
 21 22  1  0  0  0  0
 21 23  1  0  0  0  0
 13 24  1  0  0  0  0
 24 25  1  0  0  0  0
M  END
> <VConfSearch Rank>
710

> <Conf_Id>
24

> <Delta U+W>
-1.236

> <U+W>
9.678

> <U>
11.876

> <W>
-2.199

> <W(PB)>
-4.335

> <W(SA)>
2.137

> <Valence>
17.153

> <Coulomb>
-7.966

> <VdW>
2.689

> <VdW6>
-12.458

> <VdW12>
15.147

> <Bond>
0.421

> <Angle>
5.258

> <Pdih>
11.475

> <Idih>
0.000

> <Tether>
0.000

$$$$
VeraChem MOL file


 25 25  0  0  0  0  0  0  0  0999 V2000     
   20.9313   17.1714   22.3343 C   0  0  0  0  0  0  0  0  0  0  0  0
   20.3169   16.2931   22.5747 H   0  0  0  0  0  0  0  0  0  0  0  0
   21.8981   16.7741   21.9961 H   0  0  0  0  0  0  0  0  0  0  0  0
   20.2829   17.9267   21.1438 C   0  0  0  0  0  0  0  0  0  0  0  0
   21.0105   18.5970   20.6689 H   0  0  0  0  0  0  0  0  0  0  0  0
   20.0530   17.1754   20.3758 H   0  0  0  0  0  0  0  0  0  0  0  0
   18.9782   18.6996   21.4587 C   0  0  0  0  0  0  0  0  0  0  0  0
   18.3847   18.1706   22.2166 H   0  0  0  0  0  0  0  0  0  0  0  0
   18.3678   18.6800   20.5454 H   0  0  0  0  0  0  0  0  0  0  0  0
   19.1718   20.1947   21.8397 C   0  0  0  0  0  0  0  0  0  0  0  0
   19.9897   20.6424   21.2608 H   0  0  0  0  0  0  0  0  0  0  0  0
   18.2619   20.7200   21.5187 H   0  0  0  0  0  0  0  0  0  0  0  0
   19.3651   20.4647   23.3519 C   0  0  0  0  0  0  0  0  0  0  0  0
   18.8456   19.6787   23.9158 H   0  0  0  0  0  0  0  0  0  0  0  0
   20.8373   20.5490   23.8286 C   0  0  0  0  0  0  0  0  0  0  0  0
   21.2833   21.4860   23.4702 H   0  0  0  0  0  0  0  0  0  0  0  0
   20.8284   20.6187   24.9244 H   0  0  0  0  0  0  0  0  0  0  0  0
   21.7721   19.3822   23.4219 C   0  0  0  0  0  0  0  0  0  0  0  0
   22.6926   19.4602   24.0163 H   0  0  0  0  0  0  0  0  0  0  0  0
   22.0980   19.5142   22.3837 H   0  0  0  0  0  0  0  0  0  0  0  0
   21.1587   17.9756   23.6378 C   0  0  0  0  0  0  0  0  0  0  0  0
   20.2205   18.0360   24.2015 H   0  0  0  0  0  0  0  0  0  0  0  0
   21.8325   17.3938   24.2815 H   0  0  0  0  0  0  0  0  0  0  0  0
   18.7486   21.7067   23.6667 O   0  0  0  0  0  0  0  0  0  0  0  0
   19.2131   22.3882   23.1386 H   0  0  0  0  0  0  0  0  0  0  0  0
  1  2  1  0  0  0  0
  1  3  1  0  0  0  0
  1  4  1  0  0  0  0
  4  5  1  0  0  0  0
  4  6  1  0  0  0  0
  4  7  1  0  0  0  0
  7  8  1  0  0  0  0
  7  9  1  0  0  0  0
  7 10  1  0  0  0  0
 10 11  1  0  0  0  0
 10 12  1  0  0  0  0
 10 13  1  0  0  0  0
 13 14  1  0  0  0  0
 13 15  1  0  0  0  0
 15 16  1  0  0  0  0
 15 17  1  0  0  0  0
 15 18  1  0  0  0  0
 18 19  1  0  0  0  0
 18 20  1  0  0  0  0
  1 21  1  0  0  0  0
 18 21  1  0  0  0  0
 21 22  1  0  0  0  0
 21 23  1  0  0  0  0
 13 24  1  0  0  0  0
 24 25  1  0  0  0  0
M  END
> <VConfSearch Rank>
711

> <Conf_Id>
167

> <Delta U+W>
0.388

> <U+W>
11.301

> <U>
13.202

> <W>
-1.901

> <W(PB)>
-4.065

> <W(SA)>
2.163

> <Valence>
18.957

> <Coulomb>
-8.753

> <VdW>
2.998

> <VdW6>
-12.294

> <VdW12>
15.292

> <Bond>
0.419

> <Angle>
4.543

> <Pdih>
13.996

> <Idih>
0.000

> <Tether>
0.000

$$$$
VeraChem MOL file


 25 25  0  0  0  0  0  0  0  0999 V2000     
   21.9548   18.6903   23.7722 C   0  0  0  0  0  0  0  0  0  0  0  0
   22.8925   18.3788   23.2926 H   0  0  0  0  0  0  0  0  0  0  0  0
   22.1498   18.6567   24.8529 H   0  0  0  0  0  0  0  0  0  0  0  0
   20.8572   17.6405   23.4583 C   0  0  0  0  0  0  0  0  0  0  0  0
   20.9267   17.3085   22.4163 H   0  0  0  0  0  0  0  0  0  0  0  0
   21.0927   16.7430   24.0465 H   0  0  0  0  0  0  0  0  0  0  0  0
   19.4064   18.0709   23.7968 C   0  0  0  0  0  0  0  0  0  0  0  0
   19.3947   18.8300   24.5895 H   0  0  0  0  0  0  0  0  0  0  0  0
   18.8953   17.1989   24.2273 H   0  0  0  0  0  0  0  0  0  0  0  0
   18.5624   18.5342   22.5780 C   0  0  0  0  0  0  0  0  0  0  0  0
   18.5555   17.7431   21.8169 H   0  0  0  0  0  0  0  0  0  0  0  0
   17.5216   18.6303   22.9145 H   0  0  0  0  0  0  0  0  0  0  0  0
   18.9671   19.8748   21.9159 C   0  0  0  0  0  0  0  0  0  0  0  0
   19.0053   20.6581   22.6847 H   0  0  0  0  0  0  0  0  0  0  0  0
   20.3159   19.8222   21.1525 C   0  0  0  0  0  0  0  0  0  0  0  0
   20.5560   18.7887   20.8833 H   0  0  0  0  0  0  0  0  0  0  0  0
   20.2113   20.3369   20.1881 H   0  0  0  0  0  0  0  0  0  0  0  0
   21.5128   20.4750   21.8913 C   0  0  0  0  0  0  0  0  0  0  0  0
   21.4224   21.5646   21.7838 H   0  0  0  0  0  0  0  0  0  0  0  0
   22.4428   20.2011   21.3748 H   0  0  0  0  0  0  0  0  0  0  0  0
   21.6569   20.1653   23.4026 C   0  0  0  0  0  0  0  0  0  0  0  0
   20.7824   20.5270   23.9553 H   0  0  0  0  0  0  0  0  0  0  0  0
   22.4920   20.7706   23.7808 H   0  0  0  0  0  0  0  0  0  0  0  0
   17.9435   20.2145   20.9880 O   0  0  0  0  0  0  0  0  0  0  0  0
   18.1739   21.0957   20.6260 H   0  0  0  0  0  0  0  0  0  0  0  0
  1  2  1  0  0  0  0
  1  3  1  0  0  0  0
  1  4  1  0  0  0  0
  4  5  1  0  0  0  0
  4  6  1  0  0  0  0
  4  7  1  0  0  0  0
  7  8  1  0  0  0  0
  7  9  1  0  0  0  0
  7 10  1  0  0  0  0
 10 11  1  0  0  0  0
 10 12  1  0  0  0  0
 10 13  1  0  0  0  0
 13 14  1  0  0  0  0
 13 15  1  0  0  0  0
 15 16  1  0  0  0  0
 15 17  1  0  0  0  0
 15 18  1  0  0  0  0
 18 19  1  0  0  0  0
 18 20  1  0  0  0  0
  1 21  1  0  0  0  0
 18 21  1  0  0  0  0
 21 22  1  0  0  0  0
 21 23  1  0  0  0  0
 13 24  1  0  0  0  0
 24 25  1  0  0  0  0
M  END
> <VConfSearch Rank>
712

> <Conf_Id>
60

> <Delta U+W>
-1.838

> <U+W>
9.075

> <U>
11.150

> <W>
-2.074

> <W(PB)>
-4.196

> <W(SA)>
2.121

> <Valence>
16.582

> <Coulomb>
-8.361

> <VdW>
2.928

> <VdW6>
-12.539

> <VdW12>
15.467

> <Bond>
0.441

> <Angle>
5.093

> <Pdih>
11.049

> <Idih>
0.000

> <Tether>
0.000

$$$$
VeraChem MOL file


 25 25  0  0  0  0  0  0  0  0999 V2000     
   18.4986   19.8019   21.9101 C   0  0  0  0  0  0  0  0  0  0  0  0
   18.4051   20.2155   20.8968 H   0  0  0  0  0  0  0  0  0  0  0  0
   17.4887   19.8427   22.3407 H   0  0  0  0  0  0  0  0  0  0  0  0
   19.4009   20.7312   22.7603 C   0  0  0  0  0  0  0  0  0  0  0  0
   18.9113   21.7139   22.7990 H   0  0  0  0  0  0  0  0  0  0  0  0
   19.4211   20.3928   23.8025 H   0  0  0  0  0  0  0  0  0  0  0  0
   20.8401   20.9559   22.2323 C   0  0  0  0  0  0  0  0  0  0  0  0
   21.3108   21.7184   22.8679 H   0  0  0  0  0  0  0  0  0  0  0  0
   20.7929   21.3947   21.2264 H   0  0  0  0  0  0  0  0  0  0  0  0
   21.7758   19.7197   22.1986 C   0  0  0  0  0  0  0  0  0  0  0  0
   21.5777   19.1199   21.3046 H   0  0  0  0  0  0  0  0  0  0  0  0
   22.7988   20.0922   22.0547 H   0  0  0  0  0  0  0  0  0  0  0  0
   21.7245   18.8244   23.4637 C   0  0  0  0  0  0  0  0  0  0  0  0
   21.3015   19.3916   24.3037 H   0  0  0  0  0  0  0  0  0  0  0  0
   20.9180   17.5149   23.2794 C   0  0  0  0  0  0  0  0  0  0  0  0
   21.3184   16.9620   22.4196 H   0  0  0  0  0  0  0  0  0  0  0  0
   21.1097   16.8802   24.1547 H   0  0  0  0  0  0  0  0  0  0  0  0
   19.3781   17.6542   23.1319 C   0  0  0  0  0  0  0  0  0  0  0  0
   18.9488   18.1689   24.0011 H   0  0  0  0  0  0  0  0  0  0  0  0
   18.9601   16.6388   23.1647 H   0  0  0  0  0  0  0  0  0  0  0  0
   18.9075   18.3094   21.8075 C   0  0  0  0  0  0  0  0  0  0  0  0
   18.0274   17.7585   21.4484 H   0  0  0  0  0  0  0  0  0  0  0  0
   19.6568   18.1671   21.0206 H   0  0  0  0  0  0  0  0  0  0  0  0
   23.0564   18.4570   23.8033 O   0  0  0  0  0  0  0  0  0  0  0  0
   23.5396   19.2900   23.9851 H   0  0  0  0  0  0  0  0  0  0  0  0
  1  2  1  0  0  0  0
  1  3  1  0  0  0  0
  1  4  1  0  0  0  0
  4  5  1  0  0  0  0
  4  6  1  0  0  0  0
  4  7  1  0  0  0  0
  7  8  1  0  0  0  0
  7  9  1  0  0  0  0
  7 10  1  0  0  0  0
 10 11  1  0  0  0  0
 10 12  1  0  0  0  0
 10 13  1  0  0  0  0
 13 14  1  0  0  0  0
 13 15  1  0  0  0  0
 15 16  1  0  0  0  0
 15 17  1  0  0  0  0
 15 18  1  0  0  0  0
 18 19  1  0  0  0  0
 18 20  1  0  0  0  0
  1 21  1  0  0  0  0
 18 21  1  0  0  0  0
 21 22  1  0  0  0  0
 21 23  1  0  0  0  0
 13 24  1  0  0  0  0
 24 25  1  0  0  0  0
M  END
> <VConfSearch Rank>
713

> <Conf_Id>
129

> <Delta U+W>
-1.846

> <U+W>
9.067

> <U>
11.150

> <W>
-2.083

> <W(PB)>
-4.217

> <W(SA)>
2.134

> <Valence>
16.583

> <Coulomb>
-8.361

> <VdW>
2.928

> <VdW6>
-12.539

> <VdW12>
15.467

> <Bond>
0.441

> <Angle>
5.093

> <Pdih>
11.049

> <Idih>
0.000

> <Tether>
0.000

$$$$
VeraChem MOL file


 25 25  0  0  0  0  0  0  0  0999 V2000     
   18.5661   19.9096   23.5913 C   0  0  0  0  0  0  0  0  0  0  0  0
   17.6967   20.2473   23.0112 H   0  0  0  0  0  0  0  0  0  0  0  0
   18.2833   20.0302   24.6460 H   0  0  0  0  0  0  0  0  0  0  0  0
   19.7606   20.8588   23.3220 C   0  0  0  0  0  0  0  0  0  0  0  0
   19.4584   21.8633   23.6483 H   0  0  0  0  0  0  0  0  0  0  0  0
   20.6060   20.6014   23.9704 H   0  0  0  0  0  0  0  0  0  0  0  0
   20.2218   20.9743   21.8475 C   0  0  0  0  0  0  0  0  0  0  0  0
   20.9875   21.7608   21.8015 H   0  0  0  0  0  0  0  0  0  0  0  0
   19.3862   21.3359   21.2330 H   0  0  0  0  0  0  0  0  0  0  0  0
   20.8127   19.6983   21.1933 C   0  0  0  0  0  0  0  0  0  0  0  0
   20.0066   19.0434   20.8471 H   0  0  0  0  0  0  0  0  0  0  0  0
   21.3241   20.0175   20.2750 H   0  0  0  0  0  0  0  0  0  0  0  0
   21.8056   18.9049   22.0817 C   0  0  0  0  0  0  0  0  0  0  0  0
   22.1941   19.5566   22.8755 H   0  0  0  0  0  0  0  0  0  0  0  0
   21.2077   17.6251   22.7185 C   0  0  0  0  0  0  0  0  0  0  0  0
   20.7910   16.9849   21.9300 H   0  0  0  0  0  0  0  0  0  0  0  0
   22.0357   17.0540   23.1595 H   0  0  0  0  0  0  0  0  0  0  0  0
   20.1405   17.8270   23.8281 C   0  0  0  0  0  0  0  0  0  0  0  0
   20.5444   18.4292   24.6522 H   0  0  0  0  0  0  0  0  0  0  0  0
   19.9423   16.8390   24.2659 H   0  0  0  0  0  0  0  0  0  0  0  0
   18.7865   18.3969   23.3317 C   0  0  0  0  0  0  0  0  0  0  0  0
   17.9797   17.8602   23.8496 H   0  0  0  0  0  0  0  0  0  0  0  0
   18.6344   18.1606   22.2726 H   0  0  0  0  0  0  0  0  0  0  0  0
   22.9017   18.5004   21.2709 O   0  0  0  0  0  0  0  0  0  0  0  0
   22.5315   17.9189   20.5754 H   0  0  0  0  0  0  0  0  0  0  0  0
  1  2  1  0  0  0  0
  1  3  1  0  0  0  0
  1  4  1  0  0  0  0
  4  5  1  0  0  0  0
  4  6  1  0  0  0  0
  4  7  1  0  0  0  0
  7  8  1  0  0  0  0
  7  9  1  0  0  0  0
  7 10  1  0  0  0  0
 10 11  1  0  0  0  0
 10 12  1  0  0  0  0
 10 13  1  0  0  0  0
 13 14  1  0  0  0  0
 13 15  1  0  0  0  0
 15 16  1  0  0  0  0
 15 17  1  0  0  0  0
 15 18  1  0  0  0  0
 18 19  1  0  0  0  0
 18 20  1  0  0  0  0
  1 21  1  0  0  0  0
 18 21  1  0  0  0  0
 21 22  1  0  0  0  0
 21 23  1  0  0  0  0
 13 24  1  0  0  0  0
 24 25  1  0  0  0  0
M  END
> <VConfSearch Rank>
714

> <Conf_Id>
140

> <Delta U+W>
-1.702

> <U+W>
9.211

> <U>
11.181

> <W>
-1.969

> <W(PB)>
-4.093

> <W(SA)>
2.124

> <Valence>
16.954

> <Coulomb>
-8.661

> <VdW>
2.887

> <VdW6>
-12.561

> <VdW12>
15.448

> <Bond>
0.433

> <Angle>
5.120

> <Pdih>
11.401

> <Idih>
0.000

> <Tether>
0.000

$$$$
VeraChem MOL file


 25 25  0  0  0  0  0  0  0  0999 V2000     
   19.3082   20.8864   22.0217 C   0  0  0  0  0  0  0  0  0  0  0  0
   19.6003   21.3932   21.0919 H   0  0  0  0  0  0  0  0  0  0  0  0
   18.4859   21.4838   22.4387 H   0  0  0  0  0  0  0  0  0  0  0  0
   20.4918   20.9496   23.0215 C   0  0  0  0  0  0  0  0  0  0  0  0
   21.4425   20.7723   22.5062 H   0  0  0  0  0  0  0  0  0  0  0  0
   20.5615   21.9882   23.3730 H   0  0  0  0  0  0  0  0  0  0  0  0
   20.3644   20.0284   24.2623 C   0  0  0  0  0  0  0  0  0  0  0  0
   19.3122   19.8094   24.4856 H   0  0  0  0  0  0  0  0  0  0  0  0
   20.7301   20.5925   25.1312 H   0  0  0  0  0  0  0  0  0  0  0  0
   21.1962   18.7193   24.1891 C   0  0  0  0  0  0  0  0  0  0  0  0
   22.2493   18.9712   24.0081 H   0  0  0  0  0  0  0  0  0  0  0  0
   21.1675   18.2561   25.1846 H   0  0  0  0  0  0  0  0  0  0  0  0
   20.7364   17.6547   23.1615 C   0  0  0  0  0  0  0  0  0  0  0  0
   19.6747   17.4277   23.3261 H   0  0  0  0  0  0  0  0  0  0  0  0
   20.9611   18.0589   21.6814 C   0  0  0  0  0  0  0  0  0  0  0  0
   21.7427   18.8222   21.6109 H   0  0  0  0  0  0  0  0  0  0  0  0
   21.3628   17.1991   21.1283 H   0  0  0  0  0  0  0  0  0  0  0  0
   19.6884   18.5253   20.9278 C   0  0  0  0  0  0  0  0  0  0  0  0
   19.1096   17.6307   20.6600 H   0  0  0  0  0  0  0  0  0  0  0  0
   19.9858   18.9838   19.9750 H   0  0  0  0  0  0  0  0  0  0  0  0
   18.7369   19.4866   21.6835 C   0  0  0  0  0  0  0  0  0  0  0  0
   18.3435   19.0068   22.5870 H   0  0  0  0  0  0  0  0  0  0  0  0
   17.8554   19.6399   21.0462 H   0  0  0  0  0  0  0  0  0  0  0  0
   21.4826   16.4715   23.4170 O   0  0  0  0  0  0  0  0  0  0  0  0
   22.4231   16.6999   23.2681 H   0  0  0  0  0  0  0  0  0  0  0  0
  1  2  1  0  0  0  0
  1  3  1  0  0  0  0
  1  4  1  0  0  0  0
  4  5  1  0  0  0  0
  4  6  1  0  0  0  0
  4  7  1  0  0  0  0
  7  8  1  0  0  0  0
  7  9  1  0  0  0  0
  7 10  1  0  0  0  0
 10 11  1  0  0  0  0
 10 12  1  0  0  0  0
 10 13  1  0  0  0  0
 13 14  1  0  0  0  0
 13 15  1  0  0  0  0
 15 16  1  0  0  0  0
 15 17  1  0  0  0  0
 15 18  1  0  0  0  0
 18 19  1  0  0  0  0
 18 20  1  0  0  0  0
  1 21  1  0  0  0  0
 18 21  1  0  0  0  0
 21 22  1  0  0  0  0
 21 23  1  0  0  0  0
 13 24  1  0  0  0  0
 24 25  1  0  0  0  0
M  END
> <VConfSearch Rank>
715

> <Conf_Id>
68

> <Delta U+W>
-1.765

> <U+W>
9.148

> <U>
11.181

> <W>
-2.032

> <W(PB)>
-4.147

> <W(SA)>
2.114

> <Valence>
16.955

> <Coulomb>
-8.661

> <VdW>
2.887

> <VdW6>
-12.561

> <VdW12>
15.448

> <Bond>
0.433

> <Angle>
5.121

> <Pdih>
11.402

> <Idih>
0.000

> <Tether>
0.000

$$$$
VeraChem MOL file


 25 25  0  0  0  0  0  0  0  0999 V2000     
   20.4739   20.7619   21.6777 C   0  0  0  0  0  0  0  0  0  0  0  0
   20.5253   21.7342   21.1687 H   0  0  0  0  0  0  0  0  0  0  0  0
   20.9959   20.0744   21.0027 H   0  0  0  0  0  0  0  0  0  0  0  0
   18.9800   20.3669   21.8105 C   0  0  0  0  0  0  0  0  0  0  0  0
   18.5769   20.6655   22.7866 H   0  0  0  0  0  0  0  0  0  0  0  0
   18.4159   20.9576   21.0758 H   0  0  0  0  0  0  0  0  0  0  0  0
   18.6733   18.8738   21.5216 C   0  0  0  0  0  0  0  0  0  0  0  0
   19.0438   18.6127   20.5208 H   0  0  0  0  0  0  0  0  0  0  0  0
   17.5817   18.7616   21.4697 H   0  0  0  0  0  0  0  0  0  0  0  0
   19.2056   17.8414   22.5509 C   0  0  0  0  0  0  0  0  0  0  0  0
   18.8215   18.0685   23.5526 H   0  0  0  0  0  0  0  0  0  0  0  0
   18.7619   16.8724   22.2848 H   0  0  0  0  0  0  0  0  0  0  0  0
   20.7488   17.6900   22.5702 C   0  0  0  0  0  0  0  0  0  0  0  0
   21.1574   18.0745   21.6285 H   0  0  0  0  0  0  0  0  0  0  0  0
   21.4549   18.3939   23.7551 C   0  0  0  0  0  0  0  0  0  0  0  0
   21.3192   17.7806   24.6557 H   0  0  0  0  0  0  0  0  0  0  0  0
   22.5349   18.4037   23.5584 H   0  0  0  0  0  0  0  0  0  0  0  0
   20.9927   19.8328   24.1014 C   0  0  0  0  0  0  0  0  0  0  0  0
   21.5386   20.1436   25.0025 H   0  0  0  0  0  0  0  0  0  0  0  0
   19.9388   19.8349   24.4023 H   0  0  0  0  0  0  0  0  0  0  0  0
   21.2446   20.9087   23.0155 C   0  0  0  0  0  0  0  0  0  0  0  0
   22.3207   20.9652   22.8026 H   0  0  0  0  0  0  0  0  0  0  0  0
   20.9774   21.8816   23.4502 H   0  0  0  0  0  0  0  0  0  0  0  0
   21.0672   16.3059   22.6441 O   0  0  0  0  0  0  0  0  0  0  0  0
   20.6797   15.9768   23.4810 H   0  0  0  0  0  0  0  0  0  0  0  0
  1  2  1  0  0  0  0
  1  3  1  0  0  0  0
  1  4  1  0  0  0  0
  4  5  1  0  0  0  0
  4  6  1  0  0  0  0
  4  7  1  0  0  0  0
  7  8  1  0  0  0  0
  7  9  1  0  0  0  0
  7 10  1  0  0  0  0
 10 11  1  0  0  0  0
 10 12  1  0  0  0  0
 10 13  1  0  0  0  0
 13 14  1  0  0  0  0
 13 15  1  0  0  0  0
 15 16  1  0  0  0  0
 15 17  1  0  0  0  0
 15 18  1  0  0  0  0
 18 19  1  0  0  0  0
 18 20  1  0  0  0  0
  1 21  1  0  0  0  0
 18 21  1  0  0  0  0
 21 22  1  0  0  0  0
 21 23  1  0  0  0  0
 13 24  1  0  0  0  0
 24 25  1  0  0  0  0
M  END
> <VConfSearch Rank>
716

> <Conf_Id>
165

> <Delta U+W>
-1.999

> <U+W>
8.915

> <U>
10.935

> <W>
-2.020

> <W(PB)>
-4.135

> <W(SA)>
2.115

> <Valence>
16.757

> <Coulomb>
-8.731

> <VdW>
2.908

> <VdW6>
-12.597

> <VdW12>
15.506

> <Bond>
0.434

> <Angle>
5.069

> <Pdih>
11.254

> <Idih>
0.000

> <Tether>
0.000

$$$$
VeraChem MOL file


 25 25  0  0  0  0  0  0  0  0999 V2000     
   21.0453   20.0743   24.0802 C   0  0  0  0  0  0  0  0  0  0  0  0
   21.5426   20.6506   24.8725 H   0  0  0  0  0  0  0  0  0  0  0  0
   20.1901   19.6069   24.5811 H   0  0  0  0  0  0  0  0  0  0  0  0
   22.0549   18.9997   23.5990 C   0  0  0  0  0  0  0  0  0  0  0  0
   23.0428   19.4757   23.5321 H   0  0  0  0  0  0  0  0  0  0  0  0
   22.1505   18.2276   24.3744 H   0  0  0  0  0  0  0  0  0  0  0  0
   21.7752   18.3235   22.2334 C   0  0  0  0  0  0  0  0  0  0  0  0
   22.6306   17.6718   22.0094 H   0  0  0  0  0  0  0  0  0  0  0  0
   21.7791   19.0700   21.4309 H   0  0  0  0  0  0  0  0  0  0  0  0
   20.4966   17.4500   22.1548 C   0  0  0  0  0  0  0  0  0  0  0  0
   20.4948   16.9575   21.1729 H   0  0  0  0  0  0  0  0  0  0  0  0
   20.5710   16.6449   22.8971 H   0  0  0  0  0  0  0  0  0  0  0  0
   19.1372   18.1686   22.3376 C   0  0  0  0  0  0  0  0  0  0  0  0
   18.9719   18.3641   23.4036 H   0  0  0  0  0  0  0  0  0  0  0  0
   18.9993   19.4997   21.5544 C   0  0  0  0  0  0  0  0  0  0  0  0
   19.6937   19.5274   20.7064 H   0  0  0  0  0  0  0  0  0  0  0  0
   17.9978   19.5354   21.1048 H   0  0  0  0  0  0  0  0  0  0  0  0
   19.1502   20.7774   22.4226 C   0  0  0  0  0  0  0  0  0  0  0  0
   18.4247   20.7437   23.2469 H   0  0  0  0  0  0  0  0  0  0  0  0
   18.8549   21.6371   21.8057 H   0  0  0  0  0  0  0  0  0  0  0  0
   20.5634   21.0693   22.9924 C   0  0  0  0  0  0  0  0  0  0  0  0
   20.5238   22.0666   23.4515 H   0  0  0  0  0  0  0  0  0  0  0  0
   21.2991   21.1570   22.1827 H   0  0  0  0  0  0  0  0  0  0  0  0
   18.1207   17.2763   21.8947 O   0  0  0  0  0  0  0  0  0  0  0  0
   18.2032   16.4635   22.4359 H   0  0  0  0  0  0  0  0  0  0  0  0
  1  2  1  0  0  0  0
  1  3  1  0  0  0  0
  1  4  1  0  0  0  0
  4  5  1  0  0  0  0
  4  6  1  0  0  0  0
  4  7  1  0  0  0  0
  7  8  1  0  0  0  0
  7  9  1  0  0  0  0
  7 10  1  0  0  0  0
 10 11  1  0  0  0  0
 10 12  1  0  0  0  0
 10 13  1  0  0  0  0
 13 14  1  0  0  0  0
 13 15  1  0  0  0  0
 15 16  1  0  0  0  0
 15 17  1  0  0  0  0
 15 18  1  0  0  0  0
 18 19  1  0  0  0  0
 18 20  1  0  0  0  0
  1 21  1  0  0  0  0
 18 21  1  0  0  0  0
 21 22  1  0  0  0  0
 21 23  1  0  0  0  0
 13 24  1  0  0  0  0
 24 25  1  0  0  0  0
M  END
> <VConfSearch Rank>
717

> <Conf_Id>
133

> <Delta U+W>
-2.139

> <U+W>
8.774

> <U>
10.905

> <W>
-2.131

> <W(PB)>
-4.281

> <W(SA)>
2.150

> <Valence>
16.378

> <Coulomb>
-8.448

> <VdW>
2.976

> <VdW6>
-12.570

> <VdW12>
15.545

> <Bond>
0.439

> <Angle>
5.049

> <Pdih>
10.889

> <Idih>
0.000

> <Tether>
0.000

$$$$
VeraChem MOL file


 25 25  0  0  0  0  0  0  0  0999 V2000     
   18.6582   18.4390   22.3895 C   0  0  0  0  0  0  0  0  0  0  0  0
   17.7258   17.8840   22.2171 H   0  0  0  0  0  0  0  0  0  0  0  0
   18.3490   19.4901   22.4051 H   0  0  0  0  0  0  0  0  0  0  0  0
   19.6074   18.1674   21.1934 C   0  0  0  0  0  0  0  0  0  0  0  0
   20.2980   17.3437   21.4155 H   0  0  0  0  0  0  0  0  0  0  0  0
   18.9913   17.8061   20.3585 H   0  0  0  0  0  0  0  0  0  0  0  0
   20.3807   19.4104   20.6799 C   0  0  0  0  0  0  0  0  0  0  0  0
   19.6654   20.2020   20.4178 H   0  0  0  0  0  0  0  0  0  0  0  0
   20.8707   19.1326   19.7367 H   0  0  0  0  0  0  0  0  0  0  0  0
   21.4674   19.9933   21.6224 C   0  0  0  0  0  0  0  0  0  0  0  0
   22.2107   19.2268   21.8718 H   0  0  0  0  0  0  0  0  0  0  0  0
   22.0185   20.7487   21.0461 H   0  0  0  0  0  0  0  0  0  0  0  0
   20.9143   20.6644   22.9061 C   0  0  0  0  0  0  0  0  0  0  0  0
   19.8574   20.9113   22.7516 H   0  0  0  0  0  0  0  0  0  0  0  0
   21.0575   19.8137   24.1921 C   0  0  0  0  0  0  0  0  0  0  0  0
   22.1028   19.8687   24.5250 H   0  0  0  0  0  0  0  0  0  0  0  0
   20.4613   20.2776   24.9884 H   0  0  0  0  0  0  0  0  0  0  0  0
   20.6802   18.3130   24.0936 C   0  0  0  0  0  0  0  0  0  0  0  0
   20.9112   17.8535   25.0643 H   0  0  0  0  0  0  0  0  0  0  0  0
   21.3362   17.7990   23.3817 H   0  0  0  0  0  0  0  0  0  0  0  0
   19.1954   18.0035   23.7778 C   0  0  0  0  0  0  0  0  0  0  0  0
   18.5587   18.4397   24.5594 H   0  0  0  0  0  0  0  0  0  0  0  0
   19.0630   16.9161   23.8611 H   0  0  0  0  0  0  0  0  0  0  0  0
   21.6202   21.8815   23.1198 O   0  0  0  0  0  0  0  0  0  0  0  0
   21.2210   22.3047   23.9085 H   0  0  0  0  0  0  0  0  0  0  0  0
  1  2  1  0  0  0  0
  1  3  1  0  0  0  0
  1  4  1  0  0  0  0
  4  5  1  0  0  0  0
  4  6  1  0  0  0  0
  4  7  1  0  0  0  0
  7  8  1  0  0  0  0
  7  9  1  0  0  0  0
  7 10  1  0  0  0  0
 10 11  1  0  0  0  0
 10 12  1  0  0  0  0
 10 13  1  0  0  0  0
 13 14  1  0  0  0  0
 13 15  1  0  0  0  0
 15 16  1  0  0  0  0
 15 17  1  0  0  0  0
 15 18  1  0  0  0  0
 18 19  1  0  0  0  0
 18 20  1  0  0  0  0
  1 21  1  0  0  0  0
 18 21  1  0  0  0  0
 21 22  1  0  0  0  0
 21 23  1  0  0  0  0
 13 24  1  0  0  0  0
 24 25  1  0  0  0  0
M  END
> <VConfSearch Rank>
718

> <Conf_Id>
95

> <Delta U+W>
-2.190

> <U+W>
8.723

> <U>
10.905

> <W>
-2.182

> <W(PB)>
-4.296

> <W(SA)>
2.114

> <Valence>
16.377

> <Coulomb>
-8.448

> <VdW>
2.976

> <VdW6>
-12.570

> <VdW12>
15.546

> <Bond>
0.439

> <Angle>
5.049

> <Pdih>
10.889

> <Idih>
0.000

> <Tether>
0.000

$$$$
VeraChem MOL file


 25 25  0  0  0  0  0  0  0  0999 V2000     
   19.2336   18.6224   21.2790 C   0  0  0  0  0  0  0  0  0  0  0  0
   18.5370   18.2237   20.5289 H   0  0  0  0  0  0  0  0  0  0  0  0
   20.0704   18.9915   20.6775 H   0  0  0  0  0  0  0  0  0  0  0  0
   19.6746   17.4257   22.1721 C   0  0  0  0  0  0  0  0  0  0  0  0
   18.8122   16.7517   22.2661 H   0  0  0  0  0  0  0  0  0  0  0  0
   20.4408   16.8466   21.6392 H   0  0  0  0  0  0  0  0  0  0  0  0
   20.1694   17.7279   23.6110 C   0  0  0  0  0  0  0  0  0  0  0  0
   20.3189   16.7659   24.1200 H   0  0  0  0  0  0  0  0  0  0  0  0
   19.3602   18.1956   24.1807 H   0  0  0  0  0  0  0  0  0  0  0  0
   21.4924   18.5366   23.7600 C   0  0  0  0  0  0  0  0  0  0  0  0
   21.5250   18.9818   24.7631 H   0  0  0  0  0  0  0  0  0  0  0  0
   22.3167   17.8121   23.7299 H   0  0  0  0  0  0  0  0  0  0  0  0
   21.8051   19.6320   22.7093 C   0  0  0  0  0  0  0  0  0  0  0  0
   21.8136   19.1612   21.7208 H   0  0  0  0  0  0  0  0  0  0  0  0
   20.8685   20.8741   22.6859 C   0  0  0  0  0  0  0  0  0  0  0  0
   21.2450   21.5951   23.4240 H   0  0  0  0  0  0  0  0  0  0  0  0
   20.9746   21.3672   21.7113 H   0  0  0  0  0  0  0  0  0  0  0  0
   19.3588   20.6694   22.9856 C   0  0  0  0  0  0  0  0  0  0  0  0
   18.8915   21.6626   23.0286 H   0  0  0  0  0  0  0  0  0  0  0  0
   19.2409   20.2870   24.0044 H   0  0  0  0  0  0  0  0  0  0  0  0
   18.5336   19.8189   21.9759 C   0  0  0  0  0  0  0  0  0  0  0  0
   18.1889   20.4949   21.1816 H   0  0  0  0  0  0  0  0  0  0  0  0
   17.6212   19.4635   22.4735 H   0  0  0  0  0  0  0  0  0  0  0  0
   23.1238   20.1016   22.9645 O   0  0  0  0  0  0  0  0  0  0  0  0
   23.7164   19.3231   22.9130 H   0  0  0  0  0  0  0  0  0  0  0  0
  1  2  1  0  0  0  0
  1  3  1  0  0  0  0
  1  4  1  0  0  0  0
  4  5  1  0  0  0  0
  4  6  1  0  0  0  0
  4  7  1  0  0  0  0
  7  8  1  0  0  0  0
  7  9  1  0  0  0  0
  7 10  1  0  0  0  0
 10 11  1  0  0  0  0
 10 12  1  0  0  0  0
 10 13  1  0  0  0  0
 13 14  1  0  0  0  0
 13 15  1  0  0  0  0
 15 16  1  0  0  0  0
 15 17  1  0  0  0  0
 15 18  1  0  0  0  0
 18 19  1  0  0  0  0
 18 20  1  0  0  0  0
  1 21  1  0  0  0  0
 18 21  1  0  0  0  0
 21 22  1  0  0  0  0
 21 23  1  0  0  0  0
 13 24  1  0  0  0  0
 24 25  1  0  0  0  0
M  END
> <VConfSearch Rank>
719

> <Conf_Id>
161

> <Delta U+W>
2.120

> <U+W>
13.033

> <U>
15.076

> <W>
-2.043

> <W(PB)>
-4.186

> <W(SA)>
2.143

> <Valence>
18.884

> <Coulomb>
-8.074

> <VdW>
4.266

> <VdW6>
-13.486

> <VdW12>
17.752

> <Bond>
0.713

> <Angle>
8.955

> <Pdih>
9.215

> <Idih>
0.000

> <Tether>
0.000

$$$$
VeraChem MOL file


 25 25  0  0  0  0  0  0  0  0999 V2000     
   20.1184   19.0535   20.6719 C   0  0  0  0  0  0  0  0  0  0  0  0
   19.9187   19.2206   19.6046 H   0  0  0  0  0  0  0  0  0  0  0  0
   20.2936   17.9736   20.7576 H   0  0  0  0  0  0  0  0  0  0  0  0
   18.8466   19.4472   21.4639 C   0  0  0  0  0  0  0  0  0  0  0  0
   18.8470   20.5210   21.6943 H   0  0  0  0  0  0  0  0  0  0  0  0
   17.9923   19.2952   20.7900 H   0  0  0  0  0  0  0  0  0  0  0  0
   18.5713   18.5992   22.7369 C   0  0  0  0  0  0  0  0  0  0  0  0
   18.8424   17.5467   22.5784 H   0  0  0  0  0  0  0  0  0  0  0  0
   17.4831   18.5988   22.8885 H   0  0  0  0  0  0  0  0  0  0  0  0
   19.2060   19.1409   24.0439 C   0  0  0  0  0  0  0  0  0  0  0  0
   19.2169   20.2375   24.0257 H   0  0  0  0  0  0  0  0  0  0  0  0
   18.5363   18.8784   24.8735 H   0  0  0  0  0  0  0  0  0  0  0  0
   20.6027   18.5788   24.4113 C   0  0  0  0  0  0  0  0  0  0  0  0
   20.4763   17.5272   24.7064 H   0  0  0  0  0  0  0  0  0  0  0  0
   21.6763   18.6218   23.2993 C   0  0  0  0  0  0  0  0  0  0  0  0
   22.6533   18.4150   23.7561 H   0  0  0  0  0  0  0  0  0  0  0  0
   21.5126   17.7832   22.6140 H   0  0  0  0  0  0  0  0  0  0  0  0
   21.7604   19.9634   22.5232 C   0  0  0  0  0  0  0  0  0  0  0  0
   22.7837   20.3547   22.6040 H   0  0  0  0  0  0  0  0  0  0  0  0
   21.1284   20.7302   22.9854 H   0  0  0  0  0  0  0  0  0  0  0  0
   21.4060   19.8457   21.0215 C   0  0  0  0  0  0  0  0  0  0  0  0
   22.2490   19.3770   20.4957 H   0  0  0  0  0  0  0  0  0  0  0  0
   21.3224   20.8597   20.6073 H   0  0  0  0  0  0  0  0  0  0  0  0
   21.0905   19.3113   25.5266 O   0  0  0  0  0  0  0  0  0  0  0  0
   21.3186   20.1995   25.1847 H   0  0  0  0  0  0  0  0  0  0  0  0
  1  2  1  0  0  0  0
  1  3  1  0  0  0  0
  1  4  1  0  0  0  0
  4  5  1  0  0  0  0
  4  6  1  0  0  0  0
  4  7  1  0  0  0  0
  7  8  1  0  0  0  0
  7  9  1  0  0  0  0
  7 10  1  0  0  0  0
 10 11  1  0  0  0  0
 10 12  1  0  0  0  0
 10 13  1  0  0  0  0
 13 14  1  0  0  0  0
 13 15  1  0  0  0  0
 15 16  1  0  0  0  0
 15 17  1  0  0  0  0
 15 18  1  0  0  0  0
 18 19  1  0  0  0  0
 18 20  1  0  0  0  0
  1 21  1  0  0  0  0
 18 21  1  0  0  0  0
 21 22  1  0  0  0  0
 21 23  1  0  0  0  0
 13 24  1  0  0  0  0
 24 25  1  0  0  0  0
M  END
> <VConfSearch Rank>
720

> <Conf_Id>
164

> <Delta U+W>
0.008

> <U+W>
10.922

> <U>
12.433

> <W>
-1.511

> <W(PB)>
-3.669

> <W(SA)>
2.157

> <Valence>
19.007

> <Coulomb>
-9.373

> <VdW>
2.799

> <VdW6>
-12.597

> <VdW12>
15.396

> <Bond>
0.425

> <Angle>
4.784

> <Pdih>
13.799

> <Idih>
0.000

> <Tether>
0.000

$$$$
VeraChem MOL file


 25 25  0  0  0  0  0  0  0  0999 V2000     
   21.1734   20.1935   21.3714 C   0  0  0  0  0  0  0  0  0  0  0  0
   21.0825   19.1897   20.9413 H   0  0  0  0  0  0  0  0  0  0  0  0
   21.6941   20.7781   20.6008 H   0  0  0  0  0  0  0  0  0  0  0  0
   22.0867   20.1651   22.6223 C   0  0  0  0  0  0  0  0  0  0  0  0
   23.0722   19.8005   22.3017 H   0  0  0  0  0  0  0  0  0  0  0  0
   22.2507   21.1923   22.9752 H   0  0  0  0  0  0  0  0  0  0  0  0
   21.6236   19.2912   23.8158 C   0  0  0  0  0  0  0  0  0  0  0  0
   20.9038   19.8371   24.4362 H   0  0  0  0  0  0  0  0  0  0  0  0
   22.4952   19.1469   24.4689 H   0  0  0  0  0  0  0  0  0  0  0  0
   21.0656   17.8935   23.4366 C   0  0  0  0  0  0  0  0  0  0  0  0
   21.4626   17.5614   22.4697 H   0  0  0  0  0  0  0  0  0  0  0  0
   21.4548   17.1764   24.1718 H   0  0  0  0  0  0  0  0  0  0  0  0
   19.5208   17.7783   23.4664 C   0  0  0  0  0  0  0  0  0  0  0  0
   19.1704   18.1257   24.4488 H   0  0  0  0  0  0  0  0  0  0  0  0
   18.7469   18.5585   22.3743 C   0  0  0  0  0  0  0  0  0  0  0  0
   19.0676   18.2483   21.3725 H   0  0  0  0  0  0  0  0  0  0  0  0
   17.6940   18.2551   22.4489 H   0  0  0  0  0  0  0  0  0  0  0  0
   18.7927   20.1031   22.5189 C   0  0  0  0  0  0  0  0  0  0  0  0
   18.9894   20.3862   23.5592 H   0  0  0  0  0  0  0  0  0  0  0  0
   17.7881   20.4970   22.3124 H   0  0  0  0  0  0  0  0  0  0  0  0
   19.7734   20.8286   21.5625 C   0  0  0  0  0  0  0  0  0  0  0  0
   19.8893   21.8696   21.8933 H   0  0  0  0  0  0  0  0  0  0  0  0
   19.2990   20.8827   20.5731 H   0  0  0  0  0  0  0  0  0  0  0  0
   19.1887   16.4034   23.3305 O   0  0  0  0  0  0  0  0  0  0  0  0
   19.5133   16.1266   22.4491 H   0  0  0  0  0  0  0  0  0  0  0  0
  1  2  1  0  0  0  0
  1  3  1  0  0  0  0
  1  4  1  0  0  0  0
  4  5  1  0  0  0  0
  4  6  1  0  0  0  0
  4  7  1  0  0  0  0
  7  8  1  0  0  0  0
  7  9  1  0  0  0  0
  7 10  1  0  0  0  0
 10 11  1  0  0  0  0
 10 12  1  0  0  0  0
 10 13  1  0  0  0  0
 13 14  1  0  0  0  0
 13 15  1  0  0  0  0
 15 16  1  0  0  0  0
 15 17  1  0  0  0  0
 15 18  1  0  0  0  0
 18 19  1  0  0  0  0
 18 20  1  0  0  0  0
  1 21  1  0  0  0  0
 18 21  1  0  0  0  0
 21 22  1  0  0  0  0
 21 23  1  0  0  0  0
 13 24  1  0  0  0  0
 24 25  1  0  0  0  0
M  END
> <VConfSearch Rank>
721

> <Conf_Id>
15

> <Delta U+W>
-1.271

> <U+W>
9.643

> <U>
11.413

> <W>
-1.770

> <W(PB)>
-3.908

> <W(SA)>
2.138

> <Valence>
17.496

> <Coulomb>
-8.736

> <VdW>
2.653

> <VdW6>
-12.485

> <VdW12>
15.138

> <Bond>
0.414

> <Angle>
5.295

> <Pdih>
11.787

> <Idih>
0.000

> <Tether>
0.000

$$$$
VeraChem MOL file


 25 25  0  0  0  0  0  0  0  0999 V2000     
   21.8542   20.2559   22.0791 C   0  0  0  0  0  0  0  0  0  0  0  0
   22.6362   20.9965   21.8623 H   0  0  0  0  0  0  0  0  0  0  0  0
   21.8627   19.5793   21.2153 H   0  0  0  0  0  0  0  0  0  0  0  0
   22.2856   19.5051   23.3664 C   0  0  0  0  0  0  0  0  0  0  0  0
   23.1877   18.9226   23.1350 H   0  0  0  0  0  0  0  0  0  0  0  0
   22.5915   20.2417   24.1218 H   0  0  0  0  0  0  0  0  0  0  0  0
   21.2370   18.5626   24.0047 C   0  0  0  0  0  0  0  0  0  0  0  0
   20.5095   19.1542   24.5725 H   0  0  0  0  0  0  0  0  0  0  0  0
   21.7465   17.9464   24.7580 H   0  0  0  0  0  0  0  0  0  0  0  0
   20.5268   17.6263   22.9926 C   0  0  0  0  0  0  0  0  0  0  0  0
   21.0049   17.6798   22.0082 H   0  0  0  0  0  0  0  0  0  0  0  0
   20.6707   16.5884   23.3200 H   0  0  0  0  0  0  0  0  0  0  0  0
   19.0053   17.8652   22.8568 C   0  0  0  0  0  0  0  0  0  0  0  0
   18.5245   17.4676   23.7621 H   0  0  0  0  0  0  0  0  0  0  0  0
   18.5458   19.3384   22.7058 C   0  0  0  0  0  0  0  0  0  0  0  0
   17.4773   19.3165   22.4525 H   0  0  0  0  0  0  0  0  0  0  0  0
   18.5859   19.8453   23.6774 H   0  0  0  0  0  0  0  0  0  0  0  0
   19.2742   20.1964   21.6370 C   0  0  0  0  0  0  0  0  0  0  0  0
   18.5446   20.9317   21.2707 H   0  0  0  0  0  0  0  0  0  0  0  0
   19.5418   19.5939   20.7594 H   0  0  0  0  0  0  0  0  0  0  0  0
   20.4984   21.0008   22.1548 C   0  0  0  0  0  0  0  0  0  0  0  0
   20.3209   21.3867   23.1676 H   0  0  0  0  0  0  0  0  0  0  0  0
   20.5875   21.8905   21.5164 H   0  0  0  0  0  0  0  0  0  0  0  0
   18.5396   17.1307   21.7334 O   0  0  0  0  0  0  0  0  0  0  0  0
   18.9155   17.5762   20.9477 H   0  0  0  0  0  0  0  0  0  0  0  0
  1  2  1  0  0  0  0
  1  3  1  0  0  0  0
  1  4  1  0  0  0  0
  4  5  1  0  0  0  0
  4  6  1  0  0  0  0
  4  7  1  0  0  0  0
  7  8  1  0  0  0  0
  7  9  1  0  0  0  0
  7 10  1  0  0  0  0
 10 11  1  0  0  0  0
 10 12  1  0  0  0  0
 10 13  1  0  0  0  0
 13 14  1  0  0  0  0
 13 15  1  0  0  0  0
 15 16  1  0  0  0  0
 15 17  1  0  0  0  0
 15 18  1  0  0  0  0
 18 19  1  0  0  0  0
 18 20  1  0  0  0  0
  1 21  1  0  0  0  0
 18 21  1  0  0  0  0
 21 22  1  0  0  0  0
 21 23  1  0  0  0  0
 13 24  1  0  0  0  0
 24 25  1  0  0  0  0
M  END
> <VConfSearch Rank>
722

> <Conf_Id>
115

> <Delta U+W>
0.038

> <U+W>
10.952

> <U>
12.526

> <W>
-1.575

> <W(PB)>
-3.698

> <W(SA)>
2.123

> <Valence>
19.016

> <Coulomb>
-9.226

> <VdW>
2.737

> <VdW6>
-12.612

> <VdW12>
15.349

> <Bond>
0.421

> <Angle>
4.883

> <Pdih>
13.711

> <Idih>
0.000

> <Tether>
0.000

$$$$
VeraChem MOL file


 25 25  0  0  0  0  0  0  0  0999 V2000     
   21.5823   20.0449   21.1121 C   0  0  0  0  0  0  0  0  0  0  0  0
   21.9859   20.8562   20.4909 H   0  0  0  0  0  0  0  0  0  0  0  0
   22.2363   19.1815   20.9295 H   0  0  0  0  0  0  0  0  0  0  0  0
   20.1525   19.7445   20.6052 C   0  0  0  0  0  0  0  0  0  0  0  0
   19.5302   20.6470   20.6750 H   0  0  0  0  0  0  0  0  0  0  0  0
   20.2251   19.5185   19.5325 H   0  0  0  0  0  0  0  0  0  0  0  0
   19.4467   18.5544   21.2955 C   0  0  0  0  0  0  0  0  0  0  0  0
   20.1506   17.7233   21.4365 H   0  0  0  0  0  0  0  0  0  0  0  0
   18.6848   18.1760   20.6002 H   0  0  0  0  0  0  0  0  0  0  0  0
   18.7271   18.9202   22.6215 C   0  0  0  0  0  0  0  0  0  0  0  0
   18.6326   20.0071   22.7372 H   0  0  0  0  0  0  0  0  0  0  0  0
   17.6978   18.5434   22.5500 H   0  0  0  0  0  0  0  0  0  0  0  0
   19.3692   18.3082   23.8868 C   0  0  0  0  0  0  0  0  0  0  0  0
   19.7520   17.3069   23.6428 H   0  0  0  0  0  0  0  0  0  0  0  0
   20.5127   19.1472   24.4991 C   0  0  0  0  0  0  0  0  0  0  0  0
   20.1328   20.1306   24.8059 H   0  0  0  0  0  0  0  0  0  0  0  0
   20.8308   18.6482   25.4239 H   0  0  0  0  0  0  0  0  0  0  0  0
   21.7653   19.3154   23.6052 C   0  0  0  0  0  0  0  0  0  0  0  0
   22.0080   18.3686   23.1043 H   0  0  0  0  0  0  0  0  0  0  0  0
   22.6162   19.5188   24.2699 H   0  0  0  0  0  0  0  0  0  0  0  0
   21.6793   20.4862   22.5914 C   0  0  0  0  0  0  0  0  0  0  0  0
   22.5986   21.0788   22.6955 H   0  0  0  0  0  0  0  0  0  0  0  0
   20.8608   21.1747   22.8404 H   0  0  0  0  0  0  0  0  0  0  0  0
   18.3557   18.1803   24.8769 O   0  0  0  0  0  0  0  0  0  0  0  0
   18.7687   17.7422   25.6500 H   0  0  0  0  0  0  0  0  0  0  0  0
  1  2  1  0  0  0  0
  1  3  1  0  0  0  0
  1  4  1  0  0  0  0
  4  5  1  0  0  0  0
  4  6  1  0  0  0  0
  4  7  1  0  0  0  0
  7  8  1  0  0  0  0
  7  9  1  0  0  0  0
  7 10  1  0  0  0  0
 10 11  1  0  0  0  0
 10 12  1  0  0  0  0
 10 13  1  0  0  0  0
 13 14  1  0  0  0  0
 13 15  1  0  0  0  0
 15 16  1  0  0  0  0
 15 17  1  0  0  0  0
 15 18  1  0  0  0  0
 18 19  1  0  0  0  0
 18 20  1  0  0  0  0
  1 21  1  0  0  0  0
 18 21  1  0  0  0  0
 21 22  1  0  0  0  0
 21 23  1  0  0  0  0
 13 24  1  0  0  0  0
 24 25  1  0  0  0  0
M  END
> <VConfSearch Rank>
723

> <Conf_Id>
30

> <Delta U+W>
0.000

> <U+W>
10.913

> <U>
13.140

> <W>
-2.227

> <W(PB)>
-4.367

> <W(SA)>
2.140

> <Valence>
19.155

> <Coulomb>
-8.157

> <VdW>
2.142

> <VdW6>
-11.576

> <VdW12>
13.718

> <Bond>
0.294

> <Angle>
3.547

> <Pdih>
15.314

> <Idih>
0.000

> <Tether>
0.000

$$$$
VeraChem MOL file


 25 25  0  0  0  0  0  0  0  0999 V2000     
   22.1109   18.8205   23.7032 C   0  0  0  0  0  0  0  0  0  0  0  0
   23.1721   18.9524   23.4513 H   0  0  0  0  0  0  0  0  0  0  0  0
   22.0981   18.3167   24.6793 H   0  0  0  0  0  0  0  0  0  0  0  0
   21.4726   17.8714   22.6593 C   0  0  0  0  0  0  0  0  0  0  0  0
   22.1674   17.0372   22.4911 H   0  0  0  0  0  0  0  0  0  0  0  0
   20.5773   17.4041   23.0855 H   0  0  0  0  0  0  0  0  0  0  0  0
   21.1593   18.5370   21.2953 C   0  0  0  0  0  0  0  0  0  0  0  0
   21.6590   17.9660   20.5010 H   0  0  0  0  0  0  0  0  0  0  0  0
   21.5979   19.5400   21.2369 H   0  0  0  0  0  0  0  0  0  0  0  0
   19.6483   18.6072   20.9584 C   0  0  0  0  0  0  0  0  0  0  0  0
   19.5186   19.2536   20.0803 H   0  0  0  0  0  0  0  0  0  0  0  0
   19.3148   17.6081   20.6489 H   0  0  0  0  0  0  0  0  0  0  0  0
   18.7016   19.0903   22.0856 C   0  0  0  0  0  0  0  0  0  0  0  0
   18.6327   18.3125   22.8578 H   0  0  0  0  0  0  0  0  0  0  0  0
   19.1092   20.4228   22.7604 C   0  0  0  0  0  0  0  0  0  0  0  0
   19.6222   21.0735   22.0407 H   0  0  0  0  0  0  0  0  0  0  0  0
   18.1920   20.9608   23.0352 H   0  0  0  0  0  0  0  0  0  0  0  0
   19.9447   20.2695   24.0628 C   0  0  0  0  0  0  0  0  0  0  0  0
   19.6077   19.4061   24.6522 H   0  0  0  0  0  0  0  0  0  0  0  0
   19.7292   21.1489   24.6852 H   0  0  0  0  0  0  0  0  0  0  0  0
   21.4793   20.2297   23.8576 C   0  0  0  0  0  0  0  0  0  0  0  0
   21.9489   20.6958   24.7346 H   0  0  0  0  0  0  0  0  0  0  0  0
   21.7615   20.8737   23.0151 H   0  0  0  0  0  0  0  0  0  0  0  0
   17.4115   19.2550   21.5087 O   0  0  0  0  0  0  0  0  0  0  0  0
   16.8016   19.4825   22.2413 H   0  0  0  0  0  0  0  0  0  0  0  0
  1  2  1  0  0  0  0
  1  3  1  0  0  0  0
  1  4  1  0  0  0  0
  4  5  1  0  0  0  0
  4  6  1  0  0  0  0
  4  7  1  0  0  0  0
  7  8  1  0  0  0  0
  7  9  1  0  0  0  0
  7 10  1  0  0  0  0
 10 11  1  0  0  0  0
 10 12  1  0  0  0  0
 10 13  1  0  0  0  0
 13 14  1  0  0  0  0
 13 15  1  0  0  0  0
 15 16  1  0  0  0  0
 15 17  1  0  0  0  0
 15 18  1  0  0  0  0
 18 19  1  0  0  0  0
 18 20  1  0  0  0  0
  1 21  1  0  0  0  0
 18 21  1  0  0  0  0
 21 22  1  0  0  0  0
 21 23  1  0  0  0  0
 13 24  1  0  0  0  0
 24 25  1  0  0  0  0
M  END
> <VConfSearch Rank>
724

> <Conf_Id>
162

> <Delta U+W>
0.219

> <U+W>
11.132

> <U>
13.296

> <W>
-2.164

> <W(PB)>
-4.311

> <W(SA)>
2.148

> <Valence>
18.607

> <Coulomb>
-8.339

> <VdW>
3.028

> <VdW6>
-12.271

> <VdW12>
15.299

> <Bond>
0.423

> <Angle>
4.488

> <Pdih>
13.696

> <Idih>
0.000

> <Tether>
0.000

$$$$
VeraChem MOL file


 25 25  0  0  0  0  0  0  0  0999 V2000     
   19.2992   20.7316   23.4815 C   0  0  0  0  0  0  0  0  0  0  0  0
   19.4842   21.2977   22.5598 H   0  0  0  0  0  0  0  0  0  0  0  0
   18.6625   21.3883   24.0900 H   0  0  0  0  0  0  0  0  0  0  0  0
   18.4935   19.4480   23.1607 C   0  0  0  0  0  0  0  0  0  0  0  0
   18.6003   18.7092   23.9663 H   0  0  0  0  0  0  0  0  0  0  0  0
   17.4315   19.7296   23.1638 H   0  0  0  0  0  0  0  0  0  0  0  0
   18.7864   18.8121   21.7732 C   0  0  0  0  0  0  0  0  0  0  0  0
   18.9605   19.5841   21.0116 H   0  0  0  0  0  0  0  0  0  0  0  0
   17.8677   18.2973   21.4599 H   0  0  0  0  0  0  0  0  0  0  0  0
   19.9208   17.7547   21.7562 C   0  0  0  0  0  0  0  0  0  0  0  0
   19.9323   17.2030   22.7043 H   0  0  0  0  0  0  0  0  0  0  0  0
   19.6683   17.0043   20.9957 H   0  0  0  0  0  0  0  0  0  0  0  0
   21.3396   18.2731   21.4105 C   0  0  0  0  0  0  0  0  0  0  0  0
   21.3495   18.5405   20.3439 H   0  0  0  0  0  0  0  0  0  0  0  0
   21.8277   19.5114   22.1995 C   0  0  0  0  0  0  0  0  0  0  0  0
   22.9022   19.6411   22.0166 H   0  0  0  0  0  0  0  0  0  0  0  0
   21.3683   20.4091   21.7720 H   0  0  0  0  0  0  0  0  0  0  0  0
   21.5874   19.4424   23.7308 C   0  0  0  0  0  0  0  0  0  0  0  0
   22.5512   19.5564   24.2450 H   0  0  0  0  0  0  0  0  0  0  0  0
   21.2293   18.4492   24.0265 H   0  0  0  0  0  0  0  0  0  0  0  0
   20.6196   20.5235   24.2698 C   0  0  0  0  0  0  0  0  0  0  0  0
   21.1503   21.4845   24.3066 H   0  0  0  0  0  0  0  0  0  0  0  0
   20.3756   20.2770   25.3121 H   0  0  0  0  0  0  0  0  0  0  0  0
   22.2566   17.2072   21.6275 O   0  0  0  0  0  0  0  0  0  0  0  0
   23.1464   17.5519   21.4072 H   0  0  0  0  0  0  0  0  0  0  0  0
  1  2  1  0  0  0  0
  1  3  1  0  0  0  0
  1  4  1  0  0  0  0
  4  5  1  0  0  0  0
  4  6  1  0  0  0  0
  4  7  1  0  0  0  0
  7  8  1  0  0  0  0
  7  9  1  0  0  0  0
  7 10  1  0  0  0  0
 10 11  1  0  0  0  0
 10 12  1  0  0  0  0
 10 13  1  0  0  0  0
 13 14  1  0  0  0  0
 13 15  1  0  0  0  0
 15 16  1  0  0  0  0
 15 17  1  0  0  0  0
 15 18  1  0  0  0  0
 18 19  1  0  0  0  0
 18 20  1  0  0  0  0
  1 21  1  0  0  0  0
 18 21  1  0  0  0  0
 21 22  1  0  0  0  0
 21 23  1  0  0  0  0
 13 24  1  0  0  0  0
 24 25  1  0  0  0  0
M  END
> <VConfSearch Rank>
725

> <Conf_Id>
155

> <Delta U+W>
0.339

> <U+W>
11.252

> <U>
13.420

> <W>
-2.167

> <W(PB)>
-4.325

> <W(SA)>
2.157

> <Valence>
18.609

> <Coulomb>
-8.052

> <VdW>
2.863

> <VdW6>
-12.524

> <VdW12>
15.387

> <Bond>
0.430

> <Angle>
4.724

> <Pdih>
13.455

> <Idih>
0.000

> <Tether>
0.000

$$$$
VeraChem MOL file


 25 25  0  0  0  0  0  0  0  0999 V2000     
   22.0739   18.1940   22.7598 C   0  0  0  0  0  0  0  0  0  0  0  0
   22.4088   17.7871   21.7961 H   0  0  0  0  0  0  0  0  0  0  0  0
   22.8444   17.8992   23.4851 H   0  0  0  0  0  0  0  0  0  0  0  0
   22.0873   19.7438   22.6925 C   0  0  0  0  0  0  0  0  0  0  0  0
   21.8674   20.1506   23.6847 H   0  0  0  0  0  0  0  0  0  0  0  0
   23.1236   20.0590   22.5097 H   0  0  0  0  0  0  0  0  0  0  0  0
   21.2040   20.4251   21.6067 C   0  0  0  0  0  0  0  0  0  0  0  0
   21.7954   20.4698   20.6822 H   0  0  0  0  0  0  0  0  0  0  0  0
   21.0293   21.4707   21.8945 H   0  0  0  0  0  0  0  0  0  0  0  0
   19.8463   19.7635   21.2453 C   0  0  0  0  0  0  0  0  0  0  0  0
   19.4422   20.2980   20.3756 H   0  0  0  0  0  0  0  0  0  0  0  0
   20.0288   18.7581   20.8559 H   0  0  0  0  0  0  0  0  0  0  0  0
   18.7382   19.7264   22.3385 C   0  0  0  0  0  0  0  0  0  0  0  0
   18.0532   18.9021   22.0933 H   0  0  0  0  0  0  0  0  0  0  0  0
   19.1856   19.5512   23.8115 C   0  0  0  0  0  0  0  0  0  0  0  0
   19.8188   20.3967   24.0955 H   0  0  0  0  0  0  0  0  0  0  0  0
   18.2954   19.6710   24.4431 H   0  0  0  0  0  0  0  0  0  0  0  0
   19.8499   18.2008   24.2156 C   0  0  0  0  0  0  0  0  0  0  0  0
   19.0429   17.5019   24.4745 H   0  0  0  0  0  0  0  0  0  0  0  0
   20.4181   18.3484   25.1438 H   0  0  0  0  0  0  0  0  0  0  0  0
   20.7506   17.4860   23.1742 C   0  0  0  0  0  0  0  0  0  0  0  0
   20.1540   17.2290   22.2933 H   0  0  0  0  0  0  0  0  0  0  0  0
   21.0261   16.5075   23.5909 H   0  0  0  0  0  0  0  0  0  0  0  0
   18.0153   20.9506   22.2684 O   0  0  0  0  0  0  0  0  0  0  0  0
   17.6892   21.0344   21.3487 H   0  0  0  0  0  0  0  0  0  0  0  0
  1  2  1  0  0  0  0
  1  3  1  0  0  0  0
  1  4  1  0  0  0  0
  4  5  1  0  0  0  0
  4  6  1  0  0  0  0
  4  7  1  0  0  0  0
  7  8  1  0  0  0  0
  7  9  1  0  0  0  0
  7 10  1  0  0  0  0
 10 11  1  0  0  0  0
 10 12  1  0  0  0  0
 10 13  1  0  0  0  0
 13 14  1  0  0  0  0
 13 15  1  0  0  0  0
 15 16  1  0  0  0  0
 15 17  1  0  0  0  0
 15 18  1  0  0  0  0
 18 19  1  0  0  0  0
 18 20  1  0  0  0  0
  1 21  1  0  0  0  0
 18 21  1  0  0  0  0
 21 22  1  0  0  0  0
 21 23  1  0  0  0  0
 13 24  1  0  0  0  0
 24 25  1  0  0  0  0
M  END
> <VConfSearch Rank>
726

> <Conf_Id>
146

> <Delta U+W>
2.553

> <U+W>
13.466

> <U>
15.643

> <W>
-2.176

> <W(PB)>
-4.307

> <W(SA)>
2.131

> <Valence>
18.916

> <Coulomb>
-7.506

> <VdW>
4.232

> <VdW6>
-13.632

> <VdW12>
17.864

> <Bond>
0.735

> <Angle>
9.140

> <Pdih>
9.042

> <Idih>
0.000

> <Tether>
0.000

$$$$
VeraChem MOL file


 25 25  0  0  0  0  0  0  0  0999 V2000     
   22.3509   19.6437   22.7383 C   0  0  0  0  0  0  0  0  0  0  0  0
   23.1102   18.8541   22.6580 H   0  0  0  0  0  0  0  0  0  0  0  0
   22.9104   20.5816   22.8577 H   0  0  0  0  0  0  0  0  0  0  0  0
   21.5257   19.4298   24.0320 C   0  0  0  0  0  0  0  0  0  0  0  0
   22.2242   19.4910   24.8777 H   0  0  0  0  0  0  0  0  0  0  0  0
   20.8336   20.2657   24.1853 H   0  0  0  0  0  0  0  0  0  0  0  0
   20.7794   18.0772   24.1495 C   0  0  0  0  0  0  0  0  0  0  0  0
   20.3437   18.0264   25.1567 H   0  0  0  0  0  0  0  0  0  0  0  0
   21.5064   17.2555   24.0977 H   0  0  0  0  0  0  0  0  0  0  0  0
   19.6437   17.8098   23.1275 C   0  0  0  0  0  0  0  0  0  0  0  0
   20.0602   17.4484   22.1820 H   0  0  0  0  0  0  0  0  0  0  0  0
   19.0579   16.9631   23.5103 H   0  0  0  0  0  0  0  0  0  0  0  0
   18.6936   19.0079   22.8707 C   0  0  0  0  0  0  0  0  0  0  0  0
   18.7643   19.7192   23.7046 H   0  0  0  0  0  0  0  0  0  0  0  0
   18.9581   19.7522   21.5374 C   0  0  0  0  0  0  0  0  0  0  0  0
   18.9195   19.0325   20.7090 H   0  0  0  0  0  0  0  0  0  0  0  0
   18.1253   20.4467   21.3659 H   0  0  0  0  0  0  0  0  0  0  0  0
   20.2718   20.5748   21.4413 C   0  0  0  0  0  0  0  0  0  0  0  0
   20.3178   21.3300   22.2365 H   0  0  0  0  0  0  0  0  0  0  0  0
   20.2235   21.1474   20.5050 H   0  0  0  0  0  0  0  0  0  0  0  0
   21.5694   19.7268   21.4016 C   0  0  0  0  0  0  0  0  0  0  0  0
   22.2462   20.1727   20.6599 H   0  0  0  0  0  0  0  0  0  0  0  0
   21.3619   18.7236   21.0124 H   0  0  0  0  0  0  0  0  0  0  0  0
   17.3605   18.5121   22.8213 O   0  0  0  0  0  0  0  0  0  0  0  0
   16.7729   19.2894   22.7178 H   0  0  0  0  0  0  0  0  0  0  0  0
  1  2  1  0  0  0  0
  1  3  1  0  0  0  0
  1  4  1  0  0  0  0
  4  5  1  0  0  0  0
  4  6  1  0  0  0  0
  4  7  1  0  0  0  0
  7  8  1  0  0  0  0
  7  9  1  0  0  0  0
  7 10  1  0  0  0  0
 10 11  1  0  0  0  0
 10 12  1  0  0  0  0
 10 13  1  0  0  0  0
 13 14  1  0  0  0  0
 13 15  1  0  0  0  0
 15 16  1  0  0  0  0
 15 17  1  0  0  0  0
 15 18  1  0  0  0  0
 18 19  1  0  0  0  0
 18 20  1  0  0  0  0
  1 21  1  0  0  0  0
 18 21  1  0  0  0  0
 21 22  1  0  0  0  0
 21 23  1  0  0  0  0
 13 24  1  0  0  0  0
 24 25  1  0  0  0  0
M  END
> <VConfSearch Rank>
727

> <Conf_Id>
62

> <Delta U+W>
-1.779

> <U+W>
9.134

> <U>
11.364

> <W>
-2.230

> <W(PB)>
-4.359

> <W(SA)>
2.129

> <Valence>
16.582

> <Coulomb>
-8.150

> <VdW>
2.933

> <VdW6>
-12.531

> <VdW12>
15.464

> <Bond>
0.439

> <Angle>
5.099

> <Pdih>
11.044

> <Idih>
0.000

> <Tether>
0.000

$$$$
VeraChem MOL file


 25 25  0  0  0  0  0  0  0  0999 V2000     
   19.6579   20.6374   23.6232 C   0  0  0  0  0  0  0  0  0  0  0  0
   19.9585   21.0728   22.6634 H   0  0  0  0  0  0  0  0  0  0  0  0
   19.2568   21.4837   24.1972 H   0  0  0  0  0  0  0  0  0  0  0  0
   20.8969   20.1086   24.3881 C   0  0  0  0  0  0  0  0  0  0  0  0
   21.5700   20.9610   24.5531 H   0  0  0  0  0  0  0  0  0  0  0  0
   20.5903   19.7745   25.3885 H   0  0  0  0  0  0  0  0  0  0  0  0
   21.7173   18.9813   23.7108 C   0  0  0  0  0  0  0  0  0  0  0  0
   21.2614   18.0038   23.9048 H   0  0  0  0  0  0  0  0  0  0  0  0
   22.6892   18.9370   24.2212 H   0  0  0  0  0  0  0  0  0  0  0  0
   21.9755   19.1700   22.1919 C   0  0  0  0  0  0  0  0  0  0  0  0
   21.9183   20.2287   21.9105 H   0  0  0  0  0  0  0  0  0  0  0  0
   23.0159   18.8759   22.0010 H   0  0  0  0  0  0  0  0  0  0  0  0
   21.0763   18.3128   21.2657 C   0  0  0  0  0  0  0  0  0  0  0  0
   21.1551   17.2633   21.5840 H   0  0  0  0  0  0  0  0  0  0  0  0
   19.5746   18.6908   21.2214 C   0  0  0  0  0  0  0  0  0  0  0  0
   19.4500   19.7350   20.9101 H   0  0  0  0  0  0  0  0  0  0  0  0
   19.1184   18.0947   20.4199 H   0  0  0  0  0  0  0  0  0  0  0  0
   18.7850   18.3960   22.5249 C   0  0  0  0  0  0  0  0  0  0  0  0
   19.2789   17.6068   23.1031 H   0  0  0  0  0  0  0  0  0  0  0  0
   17.8132   17.9655   22.2470 H   0  0  0  0  0  0  0  0  0  0  0  0
   18.4996   19.6292   23.4197 C   0  0  0  0  0  0  0  0  0  0  0  0
   18.1425   19.2839   24.3994 H   0  0  0  0  0  0  0  0  0  0  0  0
   17.6594   20.1794   22.9745 H   0  0  0  0  0  0  0  0  0  0  0  0
   21.5855   18.4280   19.9428 O   0  0  0  0  0  0  0  0  0  0  0  0
   22.5158   18.1217   19.9698 H   0  0  0  0  0  0  0  0  0  0  0  0
  1  2  1  0  0  0  0
  1  3  1  0  0  0  0
  1  4  1  0  0  0  0
  4  5  1  0  0  0  0
  4  6  1  0  0  0  0
  4  7  1  0  0  0  0
  7  8  1  0  0  0  0
  7  9  1  0  0  0  0
  7 10  1  0  0  0  0
 10 11  1  0  0  0  0
 10 12  1  0  0  0  0
 10 13  1  0  0  0  0
 13 14  1  0  0  0  0
 13 15  1  0  0  0  0
 15 16  1  0  0  0  0
 15 17  1  0  0  0  0
 15 18  1  0  0  0  0
 18 19  1  0  0  0  0
 18 20  1  0  0  0  0
  1 21  1  0  0  0  0
 18 21  1  0  0  0  0
 21 22  1  0  0  0  0
 21 23  1  0  0  0  0
 13 24  1  0  0  0  0
 24 25  1  0  0  0  0
M  END
> <VConfSearch Rank>
728

> <Conf_Id>
121

> <Delta U+W>
-1.283

> <U+W>
9.630

> <U>
11.876

> <W>
-2.246

> <W(PB)>
-4.376

> <W(SA)>
2.130

> <Valence>
17.153

> <Coulomb>
-7.966

> <VdW>
2.689

> <VdW6>
-12.458

> <VdW12>
15.147

> <Bond>
0.421

> <Angle>
5.258

> <Pdih>
11.475

> <Idih>
0.000

> <Tether>
0.000

$$$$
VeraChem MOL file


 25 25  0  0  0  0  0  0  0  0999 V2000     
   19.0291   20.5827   22.6674 C   0  0  0  0  0  0  0  0  0  0  0  0
   19.9342   21.1029   23.0012 H   0  0  0  0  0  0  0  0  0  0  0  0
   18.2547   21.3615   22.6458 H   0  0  0  0  0  0  0  0  0  0  0  0
   18.5935   19.5296   23.7167 C   0  0  0  0  0  0  0  0  0  0  0  0
   18.3977   20.0637   24.6566 H   0  0  0  0  0  0  0  0  0  0  0  0
   17.6306   19.0946   23.4164 H   0  0  0  0  0  0  0  0  0  0  0  0
   19.5903   18.3826   24.0227 C   0  0  0  0  0  0  0  0  0  0  0  0
   19.4954   17.5818   23.2807 H   0  0  0  0  0  0  0  0  0  0  0  0
   19.2723   17.9206   24.9674 H   0  0  0  0  0  0  0  0  0  0  0  0
   21.0738   18.8149   24.1703 C   0  0  0  0  0  0  0  0  0  0  0  0
   21.1525   19.8705   24.4570 H   0  0  0  0  0  0  0  0  0  0  0  0
   21.4960   18.2546   25.0151 H   0  0  0  0  0  0  0  0  0  0  0  0
   21.9679   18.5181   22.9404 C   0  0  0  0  0  0  0  0  0  0  0  0
   21.8568   17.4541   22.6863 H   0  0  0  0  0  0  0  0  0  0  0  0
   21.6862   19.3538   21.6662 C   0  0  0  0  0  0  0  0  0  0  0  0
   21.7798   20.4254   21.8811 H   0  0  0  0  0  0  0  0  0  0  0  0
   22.4854   19.1323   20.9468 H   0  0  0  0  0  0  0  0  0  0  0  0
   20.3378   19.0408   20.9641 C   0  0  0  0  0  0  0  0  0  0  0  0
   20.0007   18.0281   21.2128 H   0  0  0  0  0  0  0  0  0  0  0  0
   20.5136   19.0131   19.8800 H   0  0  0  0  0  0  0  0  0  0  0  0
   19.2054   20.0687   21.2168 C   0  0  0  0  0  0  0  0  0  0  0  0
   18.2550   19.6461   20.8636 H   0  0  0  0  0  0  0  0  0  0  0  0
   19.3968   20.9426   20.5792 H   0  0  0  0  0  0  0  0  0  0  0  0
   23.3162   18.7575   23.3242 O   0  0  0  0  0  0  0  0  0  0  0  0
   23.8770   18.5019   22.5624 H   0  0  0  0  0  0  0  0  0  0  0  0
  1  2  1  0  0  0  0
  1  3  1  0  0  0  0
  1  4  1  0  0  0  0
  4  5  1  0  0  0  0
  4  6  1  0  0  0  0
  4  7  1  0  0  0  0
  7  8  1  0  0  0  0
  7  9  1  0  0  0  0
  7 10  1  0  0  0  0
 10 11  1  0  0  0  0
 10 12  1  0  0  0  0
 10 13  1  0  0  0  0
 13 14  1  0  0  0  0
 13 15  1  0  0  0  0
 15 16  1  0  0  0  0
 15 17  1  0  0  0  0
 15 18  1  0  0  0  0
 18 19  1  0  0  0  0
 18 20  1  0  0  0  0
  1 21  1  0  0  0  0
 18 21  1  0  0  0  0
 21 22  1  0  0  0  0
 21 23  1  0  0  0  0
 13 24  1  0  0  0  0
 24 25  1  0  0  0  0
M  END
> <VConfSearch Rank>
729

> <Conf_Id>
24

> <Delta U+W>
-1.236

> <U+W>
9.678

> <U>
11.876

> <W>
-2.199

> <W(PB)>
-4.335

> <W(SA)>
2.137

> <Valence>
17.153

> <Coulomb>
-7.966

> <VdW>
2.689

> <VdW6>
-12.458

> <VdW12>
15.147

> <Bond>
0.421

> <Angle>
5.258

> <Pdih>
11.475

> <Idih>
0.000

> <Tether>
0.000

$$$$
VeraChem MOL file


 25 25  0  0  0  0  0  0  0  0999 V2000     
   19.2083   17.3876   23.1584 C   0  0  0  0  0  0  0  0  0  0  0  0
   19.1933   16.4993   22.5123 H   0  0  0  0  0  0  0  0  0  0  0  0
   18.5511   17.1496   24.0059 H   0  0  0  0  0  0  0  0  0  0  0  0
   20.6458   17.5834   23.7092 C   0  0  0  0  0  0  0  0  0  0  0  0
   20.6363   18.2371   24.5906 H   0  0  0  0  0  0  0  0  0  0  0  0
   20.9781   16.6075   24.0891 H   0  0  0  0  0  0  0  0  0  0  0  0
   21.7015   18.0822   22.6917 C   0  0  0  0  0  0  0  0  0  0  0  0
   21.5025   17.6744   21.6914 H   0  0  0  0  0  0  0  0  0  0  0  0
   22.6654   17.6510   22.9952 H   0  0  0  0  0  0  0  0  0  0  0  0
   21.8934   19.6245   22.6415 C   0  0  0  0  0  0  0  0  0  0  0  0
   21.7957   20.0629   23.6429 H   0  0  0  0  0  0  0  0  0  0  0  0
   22.9359   19.8008   22.3433 H   0  0  0  0  0  0  0  0  0  0  0  0
   20.9814   20.3648   21.6328 C   0  0  0  0  0  0  0  0  0  0  0  0
   20.7451   19.6794   20.8081 H   0  0  0  0  0  0  0  0  0  0  0  0
   19.6643   20.9320   22.2206 C   0  0  0  0  0  0  0  0  0  0  0  0
   19.8918   21.8000   22.8531 H   0  0  0  0  0  0  0  0  0  0  0  0
   19.0657   21.3164   21.3843 H   0  0  0  0  0  0  0  0  0  0  0  0
   18.7857   19.9537   23.0401 C   0  0  0  0  0  0  0  0  0  0  0  0
   17.8009   20.4189   23.1835 H   0  0  0  0  0  0  0  0  0  0  0  0
   19.1947   19.8482   24.0517 H   0  0  0  0  0  0  0  0  0  0  0  0
   18.5889   18.5692   22.3724 C   0  0  0  0  0  0  0  0  0  0  0  0
   18.9708   18.5683   21.3449 H   0  0  0  0  0  0  0  0  0  0  0  0
   17.5119   18.3794   22.2685 H   0  0  0  0  0  0  0  0  0  0  0  0
   21.7087   21.4611   21.0936 O   0  0  0  0  0  0  0  0  0  0  0  0
   21.9258   22.0471   21.8475 H   0  0  0  0  0  0  0  0  0  0  0  0
  1  2  1  0  0  0  0
  1  3  1  0  0  0  0
  1  4  1  0  0  0  0
  4  5  1  0  0  0  0
  4  6  1  0  0  0  0
  4  7  1  0  0  0  0
  7  8  1  0  0  0  0
  7  9  1  0  0  0  0
  7 10  1  0  0  0  0
 10 11  1  0  0  0  0
 10 12  1  0  0  0  0
 10 13  1  0  0  0  0
 13 14  1  0  0  0  0
 13 15  1  0  0  0  0
 15 16  1  0  0  0  0
 15 17  1  0  0  0  0
 15 18  1  0  0  0  0
 18 19  1  0  0  0  0
 18 20  1  0  0  0  0
  1 21  1  0  0  0  0
 18 21  1  0  0  0  0
 21 22  1  0  0  0  0
 21 23  1  0  0  0  0
 13 24  1  0  0  0  0
 24 25  1  0  0  0  0
M  END
> <VConfSearch Rank>
730

> <Conf_Id>
167

> <Delta U+W>
0.388

> <U+W>
11.301

> <U>
13.202

> <W>
-1.901

> <W(PB)>
-4.065

> <W(SA)>
2.163

> <Valence>
18.957

> <Coulomb>
-8.753

> <VdW>
2.998

> <VdW6>
-12.294

> <VdW12>
15.292

> <Bond>
0.419

> <Angle>
4.543

> <Pdih>
13.996

> <Idih>
0.000

> <Tether>
0.000

$$$$
VeraChem MOL file


 25 25  0  0  0  0  0  0  0  0999 V2000     
   21.6384   19.1271   21.0822 C   0  0  0  0  0  0  0  0  0  0  0  0
   21.3371   18.7235   20.1060 H   0  0  0  0  0  0  0  0  0  0  0  0
   22.6870   19.4333   20.9648 H   0  0  0  0  0  0  0  0  0  0  0  0
   21.5950   17.9865   22.1321 C   0  0  0  0  0  0  0  0  0  0  0  0
   20.7120   17.3553   21.9809 H   0  0  0  0  0  0  0  0  0  0  0  0
   22.4441   17.3221   21.9209 H   0  0  0  0  0  0  0  0  0  0  0  0
   21.6938   18.4384   23.6123 C   0  0  0  0  0  0  0  0  0  0  0  0
   22.2124   19.4021   23.6968 H   0  0  0  0  0  0  0  0  0  0  0  0
   22.3390   17.7189   24.1347 H   0  0  0  0  0  0  0  0  0  0  0  0
   20.3416   18.4715   24.3756 C   0  0  0  0  0  0  0  0  0  0  0  0
   19.8619   17.4862   24.3112 H   0  0  0  0  0  0  0  0  0  0  0  0
   20.5669   18.6221   25.4398 H   0  0  0  0  0  0  0  0  0  0  0  0
   19.3258   19.5616   23.9524 C   0  0  0  0  0  0  0  0  0  0  0  0
   19.8173   20.5431   23.9860 H   0  0  0  0  0  0  0  0  0  0  0  0
   18.7010   19.3350   22.5513 C   0  0  0  0  0  0  0  0  0  0  0  0
   18.7782   18.2797   22.2709 H   0  0  0  0  0  0  0  0  0  0  0  0
   17.6205   19.5258   22.5968 H   0  0  0  0  0  0  0  0  0  0  0  0
   19.2761   20.2319   21.4245 C   0  0  0  0  0  0  0  0  0  0  0  0
   18.8333   21.2318   21.5297 H   0  0  0  0  0  0  0  0  0  0  0  0
   18.9278   19.8526   20.4543 H   0  0  0  0  0  0  0  0  0  0  0  0
   20.8154   20.4048   21.3833 C   0  0  0  0  0  0  0  0  0  0  0  0
   21.1745   20.8811   22.3027 H   0  0  0  0  0  0  0  0  0  0  0  0
   21.0401   21.1312   20.5904 H   0  0  0  0  0  0  0  0  0  0  0  0
   18.2766   19.5585   24.9133 O   0  0  0  0  0  0  0  0  0  0  0  0
   17.6763   20.2958   24.6759 H   0  0  0  0  0  0  0  0  0  0  0  0
  1  2  1  0  0  0  0
  1  3  1  0  0  0  0
  1  4  1  0  0  0  0
  4  5  1  0  0  0  0
  4  6  1  0  0  0  0
  4  7  1  0  0  0  0
  7  8  1  0  0  0  0
  7  9  1  0  0  0  0
  7 10  1  0  0  0  0
 10 11  1  0  0  0  0
 10 12  1  0  0  0  0
 10 13  1  0  0  0  0
 13 14  1  0  0  0  0
 13 15  1  0  0  0  0
 15 16  1  0  0  0  0
 15 17  1  0  0  0  0
 15 18  1  0  0  0  0
 18 19  1  0  0  0  0
 18 20  1  0  0  0  0
  1 21  1  0  0  0  0
 18 21  1  0  0  0  0
 21 22  1  0  0  0  0
 21 23  1  0  0  0  0
 13 24  1  0  0  0  0
 24 25  1  0  0  0  0
M  END
> <VConfSearch Rank>
731

> <Conf_Id>
60

> <Delta U+W>
-1.838

> <U+W>
9.075

> <U>
11.150

> <W>
-2.074

> <W(PB)>
-4.196

> <W(SA)>
2.121

> <Valence>
16.582

> <Coulomb>
-8.361

> <VdW>
2.928

> <VdW6>
-12.539

> <VdW12>
15.467

> <Bond>
0.441

> <Angle>
5.093

> <Pdih>
11.049

> <Idih>
0.000

> <Tether>
0.000

$$$$
VeraChem MOL file


 25 25  0  0  0  0  0  0  0  0999 V2000     
   22.2377   19.9466   22.5250 C   0  0  0  0  0  0  0  0  0  0  0  0
   22.9954   19.4779   21.8826 H   0  0  0  0  0  0  0  0  0  0  0  0
   22.7467   20.7856   23.0190 H   0  0  0  0  0  0  0  0  0  0  0  0
   21.8159   18.9469   23.6311 C   0  0  0  0  0  0  0  0  0  0  0  0
   22.7144   18.7131   24.2184 H   0  0  0  0  0  0  0  0  0  0  0  0
   21.1394   19.4315   24.3443 H   0  0  0  0  0  0  0  0  0  0  0  0
   21.2221   17.6009   23.1450 C   0  0  0  0  0  0  0  0  0  0  0  0
   21.0835   16.9620   24.0279 H   0  0  0  0  0  0  0  0  0  0  0  0
   21.9606   17.0846   22.5168 H   0  0  0  0  0  0  0  0  0  0  0  0
   19.8716   17.6636   22.3854 C   0  0  0  0  0  0  0  0  0  0  0  0
   20.0397   17.9295   21.3368 H   0  0  0  0  0  0  0  0  0  0  0  0
   19.4747   16.6404   22.3461 H   0  0  0  0  0  0  0  0  0  0  0  0
   18.8110   18.6061   23.0111 C   0  0  0  0  0  0  0  0  0  0  0  0
   19.0623   18.8029   24.0620 H   0  0  0  0  0  0  0  0  0  0  0  0
   18.6471   19.9554   22.2682 C   0  0  0  0  0  0  0  0  0  0  0  0
   18.4282   19.7609   21.2102 H   0  0  0  0  0  0  0  0  0  0  0  0
   17.7523   20.4495   22.6696 H   0  0  0  0  0  0  0  0  0  0  0  0
   19.8244   20.9627   22.3753 C   0  0  0  0  0  0  0  0  0  0  0  0
   20.0356   21.2047   23.4249 H   0  0  0  0  0  0  0  0  0  0  0  0
   19.4812   21.9053   21.9273 H   0  0  0  0  0  0  0  0  0  0  0  0
   21.1161   20.5361   21.6307 C   0  0  0  0  0  0  0  0  0  0  0  0
   21.5328   21.4235   21.1349 H   0  0  0  0  0  0  0  0  0  0  0  0
   20.8779   19.8521   20.8084 H   0  0  0  0  0  0  0  0  0  0  0  0
   17.5512   17.9461   22.9730 O   0  0  0  0  0  0  0  0  0  0  0  0
   17.6469   17.1278   23.5037 H   0  0  0  0  0  0  0  0  0  0  0  0
  1  2  1  0  0  0  0
  1  3  1  0  0  0  0
  1  4  1  0  0  0  0
  4  5  1  0  0  0  0
  4  6  1  0  0  0  0
  4  7  1  0  0  0  0
  7  8  1  0  0  0  0
  7  9  1  0  0  0  0
  7 10  1  0  0  0  0
 10 11  1  0  0  0  0
 10 12  1  0  0  0  0
 10 13  1  0  0  0  0
 13 14  1  0  0  0  0
 13 15  1  0  0  0  0
 15 16  1  0  0  0  0
 15 17  1  0  0  0  0
 15 18  1  0  0  0  0
 18 19  1  0  0  0  0
 18 20  1  0  0  0  0
  1 21  1  0  0  0  0
 18 21  1  0  0  0  0
 21 22  1  0  0  0  0
 21 23  1  0  0  0  0
 13 24  1  0  0  0  0
 24 25  1  0  0  0  0
M  END
> <VConfSearch Rank>
732

> <Conf_Id>
129

> <Delta U+W>
-1.846

> <U+W>
9.067

> <U>
11.150

> <W>
-2.083

> <W(PB)>
-4.217

> <W(SA)>
2.134

> <Valence>
16.583

> <Coulomb>
-8.361

> <VdW>
2.928

> <VdW6>
-12.539

> <VdW12>
15.467

> <Bond>
0.441

> <Angle>
5.093

> <Pdih>
11.049

> <Idih>
0.000

> <Tether>
0.000

$$$$
VeraChem MOL file


 25 25  0  0  0  0  0  0  0  0999 V2000     
   20.4867   17.3057   23.3939 C   0  0  0  0  0  0  0  0  0  0  0  0
   20.7111   17.1376   24.4559 H   0  0  0  0  0  0  0  0  0  0  0  0
   20.4208   16.3060   22.9433 H   0  0  0  0  0  0  0  0  0  0  0  0
   21.6804   18.0349   22.7280 C   0  0  0  0  0  0  0  0  0  0  0  0
   22.5578   17.3815   22.8277 H   0  0  0  0  0  0  0  0  0  0  0  0
   21.5211   18.1189   21.6469 H   0  0  0  0  0  0  0  0  0  0  0  0
   22.0618   19.4107   23.3299 C   0  0  0  0  0  0  0  0  0  0  0  0
   22.9851   19.7429   22.8357 H   0  0  0  0  0  0  0  0  0  0  0  0
   22.3204   19.2840   24.3899 H   0  0  0  0  0  0  0  0  0  0  0  0
   21.0174   20.5497   23.1988 C   0  0  0  0  0  0  0  0  0  0  0  0
   20.2612   20.4610   23.9855 H   0  0  0  0  0  0  0  0  0  0  0  0
   21.5401   21.4897   23.4217 H   0  0  0  0  0  0  0  0  0  0  0  0
   20.3374   20.6600   21.8096 C   0  0  0  0  0  0  0  0  0  0  0  0
   20.9534   20.1535   21.0547 H   0  0  0  0  0  0  0  0  0  0  0  0
   18.8970   20.0911   21.7587 C   0  0  0  0  0  0  0  0  0  0  0  0
   18.2858   20.5736   22.5325 H   0  0  0  0  0  0  0  0  0  0  0  0
   18.4540   20.3905   20.7993 H   0  0  0  0  0  0  0  0  0  0  0  0
   18.7471   18.5502   21.8781 C   0  0  0  0  0  0  0  0  0  0  0  0
   19.3145   18.0412   21.0883 H   0  0  0  0  0  0  0  0  0  0  0  0
   17.6943   18.3136   21.6722 H   0  0  0  0  0  0  0  0  0  0  0  0
   19.0906   17.9701   23.2745 C   0  0  0  0  0  0  0  0  0  0  0  0
   18.3455   17.2000   23.5170 H   0  0  0  0  0  0  0  0  0  0  0  0
   18.9576   18.7316   24.0512 H   0  0  0  0  0  0  0  0  0  0  0  0
   20.2601   22.0364   21.4608 O   0  0  0  0  0  0  0  0  0  0  0  0
   19.7041   22.4641   22.1441 H   0  0  0  0  0  0  0  0  0  0  0  0
  1  2  1  0  0  0  0
  1  3  1  0  0  0  0
  1  4  1  0  0  0  0
  4  5  1  0  0  0  0
  4  6  1  0  0  0  0
  4  7  1  0  0  0  0
  7  8  1  0  0  0  0
  7  9  1  0  0  0  0
  7 10  1  0  0  0  0
 10 11  1  0  0  0  0
 10 12  1  0  0  0  0
 10 13  1  0  0  0  0
 13 14  1  0  0  0  0
 13 15  1  0  0  0  0
 15 16  1  0  0  0  0
 15 17  1  0  0  0  0
 15 18  1  0  0  0  0
 18 19  1  0  0  0  0
 18 20  1  0  0  0  0
  1 21  1  0  0  0  0
 18 21  1  0  0  0  0
 21 22  1  0  0  0  0
 21 23  1  0  0  0  0
 13 24  1  0  0  0  0
 24 25  1  0  0  0  0
M  END
> <VConfSearch Rank>
733

> <Conf_Id>
140

> <Delta U+W>
-1.702

> <U+W>
9.211

> <U>
11.181

> <W>
-1.969

> <W(PB)>
-4.093

> <W(SA)>
2.124

> <Valence>
16.954

> <Coulomb>
-8.661

> <VdW>
2.887

> <VdW6>
-12.561

> <VdW12>
15.448

> <Bond>
0.433

> <Angle>
5.120

> <Pdih>
11.401

> <Idih>
0.000

> <Tether>
0.000

$$$$
VeraChem MOL file


 25 25  0  0  0  0  0  0  0  0999 V2000     
   21.8009   18.7428   21.3233 C   0  0  0  0  0  0  0  0  0  0  0  0
   22.6863   19.3887   21.2489 H   0  0  0  0  0  0  0  0  0  0  0  0
   21.9567   17.9412   20.5885 H   0  0  0  0  0  0  0  0  0  0  0  0
   20.5519   19.5498   20.8839 C   0  0  0  0  0  0  0  0  0  0  0  0
   20.5934   20.5712   21.2789 H   0  0  0  0  0  0  0  0  0  0  0  0
   20.6167   19.6759   19.7944 H   0  0  0  0  0  0  0  0  0  0  0  0
   19.1861   18.8934   21.2127 C   0  0  0  0  0  0  0  0  0  0  0  0
   19.2816   17.8031   21.2963 H   0  0  0  0  0  0  0  0  0  0  0  0
   18.5249   19.0577   20.3509 H   0  0  0  0  0  0  0  0  0  0  0  0
   18.4645   19.4804   22.4560 C   0  0  0  0  0  0  0  0  0  0  0  0
   18.3448   20.5638   22.3250 H   0  0  0  0  0  0  0  0  0  0  0  0
   17.4468   19.0677   22.4699 H   0  0  0  0  0  0  0  0  0  0  0  0
   19.1066   19.1954   23.8370 C   0  0  0  0  0  0  0  0  0  0  0  0
   19.2527   18.1131   23.9518 H   0  0  0  0  0  0  0  0  0  0  0  0
   20.4490   19.9327   24.0800 C   0  0  0  0  0  0  0  0  0  0  0  0
   20.5221   20.8114   23.4310 H   0  0  0  0  0  0  0  0  0  0  0  0
   20.4588   20.3401   25.1001 H   0  0  0  0  0  0  0  0  0  0  0  0
   21.7173   19.0523   23.9335 C   0  0  0  0  0  0  0  0  0  0  0  0
   21.8136   18.4474   24.8455 H   0  0  0  0  0  0  0  0  0  0  0  0
   22.6024   19.7025   23.9127 H   0  0  0  0  0  0  0  0  0  0  0  0
   21.7649   18.0840   22.7251 C   0  0  0  0  0  0  0  0  0  0  0  0
   20.9478   17.3558   22.7833 H   0  0  0  0  0  0  0  0  0  0  0  0
   22.6784   17.4823   22.8257 H   0  0  0  0  0  0  0  0  0  0  0  0
   18.1805   19.6204   24.8289 O   0  0  0  0  0  0  0  0  0  0  0  0
   18.0640   20.5846   24.7036 H   0  0  0  0  0  0  0  0  0  0  0  0
  1  2  1  0  0  0  0
  1  3  1  0  0  0  0
  1  4  1  0  0  0  0
  4  5  1  0  0  0  0
  4  6  1  0  0  0  0
  4  7  1  0  0  0  0
  7  8  1  0  0  0  0
  7  9  1  0  0  0  0
  7 10  1  0  0  0  0
 10 11  1  0  0  0  0
 10 12  1  0  0  0  0
 10 13  1  0  0  0  0
 13 14  1  0  0  0  0
 13 15  1  0  0  0  0
 15 16  1  0  0  0  0
 15 17  1  0  0  0  0
 15 18  1  0  0  0  0
 18 19  1  0  0  0  0
 18 20  1  0  0  0  0
  1 21  1  0  0  0  0
 18 21  1  0  0  0  0
 21 22  1  0  0  0  0
 21 23  1  0  0  0  0
 13 24  1  0  0  0  0
 24 25  1  0  0  0  0
M  END
> <VConfSearch Rank>
734

> <Conf_Id>
68

> <Delta U+W>
-1.765

> <U+W>
9.148

> <U>
11.181

> <W>
-2.032

> <W(PB)>
-4.147

> <W(SA)>
2.114

> <Valence>
16.955

> <Coulomb>
-8.661

> <VdW>
2.887

> <VdW6>
-12.561

> <VdW12>
15.448

> <Bond>
0.433

> <Angle>
5.121

> <Pdih>
11.402

> <Idih>
0.000

> <Tether>
0.000

$$$$
VeraChem MOL file


 25 25  0  0  0  0  0  0  0  0999 V2000     
   18.4406   18.7603   22.8983 C   0  0  0  0  0  0  0  0  0  0  0  0
   17.3912   18.4378   22.9414 H   0  0  0  0  0  0  0  0  0  0  0  0
   18.4829   19.6346   23.5576 H   0  0  0  0  0  0  0  0  0  0  0  0
   18.7600   19.1643   21.4354 C   0  0  0  0  0  0  0  0  0  0  0  0
   19.2106   18.3294   20.8837 H   0  0  0  0  0  0  0  0  0  0  0  0
   17.8037   19.3574   20.9301 H   0  0  0  0  0  0  0  0  0  0  0  0
   19.6173   20.4487   21.2870 C   0  0  0  0  0  0  0  0  0  0  0  0
   19.1214   21.2798   21.8070 H   0  0  0  0  0  0  0  0  0  0  0  0
   19.6205   20.7266   20.2242 H   0  0  0  0  0  0  0  0  0  0  0  0
   21.0940   20.3587   21.7559 C   0  0  0  0  0  0  0  0  0  0  0  0
   21.6144   19.5525   21.2251 H   0  0  0  0  0  0  0  0  0  0  0  0
   21.5865   21.2843   21.4284 H   0  0  0  0  0  0  0  0  0  0  0  0
   21.2740   20.2188   23.2898 C   0  0  0  0  0  0  0  0  0  0  0  0
   20.3580   20.5551   23.7892 H   0  0  0  0  0  0  0  0  0  0  0  0
   21.6213   18.7897   23.7746 C   0  0  0  0  0  0  0  0  0  0  0  0
   22.6829   18.6000   23.5680 H   0  0  0  0  0  0  0  0  0  0  0  0
   21.5179   18.7598   24.8671 H   0  0  0  0  0  0  0  0  0  0  0  0
   20.8138   17.6175   23.1597 C   0  0  0  0  0  0  0  0  0  0  0  0
   21.2391   16.6849   23.5547 H   0  0  0  0  0  0  0  0  0  0  0  0
   20.9822   17.5617   22.0781 H   0  0  0  0  0  0  0  0  0  0  0  0
   19.2960   17.5999   23.4698 C   0  0  0  0  0  0  0  0  0  0  0  0
   19.1478   17.5496   24.5571 H   0  0  0  0  0  0  0  0  0  0  0  0
   18.8915   16.6590   23.0722 H   0  0  0  0  0  0  0  0  0  0  0  0
   22.3294   21.0783   23.7022 O   0  0  0  0  0  0  0  0  0  0  0  0
   23.1335   20.7743   23.2333 H   0  0  0  0  0  0  0  0  0  0  0  0
  1  2  1  0  0  0  0
  1  3  1  0  0  0  0
  1  4  1  0  0  0  0
  4  5  1  0  0  0  0
  4  6  1  0  0  0  0
  4  7  1  0  0  0  0
  7  8  1  0  0  0  0
  7  9  1  0  0  0  0
  7 10  1  0  0  0  0
 10 11  1  0  0  0  0
 10 12  1  0  0  0  0
 10 13  1  0  0  0  0
 13 14  1  0  0  0  0
 13 15  1  0  0  0  0
 15 16  1  0  0  0  0
 15 17  1  0  0  0  0
 15 18  1  0  0  0  0
 18 19  1  0  0  0  0
 18 20  1  0  0  0  0
  1 21  1  0  0  0  0
 18 21  1  0  0  0  0
 21 22  1  0  0  0  0
 21 23  1  0  0  0  0
 13 24  1  0  0  0  0
 24 25  1  0  0  0  0
M  END
> <VConfSearch Rank>
735

> <Conf_Id>
165

> <Delta U+W>
-1.999

> <U+W>
8.915

> <U>
10.935

> <W>
-2.020

> <W(PB)>
-4.135

> <W(SA)>
2.115

> <Valence>
16.757

> <Coulomb>
-8.731

> <VdW>
2.908

> <VdW6>
-12.597

> <VdW12>
15.506

> <Bond>
0.434

> <Angle>
5.069

> <Pdih>
11.254

> <Idih>
0.000

> <Tether>
0.000

$$$$
VeraChem MOL file


 25 25  0  0  0  0  0  0  0  0999 V2000     
   19.4405   17.7701   23.4541 C   0  0  0  0  0  0  0  0  0  0  0  0
   18.9272   16.8837   23.8516 H   0  0  0  0  0  0  0  0  0  0  0  0
   19.6030   18.4055   24.3320 H   0  0  0  0  0  0  0  0  0  0  0  0
   18.4663   18.4494   22.4567 C   0  0  0  0  0  0  0  0  0  0  0  0
   17.9881   17.6570   21.8647 H   0  0  0  0  0  0  0  0  0  0  0  0
   17.6544   18.9279   23.0210 H   0  0  0  0  0  0  0  0  0  0  0  0
   19.0690   19.4705   21.4594 C   0  0  0  0  0  0  0  0  0  0  0  0
   18.2650   19.7731   20.7748 H   0  0  0  0  0  0  0  0  0  0  0  0
   19.8103   18.9826   20.8162 H   0  0  0  0  0  0  0  0  0  0  0  0
   19.6575   20.7635   22.0803 C   0  0  0  0  0  0  0  0  0  0  0  0
   19.9417   21.4262   21.2517 H   0  0  0  0  0  0  0  0  0  0  0  0
   18.8634   21.2871   22.6280 H   0  0  0  0  0  0  0  0  0  0  0  0
   20.8823   20.6051   23.0145 C   0  0  0  0  0  0  0  0  0  0  0  0
   20.5450   20.2535   23.9966 H   0  0  0  0  0  0  0  0  0  0  0  0
   21.9787   19.6449   22.4854 C   0  0  0  0  0  0  0  0  0  0  0  0
   21.9158   19.5431   21.3955 H   0  0  0  0  0  0  0  0  0  0  0  0
   22.9598   20.1016   22.6734 H   0  0  0  0  0  0  0  0  0  0  0  0
   21.9939   18.2480   23.1618 C   0  0  0  0  0  0  0  0  0  0  0  0
   22.0891   18.3725   24.2492 H   0  0  0  0  0  0  0  0  0  0  0  0
   22.9103   17.7326   22.8432 H   0  0  0  0  0  0  0  0  0  0  0  0
   20.7954   17.3122   22.8540 C   0  0  0  0  0  0  0  0  0  0  0  0
   21.0346   16.3320   23.2888 H   0  0  0  0  0  0  0  0  0  0  0  0
   20.7093   17.1321   21.7748 H   0  0  0  0  0  0  0  0  0  0  0  0
   21.4566   21.8958   23.1865 O   0  0  0  0  0  0  0  0  0  0  0  0
   20.7561   22.4687   23.5627 H   0  0  0  0  0  0  0  0  0  0  0  0
  1  2  1  0  0  0  0
  1  3  1  0  0  0  0
  1  4  1  0  0  0  0
  4  5  1  0  0  0  0
  4  6  1  0  0  0  0
  4  7  1  0  0  0  0
  7  8  1  0  0  0  0
  7  9  1  0  0  0  0
  7 10  1  0  0  0  0
 10 11  1  0  0  0  0
 10 12  1  0  0  0  0
 10 13  1  0  0  0  0
 13 14  1  0  0  0  0
 13 15  1  0  0  0  0
 15 16  1  0  0  0  0
 15 17  1  0  0  0  0
 15 18  1  0  0  0  0
 18 19  1  0  0  0  0
 18 20  1  0  0  0  0
  1 21  1  0  0  0  0
 18 21  1  0  0  0  0
 21 22  1  0  0  0  0
 21 23  1  0  0  0  0
 13 24  1  0  0  0  0
 24 25  1  0  0  0  0
M  END
> <VConfSearch Rank>
736

> <Conf_Id>
133

> <Delta U+W>
-2.139

> <U+W>
8.774

> <U>
10.905

> <W>
-2.131

> <W(PB)>
-4.281

> <W(SA)>
2.150

> <Valence>
16.378

> <Coulomb>
-8.448

> <VdW>
2.976

> <VdW6>
-12.570

> <VdW12>
15.545

> <Bond>
0.439

> <Angle>
5.049

> <Pdih>
10.889

> <Idih>
0.000

> <Tether>
0.000

$$$$
VeraChem MOL file


 25 25  0  0  0  0  0  0  0  0999 V2000     
   20.3442   17.7351   23.7138 C   0  0  0  0  0  0  0  0  0  0  0  0
   20.3750   16.7878   24.2695 H   0  0  0  0  0  0  0  0  0  0  0  0
   20.2170   18.4997   24.4885 H   0  0  0  0  0  0  0  0  0  0  0  0
   19.1114   17.7010   22.7734 C   0  0  0  0  0  0  0  0  0  0  0  0
   19.3897   17.3583   21.7686 H   0  0  0  0  0  0  0  0  0  0  0  0
   18.4249   16.9337   23.1568 H   0  0  0  0  0  0  0  0  0  0  0  0
   18.3109   19.0280   22.7001 C   0  0  0  0  0  0  0  0  0  0  0  0
   18.0017   19.3234   23.7120 H   0  0  0  0  0  0  0  0  0  0  0  0
   17.3789   18.8259   22.1548 H   0  0  0  0  0  0  0  0  0  0  0  0
   19.0120   20.2272   22.0078 C   0  0  0  0  0  0  0  0  0  0  0  0
   19.3014   19.9638   20.9836 H   0  0  0  0  0  0  0  0  0  0  0  0
   18.2576   21.0178   21.8970 H   0  0  0  0  0  0  0  0  0  0  0  0
   20.2182   20.8076   22.7903 C   0  0  0  0  0  0  0  0  0  0  0  0
   20.1451   20.4966   23.8390 H   0  0  0  0  0  0  0  0  0  0  0  0
   21.6047   20.4021   22.2327 C   0  0  0  0  0  0  0  0  0  0  0  0
   21.8029   21.0039   21.3354 H   0  0  0  0  0  0  0  0  0  0  0  0
   22.3736   20.6853   22.9630 H   0  0  0  0  0  0  0  0  0  0  0  0
   21.8047   18.9138   21.8467 C   0  0  0  0  0  0  0  0  0  0  0  0
   22.8065   18.8222   21.4054 H   0  0  0  0  0  0  0  0  0  0  0  0
   21.1201   18.6325   21.0383 H   0  0  0  0  0  0  0  0  0  0  0  0
   21.7161   17.8915   23.0075 C   0  0  0  0  0  0  0  0  0  0  0  0
   22.4799   18.1290   23.7603 H   0  0  0  0  0  0  0  0  0  0  0  0
   21.9964   16.9100   22.6011 H   0  0  0  0  0  0  0  0  0  0  0  0
   20.1418   22.2282   22.7499 O   0  0  0  0  0  0  0  0  0  0  0  0
   20.8877   22.5665   23.2880 H   0  0  0  0  0  0  0  0  0  0  0  0
  1  2  1  0  0  0  0
  1  3  1  0  0  0  0
  1  4  1  0  0  0  0
  4  5  1  0  0  0  0
  4  6  1  0  0  0  0
  4  7  1  0  0  0  0
  7  8  1  0  0  0  0
  7  9  1  0  0  0  0
  7 10  1  0  0  0  0
 10 11  1  0  0  0  0
 10 12  1  0  0  0  0
 10 13  1  0  0  0  0
 13 14  1  0  0  0  0
 13 15  1  0  0  0  0
 15 16  1  0  0  0  0
 15 17  1  0  0  0  0
 15 18  1  0  0  0  0
 18 19  1  0  0  0  0
 18 20  1  0  0  0  0
  1 21  1  0  0  0  0
 18 21  1  0  0  0  0
 21 22  1  0  0  0  0
 21 23  1  0  0  0  0
 13 24  1  0  0  0  0
 24 25  1  0  0  0  0
M  END
> <VConfSearch Rank>
737

> <Conf_Id>
95

> <Delta U+W>
-2.190

> <U+W>
8.723

> <U>
10.905

> <W>
-2.182

> <W(PB)>
-4.296

> <W(SA)>
2.114

> <Valence>
16.377

> <Coulomb>
-8.448

> <VdW>
2.976

> <VdW6>
-12.570

> <VdW12>
15.546

> <Bond>
0.439

> <Angle>
5.049

> <Pdih>
10.889

> <Idih>
0.000

> <Tether>
0.000

$$$$
VeraChem MOL file


 25 25  0  0  0  0  0  0  0  0999 V2000     
   21.8168   18.6648   21.7914 C   0  0  0  0  0  0  0  0  0  0  0  0
   22.7580   18.4764   21.2571 H   0  0  0  0  0  0  0  0  0  0  0  0
   21.2699   17.7228   21.6822 H   0  0  0  0  0  0  0  0  0  0  0  0
   21.0912   19.8205   21.0417 C   0  0  0  0  0  0  0  0  0  0  0  0
   21.8648   20.5050   20.6677 H   0  0  0  0  0  0  0  0  0  0  0  0
   20.6039   19.4133   20.1455 H   0  0  0  0  0  0  0  0  0  0  0  0
   20.0717   20.6815   21.8328 C   0  0  0  0  0  0  0  0  0  0  0  0
   19.7583   21.5083   21.1809 H   0  0  0  0  0  0  0  0  0  0  0  0
   20.5869   21.1862   22.6562 H   0  0  0  0  0  0  0  0  0  0  0  0
   18.7765   19.9780   22.3369 C   0  0  0  0  0  0  0  0  0  0  0  0
   18.3486   20.5684   23.1577 H   0  0  0  0  0  0  0  0  0  0  0  0
   18.0443   20.0302   21.5206 H   0  0  0  0  0  0  0  0  0  0  0  0
   18.8705   18.4946   22.7754 C   0  0  0  0  0  0  0  0  0  0  0  0
   19.2555   17.9147   21.9302 H   0  0  0  0  0  0  0  0  0  0  0  0
   19.7155   18.1871   24.0451 C   0  0  0  0  0  0  0  0  0  0  0  0
   19.0670   18.3163   24.9220 H   0  0  0  0  0  0  0  0  0  0  0  0
   19.9839   17.1231   24.0309 H   0  0  0  0  0  0  0  0  0  0  0  0
   20.9959   19.0264   24.3041 C   0  0  0  0  0  0  0  0  0  0  0  0
   21.3880   18.7380   25.2889 H   0  0  0  0  0  0  0  0  0  0  0  0
   20.7189   20.0770   24.4370 H   0  0  0  0  0  0  0  0  0  0  0  0
   22.1660   18.8866   23.2868 C   0  0  0  0  0  0  0  0  0  0  0  0
   22.7761   18.0297   23.6035 H   0  0  0  0  0  0  0  0  0  0  0  0
   22.8225   19.7624   23.3782 H   0  0  0  0  0  0  0  0  0  0  0  0
   17.5458   18.0417   23.0295 O   0  0  0  0  0  0  0  0  0  0  0  0
   17.0366   18.1788   22.2036 H   0  0  0  0  0  0  0  0  0  0  0  0
  1  2  1  0  0  0  0
  1  3  1  0  0  0  0
  1  4  1  0  0  0  0
  4  5  1  0  0  0  0
  4  6  1  0  0  0  0
  4  7  1  0  0  0  0
  7  8  1  0  0  0  0
  7  9  1  0  0  0  0
  7 10  1  0  0  0  0
 10 11  1  0  0  0  0
 10 12  1  0  0  0  0
 10 13  1  0  0  0  0
 13 14  1  0  0  0  0
 13 15  1  0  0  0  0
 15 16  1  0  0  0  0
 15 17  1  0  0  0  0
 15 18  1  0  0  0  0
 18 19  1  0  0  0  0
 18 20  1  0  0  0  0
  1 21  1  0  0  0  0
 18 21  1  0  0  0  0
 21 22  1  0  0  0  0
 21 23  1  0  0  0  0
 13 24  1  0  0  0  0
 24 25  1  0  0  0  0
M  END
> <VConfSearch Rank>
738

> <Conf_Id>
161

> <Delta U+W>
2.120

> <U+W>
13.033

> <U>
15.076

> <W>
-2.043

> <W(PB)>
-4.186

> <W(SA)>
2.143

> <Valence>
18.884

> <Coulomb>
-8.074

> <VdW>
4.266

> <VdW6>
-13.486

> <VdW12>
17.752

> <Bond>
0.713

> <Angle>
8.955

> <Pdih>
9.215

> <Idih>
0.000

> <Tether>
0.000

$$$$
VeraChem MOL file


 25 25  0  0  0  0  0  0  0  0999 V2000     
   18.4331   19.7151   22.2987 C   0  0  0  0  0  0  0  0  0  0  0  0
   17.3972   19.7939   21.9414 H   0  0  0  0  0  0  0  0  0  0  0  0
   18.6092   20.6458   22.8527 H   0  0  0  0  0  0  0  0  0  0  0  0
   19.3626   19.6528   21.0610 C   0  0  0  0  0  0  0  0  0  0  0  0
   19.4707   18.6193   20.7056 H   0  0  0  0  0  0  0  0  0  0  0  0
   18.8485   20.1864   20.2498 H   0  0  0  0  0  0  0  0  0  0  0  0
   20.7482   20.3337   21.2396 C   0  0  0  0  0  0  0  0  0  0  0  0
   20.6667   21.2450   21.8472 H   0  0  0  0  0  0  0  0  0  0  0  0
   21.0639   20.6759   20.2444 H   0  0  0  0  0  0  0  0  0  0  0  0
   21.8749   19.4129   21.7755 C   0  0  0  0  0  0  0  0  0  0  0  0
   21.7347   18.3936   21.3956 H   0  0  0  0  0  0  0  0  0  0  0  0
   22.8211   19.7518   21.3334 H   0  0  0  0  0  0  0  0  0  0  0  0
   22.0834   19.4082   23.3112 C   0  0  0  0  0  0  0  0  0  0  0  0
   22.5082   20.3812   23.5970 H   0  0  0  0  0  0  0  0  0  0  0  0
   20.8220   19.1815   24.1763 C   0  0  0  0  0  0  0  0  0  0  0  0
   21.1435   18.9740   25.2057 H   0  0  0  0  0  0  0  0  0  0  0  0
   20.2664   20.1227   24.2488 H   0  0  0  0  0  0  0  0  0  0  0  0
   19.8994   18.0287   23.6979 C   0  0  0  0  0  0  0  0  0  0  0  0
   19.7788   17.3088   24.5188 H   0  0  0  0  0  0  0  0  0  0  0  0
   20.3659   17.4565   22.8879 H   0  0  0  0  0  0  0  0  0  0  0  0
   18.4919   18.4920   23.2518 C   0  0  0  0  0  0  0  0  0  0  0  0
   17.8979   18.7264   24.1457 H   0  0  0  0  0  0  0  0  0  0  0  0
   17.9865   17.6431   22.7715 H   0  0  0  0  0  0  0  0  0  0  0  0
   23.0233   18.3895   23.6228 O   0  0  0  0  0  0  0  0  0  0  0  0
   22.5549   17.5414   23.4844 H   0  0  0  0  0  0  0  0  0  0  0  0
  1  2  1  0  0  0  0
  1  3  1  0  0  0  0
  1  4  1  0  0  0  0
  4  5  1  0  0  0  0
  4  6  1  0  0  0  0
  4  7  1  0  0  0  0
  7  8  1  0  0  0  0
  7  9  1  0  0  0  0
  7 10  1  0  0  0  0
 10 11  1  0  0  0  0
 10 12  1  0  0  0  0
 10 13  1  0  0  0  0
 13 14  1  0  0  0  0
 13 15  1  0  0  0  0
 15 16  1  0  0  0  0
 15 17  1  0  0  0  0
 15 18  1  0  0  0  0
 18 19  1  0  0  0  0
 18 20  1  0  0  0  0
  1 21  1  0  0  0  0
 18 21  1  0  0  0  0
 21 22  1  0  0  0  0
 21 23  1  0  0  0  0
 13 24  1  0  0  0  0
 24 25  1  0  0  0  0
M  END
> <VConfSearch Rank>
739

> <Conf_Id>
164

> <Delta U+W>
0.008

> <U+W>
10.922

> <U>
12.433

> <W>
-1.511

> <W(PB)>
-3.669

> <W(SA)>
2.157

> <Valence>
19.007

> <Coulomb>
-9.373

> <VdW>
2.799

> <VdW6>
-12.597

> <VdW12>
15.396

> <Bond>
0.425

> <Angle>
4.784

> <Pdih>
13.799

> <Idih>
0.000

> <Tether>
0.000

$$$$
VeraChem MOL file


 25 25  0  0  0  0  0  0  0  0999 V2000     
   20.3547   17.6392   21.7239 C   0  0  0  0  0  0  0  0  0  0  0  0
   19.9274   17.3903   22.7018 H   0  0  0  0  0  0  0  0  0  0  0  0
   20.3763   16.6845   21.1808 H   0  0  0  0  0  0  0  0  0  0  0  0
   21.8214   18.1128   21.8794 C   0  0  0  0  0  0  0  0  0  0  0  0
   22.3854   17.2904   22.3403 H   0  0  0  0  0  0  0  0  0  0  0  0
   22.2641   18.2553   20.8844 H   0  0  0  0  0  0  0  0  0  0  0  0
   22.0663   19.3879   22.7262 C   0  0  0  0  0  0  0  0  0  0  0  0
   21.9102   20.2880   22.1207 H   0  0  0  0  0  0  0  0  0  0  0  0
   23.1354   19.4087   22.9785 H   0  0  0  0  0  0  0  0  0  0  0  0
   21.2550   19.4725   24.0466 C   0  0  0  0  0  0  0  0  0  0  0  0
   20.9696   18.4732   24.3967 H   0  0  0  0  0  0  0  0  0  0  0  0
   21.9284   19.8691   24.8182 H   0  0  0  0  0  0  0  0  0  0  0  0
   20.0231   20.4108   23.9958 C   0  0  0  0  0  0  0  0  0  0  0  0
   20.3565   21.3946   23.6357 H   0  0  0  0  0  0  0  0  0  0  0  0
   18.8373   19.9497   23.1116 C   0  0  0  0  0  0  0  0  0  0  0  0
   18.4724   18.9661   23.4310 H   0  0  0  0  0  0  0  0  0  0  0  0
   18.0071   20.6431   23.3018 H   0  0  0  0  0  0  0  0  0  0  0  0
   19.1145   19.9705   21.5847 C   0  0  0  0  0  0  0  0  0  0  0  0
   19.9141   20.6820   21.3488 H   0  0  0  0  0  0  0  0  0  0  0  0
   18.2273   20.3774   21.0805 H   0  0  0  0  0  0  0  0  0  0  0  0
   19.4093   18.5889   20.9467 C   0  0  0  0  0  0  0  0  0  0  0  0
   19.8019   18.7413   19.9322 H   0  0  0  0  0  0  0  0  0  0  0  0
   18.4512   18.0669   20.8189 H   0  0  0  0  0  0  0  0  0  0  0  0
   19.5387   20.5579   25.3235 O   0  0  0  0  0  0  0  0  0  0  0  0
   19.2512   19.6678   25.6129 H   0  0  0  0  0  0  0  0  0  0  0  0
  1  2  1  0  0  0  0
  1  3  1  0  0  0  0
  1  4  1  0  0  0  0
  4  5  1  0  0  0  0
  4  6  1  0  0  0  0
  4  7  1  0  0  0  0
  7  8  1  0  0  0  0
  7  9  1  0  0  0  0
  7 10  1  0  0  0  0
 10 11  1  0  0  0  0
 10 12  1  0  0  0  0
 10 13  1  0  0  0  0
 13 14  1  0  0  0  0
 13 15  1  0  0  0  0
 15 16  1  0  0  0  0
 15 17  1  0  0  0  0
 15 18  1  0  0  0  0
 18 19  1  0  0  0  0
 18 20  1  0  0  0  0
  1 21  1  0  0  0  0
 18 21  1  0  0  0  0
 21 22  1  0  0  0  0
 21 23  1  0  0  0  0
 13 24  1  0  0  0  0
 24 25  1  0  0  0  0
M  END
> <VConfSearch Rank>
740

> <Conf_Id>
15

> <Delta U+W>
-1.271

> <U+W>
9.643

> <U>
11.413

> <W>
-1.770

> <W(PB)>
-3.908

> <W(SA)>
2.138

> <Valence>
17.496

> <Coulomb>
-8.736

> <VdW>
2.653

> <VdW6>
-12.485

> <VdW12>
15.138

> <Bond>
0.414

> <Angle>
5.295

> <Pdih>
11.787

> <Idih>
0.000

> <Tether>
0.000

$$$$
VeraChem MOL file


 25 25  0  0  0  0  0  0  0  0999 V2000     
   21.4621   18.1481   21.5206 C   0  0  0  0  0  0  0  0  0  0  0  0
   22.2313   17.5312   21.0361 H   0  0  0  0  0  0  0  0  0  0  0  0
   20.9658   18.6748   20.6957 H   0  0  0  0  0  0  0  0  0  0  0  0
   20.4764   17.1760   22.2207 C   0  0  0  0  0  0  0  0  0  0  0  0
   19.9505   16.6053   21.4432 H   0  0  0  0  0  0  0  0  0  0  0  0
   21.0528   16.4376   22.7945 H   0  0  0  0  0  0  0  0  0  0  0  0
   19.4270   17.8117   23.1641 C   0  0  0  0  0  0  0  0  0  0  0  0
   19.8966   18.0549   24.1244 H   0  0  0  0  0  0  0  0  0  0  0  0
   18.6769   17.0460   23.4048 H   0  0  0  0  0  0  0  0  0  0  0  0
   18.7040   19.0473   22.5675 C   0  0  0  0  0  0  0  0  0  0  0  0
   18.9478   19.1684   21.5062 H   0  0  0  0  0  0  0  0  0  0  0  0
   17.6225   18.8603   22.5890 H   0  0  0  0  0  0  0  0  0  0  0  0
   18.9634   20.3697   23.3254 C   0  0  0  0  0  0  0  0  0  0  0  0
   18.3974   20.3294   24.2672 H   0  0  0  0  0  0  0  0  0  0  0  0
   20.4375   20.6807   23.6922 C   0  0  0  0  0  0  0  0  0  0  0  0
   20.4641   21.7140   24.0637 H   0  0  0  0  0  0  0  0  0  0  0  0
   20.7465   20.0734   24.5514 H   0  0  0  0  0  0  0  0  0  0  0  0
   21.4871   20.5528   22.5560 C   0  0  0  0  0  0  0  0  0  0  0  0
   22.2788   21.2831   22.7730 H   0  0  0  0  0  0  0  0  0  0  0  0
   21.0664   20.8621   21.5905 H   0  0  0  0  0  0  0  0  0  0  0  0
   22.1769   19.1652   22.4442 C   0  0  0  0  0  0  0  0  0  0  0  0
   22.3590   18.7308   23.4364 H   0  0  0  0  0  0  0  0  0  0  0  0
   23.1736   19.3390   22.0159 H   0  0  0  0  0  0  0  0  0  0  0  0
   18.4602   21.4389   22.5367 O   0  0  0  0  0  0  0  0  0  0  0  0
   19.0499   21.4980   21.7584 H   0  0  0  0  0  0  0  0  0  0  0  0
  1  2  1  0  0  0  0
  1  3  1  0  0  0  0
  1  4  1  0  0  0  0
  4  5  1  0  0  0  0
  4  6  1  0  0  0  0
  4  7  1  0  0  0  0
  7  8  1  0  0  0  0
  7  9  1  0  0  0  0
  7 10  1  0  0  0  0
 10 11  1  0  0  0  0
 10 12  1  0  0  0  0
 10 13  1  0  0  0  0
 13 14  1  0  0  0  0
 13 15  1  0  0  0  0
 15 16  1  0  0  0  0
 15 17  1  0  0  0  0
 15 18  1  0  0  0  0
 18 19  1  0  0  0  0
 18 20  1  0  0  0  0
  1 21  1  0  0  0  0
 18 21  1  0  0  0  0
 21 22  1  0  0  0  0
 21 23  1  0  0  0  0
 13 24  1  0  0  0  0
 24 25  1  0  0  0  0
M  END
> <VConfSearch Rank>
741

> <Conf_Id>
115

> <Delta U+W>
0.038

> <U+W>
10.952

> <U>
12.526

> <W>
-1.575

> <W(PB)>
-3.698

> <W(SA)>
2.123

> <Valence>
19.016

> <Coulomb>
-9.226

> <VdW>
2.737

> <VdW6>
-12.612

> <VdW12>
15.349

> <Bond>
0.421

> <Angle>
4.883

> <Pdih>
13.711

> <Idih>
0.000

> <Tether>
0.000

$$$$
VeraChem MOL file


 25 25  0  0  0  0  0  0  0  0999 V2000     
   21.9993   20.5961   22.6538 C   0  0  0  0  0  0  0  0  0  0  0  0
   22.9892   20.9355   22.3195 H   0  0  0  0  0  0  0  0  0  0  0  0
   21.5679   21.4436   23.2035 H   0  0  0  0  0  0  0  0  0  0  0  0
   22.2208   19.4007   23.6097 C   0  0  0  0  0  0  0  0  0  0  0  0
   22.7628   18.5984   23.0909 H   0  0  0  0  0  0  0  0  0  0  0  0
   22.8921   19.7404   24.4102 H   0  0  0  0  0  0  0  0  0  0  0  0
   20.9395   18.8400   24.2690 C   0  0  0  0  0  0  0  0  0  0  0  0
   20.2811   19.6612   24.5822 H   0  0  0  0  0  0  0  0  0  0  0  0
   21.2410   18.3378   25.1986 H   0  0  0  0  0  0  0  0  0  0  0  0
   20.1781   17.8002   23.4036 C   0  0  0  0  0  0  0  0  0  0  0  0
   20.7936   17.4525   22.5645 H   0  0  0  0  0  0  0  0  0  0  0  0
   20.0099   16.9135   24.0297 H   0  0  0  0  0  0  0  0  0  0  0  0
   18.8042   18.2829   22.8863 C   0  0  0  0  0  0  0  0  0  0  0  0
   18.3361   18.9139   23.6554 H   0  0  0  0  0  0  0  0  0  0  0  0
   18.8558   19.0674   21.5566 C   0  0  0  0  0  0  0  0  0  0  0  0
   19.2643   18.4300   20.7613 H   0  0  0  0  0  0  0  0  0  0  0  0
   17.8213   19.2870   21.2615 H   0  0  0  0  0  0  0  0  0  0  0  0
   19.6217   20.4119   21.6078 C   0  0  0  0  0  0  0  0  0  0  0  0
   19.3876   20.9504   22.5358 H   0  0  0  0  0  0  0  0  0  0  0  0
   19.2286   21.0428   20.7987 H   0  0  0  0  0  0  0  0  0  0  0  0
   21.1533   20.2878   21.3961 C   0  0  0  0  0  0  0  0  0  0  0  0
   21.4381   21.0165   20.6247 H   0  0  0  0  0  0  0  0  0  0  0  0
   21.4242   19.3072   20.9829 H   0  0  0  0  0  0  0  0  0  0  0  0
   17.9863   17.1382   22.6756 O   0  0  0  0  0  0  0  0  0  0  0  0
   17.1050   17.4666   22.4004 H   0  0  0  0  0  0  0  0  0  0  0  0
  1  2  1  0  0  0  0
  1  3  1  0  0  0  0
  1  4  1  0  0  0  0
  4  5  1  0  0  0  0
  4  6  1  0  0  0  0
  4  7  1  0  0  0  0
  7  8  1  0  0  0  0
  7  9  1  0  0  0  0
  7 10  1  0  0  0  0
 10 11  1  0  0  0  0
 10 12  1  0  0  0  0
 10 13  1  0  0  0  0
 13 14  1  0  0  0  0
 13 15  1  0  0  0  0
 15 16  1  0  0  0  0
 15 17  1  0  0  0  0
 15 18  1  0  0  0  0
 18 19  1  0  0  0  0
 18 20  1  0  0  0  0
  1 21  1  0  0  0  0
 18 21  1  0  0  0  0
 21 22  1  0  0  0  0
 21 23  1  0  0  0  0
 13 24  1  0  0  0  0
 24 25  1  0  0  0  0
M  END
> <VConfSearch Rank>
742

> <Conf_Id>
30

> <Delta U+W>
0.000

> <U+W>
10.913

> <U>
13.140

> <W>
-2.227

> <W(PB)>
-4.367

> <W(SA)>
2.140

> <Valence>
19.155

> <Coulomb>
-8.157

> <VdW>
2.142

> <VdW6>
-11.576

> <VdW12>
13.718

> <Bond>
0.294

> <Angle>
3.547

> <Pdih>
15.314

> <Idih>
0.000

> <Tether>
0.000

$$$$
VeraChem MOL file


 25 25  0  0  0  0  0  0  0  0999 V2000     
   18.7923   19.1059   21.1410 C   0  0  0  0  0  0  0  0  0  0  0  0
   17.8210   19.6000   21.0017 H   0  0  0  0  0  0  0  0  0  0  0  0
   18.8789   18.3844   20.3172 H   0  0  0  0  0  0  0  0  0  0  0  0
   18.7559   18.3181   22.4737 C   0  0  0  0  0  0  0  0  0  0  0  0
   17.7918   17.7946   22.5310 H   0  0  0  0  0  0  0  0  0  0  0  0
   19.5044   17.5177   22.4489 H   0  0  0  0  0  0  0  0  0  0  0  0
   18.9185   19.1952   23.7410 C   0  0  0  0  0  0  0  0  0  0  0  0
   18.0600   19.0203   24.4037 H   0  0  0  0  0  0  0  0  0  0  0  0
   18.8661   20.2613   23.4912 H   0  0  0  0  0  0  0  0  0  0  0  0
   20.2119   18.9101   24.5455 C   0  0  0  0  0  0  0  0  0  0  0  0
   20.3295   19.6963   25.3030 H   0  0  0  0  0  0  0  0  0  0  0  0
   20.0755   17.9736   25.1019 H   0  0  0  0  0  0  0  0  0  0  0  0
   21.5271   18.7880   23.7358 C   0  0  0  0  0  0  0  0  0  0  0  0
   21.5136   17.8509   23.1634 H   0  0  0  0  0  0  0  0  0  0  0  0
   21.8108   19.9582   22.7624 C   0  0  0  0  0  0  0  0  0  0  0  0
   21.3942   20.8932   23.1583 H   0  0  0  0  0  0  0  0  0  0  0  0
   22.8969   20.1168   22.7268 H   0  0  0  0  0  0  0  0  0  0  0  0
   21.3456   19.7202   21.2979 C   0  0  0  0  0  0  0  0  0  0  0  0
   21.4946   18.6741   20.9982 H   0  0  0  0  0  0  0  0  0  0  0  0
   22.0139   20.3062   20.6519 H   0  0  0  0  0  0  0  0  0  0  0  0
   19.9005   20.1811   20.9849 C   0  0  0  0  0  0  0  0  0  0  0  0
   19.8731   20.5185   19.9397 H   0  0  0  0  0  0  0  0  0  0  0  0
   19.6567   21.0752   21.5728 H   0  0  0  0  0  0  0  0  0  0  0  0
   22.5934   18.7163   24.6750 O   0  0  0  0  0  0  0  0  0  0  0  0
   23.4126   18.5590   24.1606 H   0  0  0  0  0  0  0  0  0  0  0  0
  1  2  1  0  0  0  0
  1  3  1  0  0  0  0
  1  4  1  0  0  0  0
  4  5  1  0  0  0  0
  4  6  1  0  0  0  0
  4  7  1  0  0  0  0
  7  8  1  0  0  0  0
  7  9  1  0  0  0  0
  7 10  1  0  0  0  0
 10 11  1  0  0  0  0
 10 12  1  0  0  0  0
 10 13  1  0  0  0  0
 13 14  1  0  0  0  0
 13 15  1  0  0  0  0
 15 16  1  0  0  0  0
 15 17  1  0  0  0  0
 15 18  1  0  0  0  0
 18 19  1  0  0  0  0
 18 20  1  0  0  0  0
  1 21  1  0  0  0  0
 18 21  1  0  0  0  0
 21 22  1  0  0  0  0
 21 23  1  0  0  0  0
 13 24  1  0  0  0  0
 24 25  1  0  0  0  0
M  END
> <VConfSearch Rank>
743

> <Conf_Id>
162

> <Delta U+W>
0.219

> <U+W>
11.132

> <U>
13.296

> <W>
-2.164

> <W(PB)>
-4.311

> <W(SA)>
2.148

> <Valence>
18.607

> <Coulomb>
-8.339

> <VdW>
3.028

> <VdW6>
-12.271

> <VdW12>
15.299

> <Bond>
0.423

> <Angle>
4.488

> <Pdih>
13.696

> <Idih>
0.000

> <Tether>
0.000

$$$$
VeraChem MOL file


 25 25  0  0  0  0  0  0  0  0999 V2000     
   20.7894   17.2923   22.4416 C   0  0  0  0  0  0  0  0  0  0  0  0
   20.9141   17.2392   23.5306 H   0  0  0  0  0  0  0  0  0  0  0  0
   20.9502   16.2635   22.0913 H   0  0  0  0  0  0  0  0  0  0  0  0
   19.3337   17.6933   22.0952 C   0  0  0  0  0  0  0  0  0  0  0  0
   19.2720   18.0926   21.0739 H   0  0  0  0  0  0  0  0  0  0  0  0
   18.7431   16.7669   22.0811 H   0  0  0  0  0  0  0  0  0  0  0  0
   18.6499   18.6475   23.1136 C   0  0  0  0  0  0  0  0  0  0  0  0
   18.9484   18.4089   24.1433 H   0  0  0  0  0  0  0  0  0  0  0  0
   17.5719   18.4398   23.0684 H   0  0  0  0  0  0  0  0  0  0  0  0
   18.8273   20.1608   22.8244 C   0  0  0  0  0  0  0  0  0  0  0  0
   18.8613   20.3334   21.7417 H   0  0  0  0  0  0  0  0  0  0  0  0
   17.9193   20.6758   23.1642 H   0  0  0  0  0  0  0  0  0  0  0  0
   20.0195   20.8601   23.5252 C   0  0  0  0  0  0  0  0  0  0  0  0
   19.7882   20.9248   24.5982 H   0  0  0  0  0  0  0  0  0  0  0  0
   21.3956   20.1652   23.3926 C   0  0  0  0  0  0  0  0  0  0  0  0
   22.1720   20.8579   23.7421 H   0  0  0  0  0  0  0  0  0  0  0  0
   21.4404   19.3278   24.0971 H   0  0  0  0  0  0  0  0  0  0  0  0
   21.7528   19.6998   21.9562 C   0  0  0  0  0  0  0  0  0  0  0  0
   22.7002   20.1688   21.6583 H   0  0  0  0  0  0  0  0  0  0  0  0
   21.0184   20.0695   21.2308 H   0  0  0  0  0  0  0  0  0  0  0  0
   21.9026   18.1666   21.8057 C   0  0  0  0  0  0  0  0  0  0  0  0
   22.8650   17.8625   22.2392 H   0  0  0  0  0  0  0  0  0  0  0  0
   21.9701   17.9316   20.7347 H   0  0  0  0  0  0  0  0  0  0  0  0
   20.1236   22.1764   22.9954 O   0  0  0  0  0  0  0  0  0  0  0  0
   20.8816   22.6023   23.4462 H   0  0  0  0  0  0  0  0  0  0  0  0
  1  2  1  0  0  0  0
  1  3  1  0  0  0  0
  1  4  1  0  0  0  0
  4  5  1  0  0  0  0
  4  6  1  0  0  0  0
  4  7  1  0  0  0  0
  7  8  1  0  0  0  0
  7  9  1  0  0  0  0
  7 10  1  0  0  0  0
 10 11  1  0  0  0  0
 10 12  1  0  0  0  0
 10 13  1  0  0  0  0
 13 14  1  0  0  0  0
 13 15  1  0  0  0  0
 15 16  1  0  0  0  0
 15 17  1  0  0  0  0
 15 18  1  0  0  0  0
 18 19  1  0  0  0  0
 18 20  1  0  0  0  0
  1 21  1  0  0  0  0
 18 21  1  0  0  0  0
 21 22  1  0  0  0  0
 21 23  1  0  0  0  0
 13 24  1  0  0  0  0
 24 25  1  0  0  0  0
M  END
> <VConfSearch Rank>
744

> <Conf_Id>
155

> <Delta U+W>
0.339

> <U+W>
11.252

> <U>
13.420

> <W>
-2.167

> <W(PB)>
-4.325

> <W(SA)>
2.157

> <Valence>
18.609

> <Coulomb>
-8.052

> <VdW>
2.863

> <VdW6>
-12.524

> <VdW12>
15.387

> <Bond>
0.430

> <Angle>
4.724

> <Pdih>
13.455

> <Idih>
0.000

> <Tether>
0.000

$$$$
VeraChem MOL file


 25 25  0  0  0  0  0  0  0  0999 V2000     
   21.8414   20.0389   21.6077 C   0  0  0  0  0  0  0  0  0  0  0  0
   21.7418   21.1200   21.4416 H   0  0  0  0  0  0  0  0  0  0  0  0
   22.7835   19.7539   21.1199 H   0  0  0  0  0  0  0  0  0  0  0  0
   22.0199   19.7694   23.1250 C   0  0  0  0  0  0  0  0  0  0  0  0
   22.2360   18.7076   23.2806 H   0  0  0  0  0  0  0  0  0  0  0  0
   22.9446   20.2690   23.4443 H   0  0  0  0  0  0  0  0  0  0  0  0
   20.8879   20.2496   24.0796 C   0  0  0  0  0  0  0  0  0  0  0  0
   21.0945   21.2981   24.3335 H   0  0  0  0  0  0  0  0  0  0  0  0
   20.9628   19.6978   25.0265 H   0  0  0  0  0  0  0  0  0  0  0  0
   19.4226   20.1865   23.5690 C   0  0  0  0  0  0  0  0  0  0  0  0
   18.7938   20.6919   24.3136 H   0  0  0  0  0  0  0  0  0  0  0  0
   19.3221   20.8236   22.6859 H   0  0  0  0  0  0  0  0  0  0  0  0
   18.8041   18.7839   23.2964 C   0  0  0  0  0  0  0  0  0  0  0  0
   17.9810   18.9144   22.5792 H   0  0  0  0  0  0  0  0  0  0  0  0
   19.7410   17.6778   22.7495 C   0  0  0  0  0  0  0  0  0  0  0  0
   20.5334   17.4878   23.4792 H   0  0  0  0  0  0  0  0  0  0  0  0
   19.1709   16.7394   22.7362 H   0  0  0  0  0  0  0  0  0  0  0  0
   20.3359   17.8671   21.3217 C   0  0  0  0  0  0  0  0  0  0  0  0
   19.6031   17.4716   20.6051 H   0  0  0  0  0  0  0  0  0  0  0  0
   21.2216   17.2259   21.2183 H   0  0  0  0  0  0  0  0  0  0  0  0
   20.6902   19.3050   20.8595 C   0  0  0  0  0  0  0  0  0  0  0  0
   19.7824   19.9164   20.8461 H   0  0  0  0  0  0  0  0  0  0  0  0
   20.9778   19.2509   19.8006 H   0  0  0  0  0  0  0  0  0  0  0  0
   18.2637   18.3002   24.5212 O   0  0  0  0  0  0  0  0  0  0  0  0
   17.6324   18.9781   24.8393 H   0  0  0  0  0  0  0  0  0  0  0  0
  1  2  1  0  0  0  0
  1  3  1  0  0  0  0
  1  4  1  0  0  0  0
  4  5  1  0  0  0  0
  4  6  1  0  0  0  0
  4  7  1  0  0  0  0
  7  8  1  0  0  0  0
  7  9  1  0  0  0  0
  7 10  1  0  0  0  0
 10 11  1  0  0  0  0
 10 12  1  0  0  0  0
 10 13  1  0  0  0  0
 13 14  1  0  0  0  0
 13 15  1  0  0  0  0
 15 16  1  0  0  0  0
 15 17  1  0  0  0  0
 15 18  1  0  0  0  0
 18 19  1  0  0  0  0
 18 20  1  0  0  0  0
  1 21  1  0  0  0  0
 18 21  1  0  0  0  0
 21 22  1  0  0  0  0
 21 23  1  0  0  0  0
 13 24  1  0  0  0  0
 24 25  1  0  0  0  0
M  END
> <VConfSearch Rank>
745

> <Conf_Id>
146

> <Delta U+W>
2.553

> <U+W>
13.466

> <U>
15.643

> <W>
-2.176

> <W(PB)>
-4.307

> <W(SA)>
2.131

> <Valence>
18.916

> <Coulomb>
-7.506

> <VdW>
4.232

> <VdW6>
-13.632

> <VdW12>
17.864

> <Bond>
0.735

> <Angle>
9.140

> <Pdih>
9.042

> <Idih>
0.000

> <Tether>
0.000

$$$$
VeraChem MOL file


 25 25  0  0  0  0  0  0  0  0999 V2000     
   21.3270   19.0357   20.8652 C   0  0  0  0  0  0  0  0  0  0  0  0
   21.9560   19.8294   20.4399 H   0  0  0  0  0  0  0  0  0  0  0  0
   21.3798   18.2019   20.1519 H   0  0  0  0  0  0  0  0  0  0  0  0
   19.8548   19.5166   20.9060 C   0  0  0  0  0  0  0  0  0  0  0  0
   19.5511   19.7244   19.8709 H   0  0  0  0  0  0  0  0  0  0  0  0
   19.1964   18.7018   21.2280 H   0  0  0  0  0  0  0  0  0  0  0  0
   19.5782   20.7979   21.7319 C   0  0  0  0  0  0  0  0  0  0  0  0
   18.5277   21.0754   21.5699 H   0  0  0  0  0  0  0  0  0  0  0  0
   20.1716   21.6277   21.3246 H   0  0  0  0  0  0  0  0  0  0  0  0
   19.8156   20.7128   23.2623 C   0  0  0  0  0  0  0  0  0  0  0  0
   20.8776   20.8472   23.4905 H   0  0  0  0  0  0  0  0  0  0  0  0
   19.3256   21.5861   23.7139 H   0  0  0  0  0  0  0  0  0  0  0  0
   19.2809   19.4252   23.9408 C   0  0  0  0  0  0  0  0  0  0  0  0
   18.5211   18.9592   23.2991 H   0  0  0  0  0  0  0  0  0  0  0  0
   20.3780   18.3835   24.2768 C   0  0  0  0  0  0  0  0  0  0  0  0
   21.1529   18.8613   24.8908 H   0  0  0  0  0  0  0  0  0  0  0  0
   19.9283   17.6114   24.9148 H   0  0  0  0  0  0  0  0  0  0  0  0
   21.0481   17.6584   23.0781 C   0  0  0  0  0  0  0  0  0  0  0  0
   20.2981   17.1384   22.4684 H   0  0  0  0  0  0  0  0  0  0  0  0
   21.6786   16.8622   23.4971 H   0  0  0  0  0  0  0  0  0  0  0  0
   21.9562   18.5568   22.1990 C   0  0  0  0  0  0  0  0  0  0  0  0
   22.8579   17.9838   21.9425 H   0  0  0  0  0  0  0  0  0  0  0  0
   22.3306   19.4088   22.7775 H   0  0  0  0  0  0  0  0  0  0  0  0
   18.6604   19.7965   25.1665 O   0  0  0  0  0  0  0  0  0  0  0  0
   18.2787   18.9794   25.5497 H   0  0  0  0  0  0  0  0  0  0  0  0
  1  2  1  0  0  0  0
  1  3  1  0  0  0  0
  1  4  1  0  0  0  0
  4  5  1  0  0  0  0
  4  6  1  0  0  0  0
  4  7  1  0  0  0  0
  7  8  1  0  0  0  0
  7  9  1  0  0  0  0
  7 10  1  0  0  0  0
 10 11  1  0  0  0  0
 10 12  1  0  0  0  0
 10 13  1  0  0  0  0
 13 14  1  0  0  0  0
 13 15  1  0  0  0  0
 15 16  1  0  0  0  0
 15 17  1  0  0  0  0
 15 18  1  0  0  0  0
 18 19  1  0  0  0  0
 18 20  1  0  0  0  0
  1 21  1  0  0  0  0
 18 21  1  0  0  0  0
 21 22  1  0  0  0  0
 21 23  1  0  0  0  0
 13 24  1  0  0  0  0
 24 25  1  0  0  0  0
M  END
> <VConfSearch Rank>
746

> <Conf_Id>
62

> <Delta U+W>
-1.779

> <U+W>
9.134

> <U>
11.364

> <W>
-2.230

> <W(PB)>
-4.359

> <W(SA)>
2.129

> <Valence>
16.582

> <Coulomb>
-8.150

> <VdW>
2.933

> <VdW6>
-12.531

> <VdW12>
15.464

> <Bond>
0.439

> <Angle>
5.099

> <Pdih>
11.044

> <Idih>
0.000

> <Tether>
0.000

$$$$
VeraChem MOL file


 25 25  0  0  0  0  0  0  0  0999 V2000     
   22.0947   19.8575   22.4196 C   0  0  0  0  0  0  0  0  0  0  0  0
   21.5176   20.7313   22.7429 H   0  0  0  0  0  0  0  0  0  0  0  0
   23.1097   20.2428   22.2526 H   0  0  0  0  0  0  0  0  0  0  0  0
   21.5702   19.3372   21.0581 C   0  0  0  0  0  0  0  0  0  0  0  0
   21.6787   20.1531   20.3304 H   0  0  0  0  0  0  0  0  0  0  0  0
   22.2256   18.5315   20.7007 H   0  0  0  0  0  0  0  0  0  0  0  0
   20.0998   18.8494   21.0071 C   0  0  0  0  0  0  0  0  0  0  0  0
   20.0256   17.8138   21.3576 H   0  0  0  0  0  0  0  0  0  0  0  0
   19.8111   18.8021   19.9481 H   0  0  0  0  0  0  0  0  0  0  0  0
   19.0762   19.7503   21.7488 C   0  0  0  0  0  0  0  0  0  0  0  0
   19.4458   20.7795   21.8345 H   0  0  0  0  0  0  0  0  0  0  0  0
   18.1826   19.8157   21.1144 H   0  0  0  0  0  0  0  0  0  0  0  0
   18.6221   19.2196   23.1321 C   0  0  0  0  0  0  0  0  0  0  0  0
   18.2672   18.1866   23.0054 H   0  0  0  0  0  0  0  0  0  0  0  0
   19.6876   19.2279   24.2566 C   0  0  0  0  0  0  0  0  0  0  0  0
   20.0722   20.2428   24.4144 H   0  0  0  0  0  0  0  0  0  0  0  0
   19.1701   18.9674   25.1893 H   0  0  0  0  0  0  0  0  0  0  0  0
   20.8462   18.2117   24.0703 C   0  0  0  0  0  0  0  0  0  0  0  0
   20.5296   17.3815   23.4288 H   0  0  0  0  0  0  0  0  0  0  0  0
   21.0517   17.7441   25.0430 H   0  0  0  0  0  0  0  0  0  0  0  0
   22.1807   18.8145   23.5618 C   0  0  0  0  0  0  0  0  0  0  0  0
   22.8482   17.9970   23.2575 H   0  0  0  0  0  0  0  0  0  0  0  0
   22.6755   19.3003   24.4139 H   0  0  0  0  0  0  0  0  0  0  0  0
   17.5345   20.0258   23.5676 O   0  0  0  0  0  0  0  0  0  0  0  0
   16.8392   19.9584   22.8805 H   0  0  0  0  0  0  0  0  0  0  0  0
  1  2  1  0  0  0  0
  1  3  1  0  0  0  0
  1  4  1  0  0  0  0
  4  5  1  0  0  0  0
  4  6  1  0  0  0  0
  4  7  1  0  0  0  0
  7  8  1  0  0  0  0
  7  9  1  0  0  0  0
  7 10  1  0  0  0  0
 10 11  1  0  0  0  0
 10 12  1  0  0  0  0
 10 13  1  0  0  0  0
 13 14  1  0  0  0  0
 13 15  1  0  0  0  0
 15 16  1  0  0  0  0
 15 17  1  0  0  0  0
 15 18  1  0  0  0  0
 18 19  1  0  0  0  0
 18 20  1  0  0  0  0
  1 21  1  0  0  0  0
 18 21  1  0  0  0  0
 21 22  1  0  0  0  0
 21 23  1  0  0  0  0
 13 24  1  0  0  0  0
 24 25  1  0  0  0  0
M  END
> <VConfSearch Rank>
747

> <Conf_Id>
121

> <Delta U+W>
-1.283

> <U+W>
9.630

> <U>
11.876

> <W>
-2.246

> <W(PB)>
-4.376

> <W(SA)>
2.130

> <Valence>
17.153

> <Coulomb>
-7.966

> <VdW>
2.689

> <VdW6>
-12.458

> <VdW12>
15.147

> <Bond>
0.421

> <Angle>
5.258

> <Pdih>
11.475

> <Idih>
0.000

> <Tether>
0.000

$$$$
VeraChem MOL file


 25 25  0  0  0  0  0  0  0  0999 V2000     
   21.7841   20.4042   22.3601 C   0  0  0  0  0  0  0  0  0  0  0  0
   21.7013   20.3656   23.4522 H   0  0  0  0  0  0  0  0  0  0  0  0
   22.6425   21.0631   22.1710 H   0  0  0  0  0  0  0  0  0  0  0  0
   20.5359   21.0874   21.7477 C   0  0  0  0  0  0  0  0  0  0  0  0
   20.4831   22.1047   22.1590 H   0  0  0  0  0  0  0  0  0  0  0  0
   20.6839   21.2116   20.6664 H   0  0  0  0  0  0  0  0  0  0  0  0
   19.1655   20.4058   21.9930 C   0  0  0  0  0  0  0  0  0  0  0  0
   18.9986   19.6036   21.2652 H   0  0  0  0  0  0  0  0  0  0  0  0
   18.3889   21.1488   21.7655 H   0  0  0  0  0  0  0  0  0  0  0  0
   18.9316   19.8874   23.4374 C   0  0  0  0  0  0  0  0  0  0  0  0
   19.5524   20.4318   24.1592 H   0  0  0  0  0  0  0  0  0  0  0  0
   17.8953   20.1291   23.7085 H   0  0  0  0  0  0  0  0  0  0  0  0
   19.1006   18.3584   23.6199 C   0  0  0  0  0  0  0  0  0  0  0  0
   18.4659   17.8535   22.8774 H   0  0  0  0  0  0  0  0  0  0  0  0
   20.5412   17.8036   23.4847 C   0  0  0  0  0  0  0  0  0  0  0  0
   21.2095   18.2897   24.2062 H   0  0  0  0  0  0  0  0  0  0  0  0
   20.5139   16.7471   23.7822 H   0  0  0  0  0  0  0  0  0  0  0  0
   21.1317   17.8606   22.0504 C   0  0  0  0  0  0  0  0  0  0  0  0
   20.3290   17.8834   21.3046 H   0  0  0  0  0  0  0  0  0  0  0  0
   21.6582   16.9157   21.8581 H   0  0  0  0  0  0  0  0  0  0  0  0
   22.1436   19.0070   21.7959 C   0  0  0  0  0  0  0  0  0  0  0  0
   22.3264   19.0878   20.7159 H   0  0  0  0  0  0  0  0  0  0  0  0
   23.1045   18.7110   22.2384 H   0  0  0  0  0  0  0  0  0  0  0  0
   18.6316   18.0286   24.9213 O   0  0  0  0  0  0  0  0  0  0  0  0
   18.6792   17.0531   25.0007 H   0  0  0  0  0  0  0  0  0  0  0  0
  1  2  1  0  0  0  0
  1  3  1  0  0  0  0
  1  4  1  0  0  0  0
  4  5  1  0  0  0  0
  4  6  1  0  0  0  0
  4  7  1  0  0  0  0
  7  8  1  0  0  0  0
  7  9  1  0  0  0  0
  7 10  1  0  0  0  0
 10 11  1  0  0  0  0
 10 12  1  0  0  0  0
 10 13  1  0  0  0  0
 13 14  1  0  0  0  0
 13 15  1  0  0  0  0
 15 16  1  0  0  0  0
 15 17  1  0  0  0  0
 15 18  1  0  0  0  0
 18 19  1  0  0  0  0
 18 20  1  0  0  0  0
  1 21  1  0  0  0  0
 18 21  1  0  0  0  0
 21 22  1  0  0  0  0
 21 23  1  0  0  0  0
 13 24  1  0  0  0  0
 24 25  1  0  0  0  0
M  END
> <VConfSearch Rank>
748

> <Conf_Id>
24

> <Delta U+W>
-1.236

> <U+W>
9.678

> <U>
11.876

> <W>
-2.199

> <W(PB)>
-4.335

> <W(SA)>
2.137

> <Valence>
17.153

> <Coulomb>
-7.966

> <VdW>
2.689

> <VdW6>
-12.458

> <VdW12>
15.147

> <Bond>
0.421

> <Angle>
5.258

> <Pdih>
11.475

> <Idih>
0.000

> <Tether>
0.000

$$$$
VeraChem MOL file


 25 25  0  0  0  0  0  0  0  0999 V2000     
   20.3377   21.2653   22.1070 C   0  0  0  0  0  0  0  0  0  0  0  0
   21.2614   21.7669   21.7879 H   0  0  0  0  0  0  0  0  0  0  0  0
   19.5691   22.0496   22.1378 H   0  0  0  0  0  0  0  0  0  0  0  0
   19.9255   20.2353   21.0219 C   0  0  0  0  0  0  0  0  0  0  0  0
   18.8695   19.9582   21.1333 H   0  0  0  0  0  0  0  0  0  0  0  0
   19.9775   20.7526   20.0540 H   0  0  0  0  0  0  0  0  0  0  0  0
   20.8000   18.9606   20.9275 C   0  0  0  0  0  0  0  0  0  0  0  0
   21.8496   19.1897   21.1563 H   0  0  0  0  0  0  0  0  0  0  0  0
   20.7935   18.6468   19.8746 H   0  0  0  0  0  0  0  0  0  0  0  0
   20.2947   17.7496   21.7620 C   0  0  0  0  0  0  0  0  0  0  0  0
   19.1981   17.7059   21.7621 H   0  0  0  0  0  0  0  0  0  0  0  0
   20.6254   16.8452   21.2333 H   0  0  0  0  0  0  0  0  0  0  0  0
   20.8416   17.6782   23.2087 C   0  0  0  0  0  0  0  0  0  0  0  0
   21.8284   18.1591   23.2326 H   0  0  0  0  0  0  0  0  0  0  0  0
   19.9356   18.3143   24.2933 C   0  0  0  0  0  0  0  0  0  0  0  0
   19.0567   17.6763   24.4539 H   0  0  0  0  0  0  0  0  0  0  0  0
   20.4927   18.3044   25.2394 H   0  0  0  0  0  0  0  0  0  0  0  0
   19.4424   19.7599   24.0330 C   0  0  0  0  0  0  0  0  0  0  0  0
   19.0223   20.1503   24.9700 H   0  0  0  0  0  0  0  0  0  0  0  0
   18.5980   19.7423   23.3343 H   0  0  0  0  0  0  0  0  0  0  0  0
   20.5495   20.7274   23.5434 C   0  0  0  0  0  0  0  0  0  0  0  0
   21.5406   20.2654   23.6211 H   0  0  0  0  0  0  0  0  0  0  0  0
   20.5901   21.5881   24.2249 H   0  0  0  0  0  0  0  0  0  0  0  0
   21.0150   16.3099   23.5541 O   0  0  0  0  0  0  0  0  0  0  0  0
   20.1281   15.8976   23.5063 H   0  0  0  0  0  0  0  0  0  0  0  0
  1  2  1  0  0  0  0
  1  3  1  0  0  0  0
  1  4  1  0  0  0  0
  4  5  1  0  0  0  0
  4  6  1  0  0  0  0
  4  7  1  0  0  0  0
  7  8  1  0  0  0  0
  7  9  1  0  0  0  0
  7 10  1  0  0  0  0
 10 11  1  0  0  0  0
 10 12  1  0  0  0  0
 10 13  1  0  0  0  0
 13 14  1  0  0  0  0
 13 15  1  0  0  0  0
 15 16  1  0  0  0  0
 15 17  1  0  0  0  0
 15 18  1  0  0  0  0
 18 19  1  0  0  0  0
 18 20  1  0  0  0  0
  1 21  1  0  0  0  0
 18 21  1  0  0  0  0
 21 22  1  0  0  0  0
 21 23  1  0  0  0  0
 13 24  1  0  0  0  0
 24 25  1  0  0  0  0
M  END
> <VConfSearch Rank>
749

> <Conf_Id>
167

> <Delta U+W>
0.388

> <U+W>
11.301

> <U>
13.202

> <W>
-1.901

> <W(PB)>
-4.065

> <W(SA)>
2.163

> <Valence>
18.957

> <Coulomb>
-8.753

> <VdW>
2.998

> <VdW6>
-12.294

> <VdW12>
15.292

> <Bond>
0.419

> <Angle>
4.543

> <Pdih>
13.996

> <Idih>
0.000

> <Tether>
0.000

$$$$
VeraChem MOL file


 25 25  0  0  0  0  0  0  0  0999 V2000     
   21.8444   18.0834   23.4082 C   0  0  0  0  0  0  0  0  0  0  0  0
   22.4525   17.4442   22.7538 H   0  0  0  0  0  0  0  0  0  0  0  0
   22.2649   17.9603   24.4157 H   0  0  0  0  0  0  0  0  0  0  0  0
   20.3924   17.5391   23.4335 C   0  0  0  0  0  0  0  0  0  0  0  0
   20.0808   17.2226   22.4317 H   0  0  0  0  0  0  0  0  0  0  0  0
   20.4069   16.6105   24.0204 H   0  0  0  0  0  0  0  0  0  0  0  0
   19.3357   18.4869   24.0580 C   0  0  0  0  0  0  0  0  0  0  0  0
   19.7998   19.1797   24.7717 H   0  0  0  0  0  0  0  0  0  0  0  0
   18.6536   17.8703   24.6592 H   0  0  0  0  0  0  0  0  0  0  0  0
   18.4626   19.2575   23.0305 C   0  0  0  0  0  0  0  0  0  0  0  0
   17.9773   18.5416   22.3542 H   0  0  0  0  0  0  0  0  0  0  0  0
   17.6471   19.7395   23.5858 H   0  0  0  0  0  0  0  0  0  0  0  0
   19.1699   20.3514   22.1923 C   0  0  0  0  0  0  0  0  0  0  0  0
   19.6821   21.0478   22.8696 H   0  0  0  0  0  0  0  0  0  0  0  0
   20.1754   19.7984   21.1492 C   0  0  0  0  0  0  0  0  0  0  0  0
   19.9381   18.7562   20.9132 H   0  0  0  0  0  0  0  0  0  0  0  0
   20.0444   20.3294   20.1969 H   0  0  0  0  0  0  0  0  0  0  0  0
   21.6690   19.9312   21.5446 C   0  0  0  0  0  0  0  0  0  0  0  0
   21.9714   20.9739   21.3766 H   0  0  0  0  0  0  0  0  0  0  0  0
   22.2754   19.3303   20.8533 H   0  0  0  0  0  0  0  0  0  0  0  0
   22.0431   19.5656   23.0031 C   0  0  0  0  0  0  0  0  0  0  0  0
   21.5280   20.2258   23.7101 H   0  0  0  0  0  0  0  0  0  0  0  0
   23.1086   19.7989   23.1340 H   0  0  0  0  0  0  0  0  0  0  0  0
   18.1590   21.0720   21.4974 O   0  0  0  0  0  0  0  0  0  0  0  0
   18.6096   21.8034   21.0257 H   0  0  0  0  0  0  0  0  0  0  0  0
  1  2  1  0  0  0  0
  1  3  1  0  0  0  0
  1  4  1  0  0  0  0
  4  5  1  0  0  0  0
  4  6  1  0  0  0  0
  4  7  1  0  0  0  0
  7  8  1  0  0  0  0
  7  9  1  0  0  0  0
  7 10  1  0  0  0  0
 10 11  1  0  0  0  0
 10 12  1  0  0  0  0
 10 13  1  0  0  0  0
 13 14  1  0  0  0  0
 13 15  1  0  0  0  0
 15 16  1  0  0  0  0
 15 17  1  0  0  0  0
 15 18  1  0  0  0  0
 18 19  1  0  0  0  0
 18 20  1  0  0  0  0
  1 21  1  0  0  0  0
 18 21  1  0  0  0  0
 21 22  1  0  0  0  0
 21 23  1  0  0  0  0
 13 24  1  0  0  0  0
 24 25  1  0  0  0  0
M  END
> <VConfSearch Rank>
750

> <Conf_Id>
60

> <Delta U+W>
-1.838

> <U+W>
9.075

> <U>
11.150

> <W>
-2.074

> <W(PB)>
-4.196

> <W(SA)>
2.121

> <Valence>
16.582

> <Coulomb>
-8.361

> <VdW>
2.928

> <VdW6>
-12.539

> <VdW12>
15.467

> <Bond>
0.441

> <Angle>
5.093

> <Pdih>
11.049

> <Idih>
0.000

> <Tether>
0.000

$$$$
VeraChem MOL file


 25 25  0  0  0  0  0  0  0  0999 V2000     
   19.5522   18.3993   24.3992 C   0  0  0  0  0  0  0  0  0  0  0  0
   18.5766   17.8948   24.4159 H   0  0  0  0  0  0  0  0  0  0  0  0
   19.9117   18.3827   25.4372 H   0  0  0  0  0  0  0  0  0  0  0  0
   19.3533   19.8840   24.0032 C   0  0  0  0  0  0  0  0  0  0  0  0
   18.7070   20.3404   24.7653 H   0  0  0  0  0  0  0  0  0  0  0  0
   20.3005   20.4295   24.0831 H   0  0  0  0  0  0  0  0  0  0  0  0
   18.6911   20.1408   22.6261 C   0  0  0  0  0  0  0  0  0  0  0  0
   18.5129   21.2215   22.5408 H   0  0  0  0  0  0  0  0  0  0  0  0
   17.6975   19.6730   22.6087 H   0  0  0  0  0  0  0  0  0  0  0  0
   19.4826   19.6878   21.3718 C   0  0  0  0  0  0  0  0  0  0  0  0
   19.3408   18.6157   21.2022 H   0  0  0  0  0  0  0  0  0  0  0  0
   19.0115   20.1652   20.5022 H   0  0  0  0  0  0  0  0  0  0  0  0
   20.9952   20.0290   21.3929 C   0  0  0  0  0  0  0  0  0  0  0  0
   21.1860   20.8280   22.1219 H   0  0  0  0  0  0  0  0  0  0  0  0
   21.9113   18.8217   21.7131 C   0  0  0  0  0  0  0  0  0  0  0  0
   21.6989   18.0095   21.0057 H   0  0  0  0  0  0  0  0  0  0  0  0
   22.9466   19.1270   21.5111 H   0  0  0  0  0  0  0  0  0  0  0  0
   21.8621   18.2691   23.1638 C   0  0  0  0  0  0  0  0  0  0  0  0
   22.1117   19.0548   23.8884 H   0  0  0  0  0  0  0  0  0  0  0  0
   22.6702   17.5301   23.2525 H   0  0  0  0  0  0  0  0  0  0  0  0
   20.5374   17.5590   23.5455 C   0  0  0  0  0  0  0  0  0  0  0  0
   20.7868   16.6632   24.1305 H   0  0  0  0  0  0  0  0  0  0  0  0
   20.0384   17.1692   22.6511 H   0  0  0  0  0  0  0  0  0  0  0  0
   21.3614   20.5082   20.1044 O   0  0  0  0  0  0  0  0  0  0  0  0
   20.8250   21.3120   19.9410 H   0  0  0  0  0  0  0  0  0  0  0  0
  1  2  1  0  0  0  0
  1  3  1  0  0  0  0
  1  4  1  0  0  0  0
  4  5  1  0  0  0  0
  4  6  1  0  0  0  0
  4  7  1  0  0  0  0
  7  8  1  0  0  0  0
  7  9  1  0  0  0  0
  7 10  1  0  0  0  0
 10 11  1  0  0  0  0
 10 12  1  0  0  0  0
 10 13  1  0  0  0  0
 13 14  1  0  0  0  0
 13 15  1  0  0  0  0
 15 16  1  0  0  0  0
 15 17  1  0  0  0  0
 15 18  1  0  0  0  0
 18 19  1  0  0  0  0
 18 20  1  0  0  0  0
  1 21  1  0  0  0  0
 18 21  1  0  0  0  0
 21 22  1  0  0  0  0
 21 23  1  0  0  0  0
 13 24  1  0  0  0  0
 24 25  1  0  0  0  0
M  END
> <VConfSearch Rank>
751

> <Conf_Id>
129

> <Delta U+W>
-1.846

> <U+W>
9.067

> <U>
11.150

> <W>
-2.083

> <W(PB)>
-4.217

> <W(SA)>
2.134

> <Valence>
16.583

> <Coulomb>
-8.361

> <VdW>
2.928

> <VdW6>
-12.539

> <VdW12>
15.467

> <Bond>
0.441

> <Angle>
5.093

> <Pdih>
11.049

> <Idih>
0.000

> <Tether>
0.000

$$$$
VeraChem MOL file


 25 25  0  0  0  0  0  0  0  0999 V2000     
   19.2486   17.7379   23.6671 C   0  0  0  0  0  0  0  0  0  0  0  0
   19.5189   17.4767   24.6992 H   0  0  0  0  0  0  0  0  0  0  0  0
   18.4071   17.0816   23.4063 H   0  0  0  0  0  0  0  0  0  0  0  0
   20.4241   17.3787   22.7240 C   0  0  0  0  0  0  0  0  0  0  0  0
   20.5888   16.2957   22.8067 H   0  0  0  0  0  0  0  0  0  0  0  0
   20.1353   17.5342   21.6782 H   0  0  0  0  0  0  0  0  0  0  0  0
   21.7764   18.0729   23.0236 C   0  0  0  0  0  0  0  0  0  0  0  0
   22.5286   17.6341   22.3538 H   0  0  0  0  0  0  0  0  0  0  0  0
   22.0985   17.8162   24.0418 H   0  0  0  0  0  0  0  0  0  0  0  0
   21.8295   19.6134   22.8519 C   0  0  0  0  0  0  0  0  0  0  0  0
   21.4257   20.1067   23.7419 H   0  0  0  0  0  0  0  0  0  0  0  0
   22.8906   19.8967   22.8355 H   0  0  0  0  0  0  0  0  0  0  0  0
   21.1359   20.1558   21.5754 C   0  0  0  0  0  0  0  0  0  0  0  0
   21.0362   19.3490   20.8372 H   0  0  0  0  0  0  0  0  0  0  0  0
   19.7458   20.7921   21.8276 C   0  0  0  0  0  0  0  0  0  0  0  0
   19.8363   21.5790   22.5877 H   0  0  0  0  0  0  0  0  0  0  0  0
   19.4406   21.3031   20.9045 H   0  0  0  0  0  0  0  0  0  0  0  0
   18.5955   19.8283   22.2263 C   0  0  0  0  0  0  0  0  0  0  0  0
   18.4531   19.0541   21.4613 H   0  0  0  0  0  0  0  0  0  0  0  0
   17.6670   20.4155   22.2158 H   0  0  0  0  0  0  0  0  0  0  0  0
   18.7336   19.2002   23.6373 C   0  0  0  0  0  0  0  0  0  0  0  0
   17.7420   19.2022   24.1105 H   0  0  0  0  0  0  0  0  0  0  0  0
   19.3453   19.8384   24.2848 H   0  0  0  0  0  0  0  0  0  0  0  0
   21.9660   21.1643   21.0133 O   0  0  0  0  0  0  0  0  0  0  0  0
   22.0360   21.8720   21.6865 H   0  0  0  0  0  0  0  0  0  0  0  0
  1  2  1  0  0  0  0
  1  3  1  0  0  0  0
  1  4  1  0  0  0  0
  4  5  1  0  0  0  0
  4  6  1  0  0  0  0
  4  7  1  0  0  0  0
  7  8  1  0  0  0  0
  7  9  1  0  0  0  0
  7 10  1  0  0  0  0
 10 11  1  0  0  0  0
 10 12  1  0  0  0  0
 10 13  1  0  0  0  0
 13 14  1  0  0  0  0
 13 15  1  0  0  0  0
 15 16  1  0  0  0  0
 15 17  1  0  0  0  0
 15 18  1  0  0  0  0
 18 19  1  0  0  0  0
 18 20  1  0  0  0  0
  1 21  1  0  0  0  0
 18 21  1  0  0  0  0
 21 22  1  0  0  0  0
 21 23  1  0  0  0  0
 13 24  1  0  0  0  0
 24 25  1  0  0  0  0
M  END
> <VConfSearch Rank>
752

> <Conf_Id>
140

> <Delta U+W>
-1.702

> <U+W>
9.211

> <U>
11.181

> <W>
-1.969

> <W(PB)>
-4.093

> <W(SA)>
2.124

> <Valence>
16.954

> <Coulomb>
-8.661

> <VdW>
2.887

> <VdW6>
-12.561

> <VdW12>
15.448

> <Bond>
0.433

> <Angle>
5.120

> <Pdih>
11.401

> <Idih>
0.000

> <Tether>
0.000

$$$$
VeraChem MOL file


 25 25  0  0  0  0  0  0  0  0999 V2000     
   22.1795   19.2990   23.4438 C   0  0  0  0  0  0  0  0  0  0  0  0
   22.9581   18.5793   23.1570 H   0  0  0  0  0  0  0  0  0  0  0  0
   22.6534   19.9745   24.1691 H   0  0  0  0  0  0  0  0  0  0  0  0
   21.0415   18.5426   24.1768 C   0  0  0  0  0  0  0  0  0  0  0  0
   20.8327   17.5867   23.6833 H   0  0  0  0  0  0  0  0  0  0  0  0
   21.4273   18.2604   25.1660 H   0  0  0  0  0  0  0  0  0  0  0  0
   19.7321   19.3475   24.3818 C   0  0  0  0  0  0  0  0  0  0  0  0
   19.9289   20.4273   24.3884 H   0  0  0  0  0  0  0  0  0  0  0  0
   19.3581   19.1185   25.3891 H   0  0  0  0  0  0  0  0  0  0  0  0
   18.5924   19.0010   23.3857 C   0  0  0  0  0  0  0  0  0  0  0  0
   18.3885   17.9233   23.4322 H   0  0  0  0  0  0  0  0  0  0  0  0
   17.6796   19.4930   23.7475 H   0  0  0  0  0  0  0  0  0  0  0  0
   18.8010   19.4234   21.9096 C   0  0  0  0  0  0  0  0  0  0  0  0
   19.0348   20.4956   21.8695 H   0  0  0  0  0  0  0  0  0  0  0  0
   19.9000   18.6208   21.1663 C   0  0  0  0  0  0  0  0  0  0  0  0
   20.0645   17.6569   21.6586 H   0  0  0  0  0  0  0  0  0  0  0  0
   19.5412   18.3608   20.1612 H   0  0  0  0  0  0  0  0  0  0  0  0
   21.2481   19.3659   20.9853 C   0  0  0  0  0  0  0  0  0  0  0  0
   21.1279   20.0827   20.1615 H   0  0  0  0  0  0  0  0  0  0  0  0
   22.0092   18.6494   20.6478 H   0  0  0  0  0  0  0  0  0  0  0  0
   21.7882   20.1484   22.2086 C   0  0  0  0  0  0  0  0  0  0  0  0
   21.0890   20.9415   22.4971 H   0  0  0  0  0  0  0  0  0  0  0  0
   22.6909   20.6820   21.8811 H   0  0  0  0  0  0  0  0  0  0  0  0
   17.5670   19.2182   21.2334 O   0  0  0  0  0  0  0  0  0  0  0  0
   17.3789   18.2587   21.2863 H   0  0  0  0  0  0  0  0  0  0  0  0
  1  2  1  0  0  0  0
  1  3  1  0  0  0  0
  1  4  1  0  0  0  0
  4  5  1  0  0  0  0
  4  6  1  0  0  0  0
  4  7  1  0  0  0  0
  7  8  1  0  0  0  0
  7  9  1  0  0  0  0
  7 10  1  0  0  0  0
 10 11  1  0  0  0  0
 10 12  1  0  0  0  0
 10 13  1  0  0  0  0
 13 14  1  0  0  0  0
 13 15  1  0  0  0  0
 15 16  1  0  0  0  0
 15 17  1  0  0  0  0
 15 18  1  0  0  0  0
 18 19  1  0  0  0  0
 18 20  1  0  0  0  0
  1 21  1  0  0  0  0
 18 21  1  0  0  0  0
 21 22  1  0  0  0  0
 21 23  1  0  0  0  0
 13 24  1  0  0  0  0
 24 25  1  0  0  0  0
M  END
> <VConfSearch Rank>
753

> <Conf_Id>
68

> <Delta U+W>
-1.765

> <U+W>
9.148

> <U>
11.181

> <W>
-2.032

> <W(PB)>
-4.147

> <W(SA)>
2.114

> <Valence>
16.955

> <Coulomb>
-8.661

> <VdW>
2.887

> <VdW6>
-12.561

> <VdW12>
15.448

> <Bond>
0.433

> <Angle>
5.121

> <Pdih>
11.402

> <Idih>
0.000

> <Tether>
0.000

$$$$
VeraChem MOL file


 25 25  0  0  0  0  0  0  0  0999 V2000     
   21.8955   20.0562   22.6426 C   0  0  0  0  0  0  0  0  0  0  0  0
   22.8822   20.5282   22.7457 H   0  0  0  0  0  0  0  0  0  0  0  0
   21.4643   20.5216   21.7490 H   0  0  0  0  0  0  0  0  0  0  0  0
   21.0591   20.4107   23.8997 C   0  0  0  0  0  0  0  0  0  0  0  0
   21.1281   19.6192   24.6569 H   0  0  0  0  0  0  0  0  0  0  0  0
   21.5205   21.2923   24.3652 H   0  0  0  0  0  0  0  0  0  0  0  0
   19.5777   20.7727   23.6152 C   0  0  0  0  0  0  0  0  0  0  0  0
   19.5369   21.5982   22.8914 H   0  0  0  0  0  0  0  0  0  0  0  0
   19.1482   21.1738   24.5434 H   0  0  0  0  0  0  0  0  0  0  0  0
   18.6595   19.6195   23.1300 C   0  0  0  0  0  0  0  0  0  0  0  0
   18.6638   18.7972   23.8555 H   0  0  0  0  0  0  0  0  0  0  0  0
   17.6320   20.0079   23.1406 H   0  0  0  0  0  0  0  0  0  0  0  0
   18.9775   19.1014   21.7033 C   0  0  0  0  0  0  0  0  0  0  0  0
   19.5552   19.8632   21.1671 H   0  0  0  0  0  0  0  0  0  0  0  0
   19.7443   17.7568   21.6574 C   0  0  0  0  0  0  0  0  0  0  0  0
   19.0354   16.9442   21.8640 H   0  0  0  0  0  0  0  0  0  0  0  0
   20.0969   17.5941   20.6306 H   0  0  0  0  0  0  0  0  0  0  0  0
   20.9379   17.5886   22.6326 C   0  0  0  0  0  0  0  0  0  0  0  0
   21.3108   16.5616   22.5189 H   0  0  0  0  0  0  0  0  0  0  0  0
   20.5946   17.6444   23.6720 H   0  0  0  0  0  0  0  0  0  0  0  0
   22.1384   18.5423   22.4103 C   0  0  0  0  0  0  0  0  0  0  0  0
   22.5356   18.3964   21.3967 H   0  0  0  0  0  0  0  0  0  0  0  0
   22.9399   18.2240   23.0909 H   0  0  0  0  0  0  0  0  0  0  0  0
   17.7525   18.9189   21.0042 O   0  0  0  0  0  0  0  0  0  0  0  0
   17.2438   18.2498   21.5066 H   0  0  0  0  0  0  0  0  0  0  0  0
  1  2  1  0  0  0  0
  1  3  1  0  0  0  0
  1  4  1  0  0  0  0
  4  5  1  0  0  0  0
  4  6  1  0  0  0  0
  4  7  1  0  0  0  0
  7  8  1  0  0  0  0
  7  9  1  0  0  0  0
  7 10  1  0  0  0  0
 10 11  1  0  0  0  0
 10 12  1  0  0  0  0
 10 13  1  0  0  0  0
 13 14  1  0  0  0  0
 13 15  1  0  0  0  0
 15 16  1  0  0  0  0
 15 17  1  0  0  0  0
 15 18  1  0  0  0  0
 18 19  1  0  0  0  0
 18 20  1  0  0  0  0
  1 21  1  0  0  0  0
 18 21  1  0  0  0  0
 21 22  1  0  0  0  0
 21 23  1  0  0  0  0
 13 24  1  0  0  0  0
 24 25  1  0  0  0  0
M  END
> <VConfSearch Rank>
754

> <Conf_Id>
165

> <Delta U+W>
-1.999

> <U+W>
8.915

> <U>
10.935

> <W>
-2.020

> <W(PB)>
-4.135

> <W(SA)>
2.115

> <Valence>
16.757

> <Coulomb>
-8.731

> <VdW>
2.908

> <VdW6>
-12.597

> <VdW12>
15.506

> <Bond>
0.434

> <Angle>
5.069

> <Pdih>
11.254

> <Idih>
0.000

> <Tether>
0.000

$$$$
VeraChem MOL file


 25 25  0  0  0  0  0  0  0  0999 V2000     
   20.2866   19.2724   24.4913 C   0  0  0  0  0  0  0  0  0  0  0  0
   20.2943   19.2416   25.5895 H   0  0  0  0  0  0  0  0  0  0  0  0
   20.1871   20.3369   24.2508 H   0  0  0  0  0  0  0  0  0  0  0  0
   19.0353   18.4842   24.0240 C   0  0  0  0  0  0  0  0  0  0  0  0
   18.9555   17.5836   24.6481 H   0  0  0  0  0  0  0  0  0  0  0  0
   18.1373   19.0772   24.2445 H   0  0  0  0  0  0  0  0  0  0  0  0
   18.9966   18.0254   22.5447 C   0  0  0  0  0  0  0  0  0  0  0  0
   18.0983   17.4061   22.4173 H   0  0  0  0  0  0  0  0  0  0  0  0
   19.8317   17.3474   22.3343 H   0  0  0  0  0  0  0  0  0  0  0  0
   18.9338   19.1535   21.4828 C   0  0  0  0  0  0  0  0  0  0  0  0
   18.8020   18.6753   20.5027 H   0  0  0  0  0  0  0  0  0  0  0  0
   18.0284   19.7502   21.6527 H   0  0  0  0  0  0  0  0  0  0  0  0
   20.1485   20.1098   21.3947 C   0  0  0  0  0  0  0  0  0  0  0  0
   20.0954   20.8382   22.2123 H   0  0  0  0  0  0  0  0  0  0  0  0
   21.5295   19.4060   21.4363 C   0  0  0  0  0  0  0  0  0  0  0  0
   21.4433   18.3584   21.1246 H   0  0  0  0  0  0  0  0  0  0  0  0
   22.1803   19.8746   20.6858 H   0  0  0  0  0  0  0  0  0  0  0  0
   22.2650   19.5089   22.7992 C   0  0  0  0  0  0  0  0  0  0  0  0
   22.3683   20.5669   23.0767 H   0  0  0  0  0  0  0  0  0  0  0  0
   23.2901   19.1413   22.6540 H   0  0  0  0  0  0  0  0  0  0  0  0
   21.6462   18.7237   23.9855 C   0  0  0  0  0  0  0  0  0  0  0  0
   22.3590   18.7886   24.8190 H   0  0  0  0  0  0  0  0  0  0  0  0
   21.5783   17.6537   23.7509 H   0  0  0  0  0  0  0  0  0  0  0  0
   20.0413   20.8225   20.1675 O   0  0  0  0  0  0  0  0  0  0  0  0
   19.1814   21.2921   20.1880 H   0  0  0  0  0  0  0  0  0  0  0  0
  1  2  1  0  0  0  0
  1  3  1  0  0  0  0
  1  4  1  0  0  0  0
  4  5  1  0  0  0  0
  4  6  1  0  0  0  0
  4  7  1  0  0  0  0
  7  8  1  0  0  0  0
  7  9  1  0  0  0  0
  7 10  1  0  0  0  0
 10 11  1  0  0  0  0
 10 12  1  0  0  0  0
 10 13  1  0  0  0  0
 13 14  1  0  0  0  0
 13 15  1  0  0  0  0
 15 16  1  0  0  0  0
 15 17  1  0  0  0  0
 15 18  1  0  0  0  0
 18 19  1  0  0  0  0
 18 20  1  0  0  0  0
  1 21  1  0  0  0  0
 18 21  1  0  0  0  0
 21 22  1  0  0  0  0
 21 23  1  0  0  0  0
 13 24  1  0  0  0  0
 24 25  1  0  0  0  0
M  END
> <VConfSearch Rank>
755

> <Conf_Id>
133

> <Delta U+W>
-2.139

> <U+W>
8.774

> <U>
10.905

> <W>
-2.131

> <W(PB)>
-4.281

> <W(SA)>
2.150

> <Valence>
16.378

> <Coulomb>
-8.448

> <VdW>
2.976

> <VdW6>
-12.570

> <VdW12>
15.545

> <Bond>
0.439

> <Angle>
5.049

> <Pdih>
10.889

> <Idih>
0.000

> <Tether>
0.000

$$$$
VeraChem MOL file


 25 25  0  0  0  0  0  0  0  0999 V2000     
   21.8655   20.0979   22.2889 C   0  0  0  0  0  0  0  0  0  0  0  0
   22.8311   20.5444   22.0143 H   0  0  0  0  0  0  0  0  0  0  0  0
   21.4786   20.7529   23.0776 H   0  0  0  0  0  0  0  0  0  0  0  0
   22.1345   18.6751   22.8447 C   0  0  0  0  0  0  0  0  0  0  0  0
   22.0284   17.9168   22.0584 H   0  0  0  0  0  0  0  0  0  0  0  0
   23.1910   18.6315   23.1428 H   0  0  0  0  0  0  0  0  0  0  0  0
   21.2962   18.2941   24.0933 C   0  0  0  0  0  0  0  0  0  0  0  0
   21.4579   19.0411   24.8825 H   0  0  0  0  0  0  0  0  0  0  0  0
   21.6994   17.3531   24.4916 H   0  0  0  0  0  0  0  0  0  0  0  0
   19.7717   18.0999   23.8761 C   0  0  0  0  0  0  0  0  0  0  0  0
   19.5869   17.3344   23.1132 H   0  0  0  0  0  0  0  0  0  0  0  0
   19.3675   17.6790   24.8067 H   0  0  0  0  0  0  0  0  0  0  0  0
   18.9961   19.4024   23.5505 C   0  0  0  0  0  0  0  0  0  0  0  0
   19.5954   20.2629   23.8702 H   0  0  0  0  0  0  0  0  0  0  0  0
   18.6151   19.5710   22.0591 C   0  0  0  0  0  0  0  0  0  0  0  0
   17.7561   18.9195   21.8488 H   0  0  0  0  0  0  0  0  0  0  0  0
   18.2621   20.5981   21.9006 H   0  0  0  0  0  0  0  0  0  0  0  0
   19.7092   19.2498   21.0085 C   0  0  0  0  0  0  0  0  0  0  0  0
   19.2489   19.3494   20.0161 H   0  0  0  0  0  0  0  0  0  0  0  0
   20.0036   18.1959   21.0719 H   0  0  0  0  0  0  0  0  0  0  0  0
   20.9621   20.1609   21.0298 C   0  0  0  0  0  0  0  0  0  0  0  0
   20.6572   21.2027   20.8614 H   0  0  0  0  0  0  0  0  0  0  0  0
   21.5790   19.8894   20.1622 H   0  0  0  0  0  0  0  0  0  0  0  0
   17.7876   19.4087   24.3021 O   0  0  0  0  0  0  0  0  0  0  0  0
   17.3413   20.2602   24.1120 H   0  0  0  0  0  0  0  0  0  0  0  0
  1  2  1  0  0  0  0
  1  3  1  0  0  0  0
  1  4  1  0  0  0  0
  4  5  1  0  0  0  0
  4  6  1  0  0  0  0
  4  7  1  0  0  0  0
  7  8  1  0  0  0  0
  7  9  1  0  0  0  0
  7 10  1  0  0  0  0
 10 11  1  0  0  0  0
 10 12  1  0  0  0  0
 10 13  1  0  0  0  0
 13 14  1  0  0  0  0
 13 15  1  0  0  0  0
 15 16  1  0  0  0  0
 15 17  1  0  0  0  0
 15 18  1  0  0  0  0
 18 19  1  0  0  0  0
 18 20  1  0  0  0  0
  1 21  1  0  0  0  0
 18 21  1  0  0  0  0
 21 22  1  0  0  0  0
 21 23  1  0  0  0  0
 13 24  1  0  0  0  0
 24 25  1  0  0  0  0
M  END
> <VConfSearch Rank>
756

> <Conf_Id>
95

> <Delta U+W>
-2.190

> <U+W>
8.723

> <U>
10.905

> <W>
-2.182

> <W(PB)>
-4.296

> <W(SA)>
2.114

> <Valence>
16.377

> <Coulomb>
-8.448

> <VdW>
2.976

> <VdW6>
-12.570

> <VdW12>
15.546

> <Bond>
0.439

> <Angle>
5.049

> <Pdih>
10.889

> <Idih>
0.000

> <Tether>
0.000

$$$$
VeraChem MOL file


 25 25  0  0  0  0  0  0  0  0999 V2000     
   21.6755   20.3624   22.7595 C   0  0  0  0  0  0  0  0  0  0  0  0
   22.5791   20.9825   22.8363 H   0  0  0  0  0  0  0  0  0  0  0  0
   20.8637   21.0725   22.9465 H   0  0  0  0  0  0  0  0  0  0  0  0
   21.7566   19.2976   23.8926 C   0  0  0  0  0  0  0  0  0  0  0  0
   22.8148   19.0290   24.0148 H   0  0  0  0  0  0  0  0  0  0  0  0
   21.4626   19.7646   24.8423 H   0  0  0  0  0  0  0  0  0  0  0  0
   20.9731   17.9712   23.7097 C   0  0  0  0  0  0  0  0  0  0  0  0
   21.2446   17.3073   24.5418 H   0  0  0  0  0  0  0  0  0  0  0  0
   21.3535   17.4453   22.8283 H   0  0  0  0  0  0  0  0  0  0  0  0
   19.4180   18.0547   23.6777 C   0  0  0  0  0  0  0  0  0  0  0  0
   19.0242   17.1527   23.1913 H   0  0  0  0  0  0  0  0  0  0  0  0
   19.0723   18.0056   24.7186 H   0  0  0  0  0  0  0  0  0  0  0  0
   18.7633   19.3037   23.0349 C   0  0  0  0  0  0  0  0  0  0  0  0
   19.1323   20.1894   23.5622 H   0  0  0  0  0  0  0  0  0  0  0  0
   18.9580   19.4917   21.5028 C   0  0  0  0  0  0  0  0  0  0  0  0
   18.1720   18.9213   20.9898 H   0  0  0  0  0  0  0  0  0  0  0  0
   18.7663   20.5440   21.2578 H   0  0  0  0  0  0  0  0  0  0  0  0
   20.3102   19.0650   20.8699 C   0  0  0  0  0  0  0  0  0  0  0  0
   20.2152   19.1725   19.7808 H   0  0  0  0  0  0  0  0  0  0  0  0
   20.4509   17.9885   21.0091 H   0  0  0  0  0  0  0  0  0  0  0  0
   21.5845   19.8501   21.2978 C   0  0  0  0  0  0  0  0  0  0  0  0
   21.6630   20.7301   20.6448 H   0  0  0  0  0  0  0  0  0  0  0  0
   22.4697   19.2398   21.0733 H   0  0  0  0  0  0  0  0  0  0  0  0
   17.3634   19.2215   23.2761 O   0  0  0  0  0  0  0  0  0  0  0  0
   17.2463   19.1690   24.2475 H   0  0  0  0  0  0  0  0  0  0  0  0
  1  2  1  0  0  0  0
  1  3  1  0  0  0  0
  1  4  1  0  0  0  0
  4  5  1  0  0  0  0
  4  6  1  0  0  0  0
  4  7  1  0  0  0  0
  7  8  1  0  0  0  0
  7  9  1  0  0  0  0
  7 10  1  0  0  0  0
 10 11  1  0  0  0  0
 10 12  1  0  0  0  0
 10 13  1  0  0  0  0
 13 14  1  0  0  0  0
 13 15  1  0  0  0  0
 15 16  1  0  0  0  0
 15 17  1  0  0  0  0
 15 18  1  0  0  0  0
 18 19  1  0  0  0  0
 18 20  1  0  0  0  0
  1 21  1  0  0  0  0
 18 21  1  0  0  0  0
 21 22  1  0  0  0  0
 21 23  1  0  0  0  0
 13 24  1  0  0  0  0
 24 25  1  0  0  0  0
M  END
> <VConfSearch Rank>
757

> <Conf_Id>
161

> <Delta U+W>
2.120

> <U+W>
13.033

> <U>
15.076

> <W>
-2.043

> <W(PB)>
-4.186

> <W(SA)>
2.143

> <Valence>
18.884

> <Coulomb>
-8.074

> <VdW>
4.266

> <VdW6>
-13.486

> <VdW12>
17.752

> <Bond>
0.713

> <Angle>
8.955

> <Pdih>
9.215

> <Idih>
0.000

> <Tether>
0.000

$$$$
VeraChem MOL file


 25 25  0  0  0  0  0  0  0  0999 V2000     
   18.5841   19.4259   23.5676 C   0  0  0  0  0  0  0  0  0  0  0  0
   17.5341   19.6011   23.8391 H   0  0  0  0  0  0  0  0  0  0  0  0
   19.1224   19.4181   24.5238 H   0  0  0  0  0  0  0  0  0  0  0  0
   19.0602   20.6197   22.7027 C   0  0  0  0  0  0  0  0  0  0  0  0
   18.8219   20.4539   21.6435 H   0  0  0  0  0  0  0  0  0  0  0  0
   18.4595   21.4894   23.0026 H   0  0  0  0  0  0  0  0  0  0  0  0
   20.5510   21.0176   22.8880 C   0  0  0  0  0  0  0  0  0  0  0  0
   20.8623   20.9117   23.9360 H   0  0  0  0  0  0  0  0  0  0  0  0
   20.6215   22.0926   22.6717 H   0  0  0  0  0  0  0  0  0  0  0  0
   21.5501   20.3032   21.9415 C   0  0  0  0  0  0  0  0  0  0  0  0
   21.0775   20.1244   20.9680 H   0  0  0  0  0  0  0  0  0  0  0  0
   22.3705   21.0026   21.7333 H   0  0  0  0  0  0  0  0  0  0  0  0
   22.2036   19.0080   22.4867 C   0  0  0  0  0  0  0  0  0  0  0  0
   22.9014   19.2932   23.2870 H   0  0  0  0  0  0  0  0  0  0  0  0
   21.2432   17.9442   23.0670 C   0  0  0  0  0  0  0  0  0  0  0  0
   21.8039   17.0089   23.1973 H   0  0  0  0  0  0  0  0  0  0  0  0
   20.9608   18.2367   24.0841 H   0  0  0  0  0  0  0  0  0  0  0  0
   19.9857   17.6578   22.2034 C   0  0  0  0  0  0  0  0  0  0  0  0
   19.9591   16.5864   21.9624 H   0  0  0  0  0  0  0  0  0  0  0  0
   20.0466   18.1632   21.2329 H   0  0  0  0  0  0  0  0  0  0  0  0
   18.6507   18.0309   22.8913 C   0  0  0  0  0  0  0  0  0  0  0  0
   18.4210   17.2714   23.6511 H   0  0  0  0  0  0  0  0  0  0  0  0
   17.8475   17.9594   22.1453 H   0  0  0  0  0  0  0  0  0  0  0  0
   22.9402   18.4101   21.4292 O   0  0  0  0  0  0  0  0  0  0  0  0
   22.2742   18.0495   20.8092 H   0  0  0  0  0  0  0  0  0  0  0  0
  1  2  1  0  0  0  0
  1  3  1  0  0  0  0
  1  4  1  0  0  0  0
  4  5  1  0  0  0  0
  4  6  1  0  0  0  0
  4  7  1  0  0  0  0
  7  8  1  0  0  0  0
  7  9  1  0  0  0  0
  7 10  1  0  0  0  0
 10 11  1  0  0  0  0
 10 12  1  0  0  0  0
 10 13  1  0  0  0  0
 13 14  1  0  0  0  0
 13 15  1  0  0  0  0
 15 16  1  0  0  0  0
 15 17  1  0  0  0  0
 15 18  1  0  0  0  0
 18 19  1  0  0  0  0
 18 20  1  0  0  0  0
  1 21  1  0  0  0  0
 18 21  1  0  0  0  0
 21 22  1  0  0  0  0
 21 23  1  0  0  0  0
 13 24  1  0  0  0  0
 24 25  1  0  0  0  0
M  END
> <VConfSearch Rank>
758

> <Conf_Id>
164

> <Delta U+W>
0.008

> <U+W>
10.922

> <U>
12.433

> <W>
-1.511

> <W(PB)>
-3.669

> <W(SA)>
2.157

> <Valence>
19.007

> <Coulomb>
-9.373

> <VdW>
2.799

> <VdW6>
-12.597

> <VdW12>
15.396

> <Bond>
0.425

> <Angle>
4.784

> <Pdih>
13.799

> <Idih>
0.000

> <Tether>
0.000

$$$$
VeraChem MOL file


 25 25  0  0  0  0  0  0  0  0999 V2000     
   19.0349   19.9816   23.6780 C   0  0  0  0  0  0  0  0  0  0  0  0
   19.2686   20.7297   22.9121 H   0  0  0  0  0  0  0  0  0  0  0  0
   18.2639   20.4554   24.3007 H   0  0  0  0  0  0  0  0  0  0  0  0
   20.2669   19.7311   24.5829 C   0  0  0  0  0  0  0  0  0  0  0  0
   20.5274   20.6878   25.0560 H   0  0  0  0  0  0  0  0  0  0  0  0
   19.9827   19.0610   25.4055 H   0  0  0  0  0  0  0  0  0  0  0  0
   21.5438   19.1768   23.9010 C   0  0  0  0  0  0  0  0  0  0  0  0
   21.4827   18.0876   23.7968 H   0  0  0  0  0  0  0  0  0  0  0  0
   22.3789   19.3397   24.5960 H   0  0  0  0  0  0  0  0  0  0  0  0
   21.9084   19.8340   22.5430 C   0  0  0  0  0  0  0  0  0  0  0  0
   21.4875   20.8441   22.4702 H   0  0  0  0  0  0  0  0  0  0  0  0
   22.9979   19.9719   22.5295 H   0  0  0  0  0  0  0  0  0  0  0  0
   21.5433   18.9939   21.2934 C   0  0  0  0  0  0  0  0  0  0  0  0
   21.9806   17.9926   21.4142 H   0  0  0  0  0  0  0  0  0  0  0  0
   20.0335   18.8275   20.9877 C   0  0  0  0  0  0  0  0  0  0  0  0
   19.5510   19.8045   20.8636 H   0  0  0  0  0  0  0  0  0  0  0  0
   19.9570   18.3394   20.0068 H   0  0  0  0  0  0  0  0  0  0  0  0
   19.2549   17.9480   22.0021 C   0  0  0  0  0  0  0  0  0  0  0  0
   19.9348   17.2566   22.5126 H   0  0  0  0  0  0  0  0  0  0  0  0
   18.5729   17.2966   21.4386 H   0  0  0  0  0  0  0  0  0  0  0  0
   18.3965   18.7270   23.0312 C   0  0  0  0  0  0  0  0  0  0  0  0
   18.0733   18.0360   23.8215 H   0  0  0  0  0  0  0  0  0  0  0  0
   17.4766   19.0501   22.5250 H   0  0  0  0  0  0  0  0  0  0  0  0
   22.1452   19.6150   20.1660 O   0  0  0  0  0  0  0  0  0  0  0  0
   21.7354   20.5008   20.0870 H   0  0  0  0  0  0  0  0  0  0  0  0
  1  2  1  0  0  0  0
  1  3  1  0  0  0  0
  1  4  1  0  0  0  0
  4  5  1  0  0  0  0
  4  6  1  0  0  0  0
  4  7  1  0  0  0  0
  7  8  1  0  0  0  0
  7  9  1  0  0  0  0
  7 10  1  0  0  0  0
 10 11  1  0  0  0  0
 10 12  1  0  0  0  0
 10 13  1  0  0  0  0
 13 14  1  0  0  0  0
 13 15  1  0  0  0  0
 15 16  1  0  0  0  0
 15 17  1  0  0  0  0
 15 18  1  0  0  0  0
 18 19  1  0  0  0  0
 18 20  1  0  0  0  0
  1 21  1  0  0  0  0
 18 21  1  0  0  0  0
 21 22  1  0  0  0  0
 21 23  1  0  0  0  0
 13 24  1  0  0  0  0
 24 25  1  0  0  0  0
M  END
> <VConfSearch Rank>
759

> <Conf_Id>
15

> <Delta U+W>
-1.271

> <U+W>
9.643

> <U>
11.413

> <W>
-1.770

> <W(PB)>
-3.908

> <W(SA)>
2.138

> <Valence>
17.496

> <Coulomb>
-8.736

> <VdW>
2.653

> <VdW6>
-12.485

> <VdW12>
15.138

> <Bond>
0.414

> <Angle>
5.295

> <Pdih>
11.787

> <Idih>
0.000

> <Tether>
0.000

$$$$
VeraChem MOL file


 25 25  0  0  0  0  0  0  0  0999 V2000     
   20.6703   17.3646   22.3081 C   0  0  0  0  0  0  0  0  0  0  0  0
   20.7619   16.2700   22.2908 H   0  0  0  0  0  0  0  0  0  0  0  0
   21.5437   17.7272   21.7514 H   0  0  0  0  0  0  0  0  0  0  0  0
   19.3585   17.7213   21.5605 C   0  0  0  0  0  0  0  0  0  0  0  0
   19.4850   17.4523   20.5030 H   0  0  0  0  0  0  0  0  0  0  0  0
   18.5495   17.0803   21.9368 H   0  0  0  0  0  0  0  0  0  0  0  0
   18.8897   19.1939   21.6448 C   0  0  0  0  0  0  0  0  0  0  0  0
   18.4066   19.3701   22.6129 H   0  0  0  0  0  0  0  0  0  0  0  0
   18.0931   19.3409   20.9029 H   0  0  0  0  0  0  0  0  0  0  0  0
   20.0118   20.2323   21.3837 C   0  0  0  0  0  0  0  0  0  0  0  0
   20.9228   19.7415   21.0238 H   0  0  0  0  0  0  0  0  0  0  0  0
   19.6967   20.8831   20.5576 H   0  0  0  0  0  0  0  0  0  0  0  0
   20.3399   21.1391   22.5921 C   0  0  0  0  0  0  0  0  0  0  0  0
   19.5170   21.8603   22.6995 H   0  0  0  0  0  0  0  0  0  0  0  0
   20.5096   20.4335   23.9624 C   0  0  0  0  0  0  0  0  0  0  0  0
   20.9018   21.1833   24.6626 H   0  0  0  0  0  0  0  0  0  0  0  0
   19.5277   20.1656   24.3706 H   0  0  0  0  0  0  0  0  0  0  0  0
   21.4494   19.1990   24.0062 C   0  0  0  0  0  0  0  0  0  0  0  0
   21.8882   19.1711   25.0131 H   0  0  0  0  0  0  0  0  0  0  0  0
   22.3003   19.3236   23.3242 H   0  0  0  0  0  0  0  0  0  0  0  0
   20.7532   17.8280   23.7836 C   0  0  0  0  0  0  0  0  0  0  0  0
   19.7624   17.8039   24.2567 H   0  0  0  0  0  0  0  0  0  0  0  0
   21.3497   17.0775   24.3203 H   0  0  0  0  0  0  0  0  0  0  0  0
   21.5345   21.8509   22.3010 O   0  0  0  0  0  0  0  0  0  0  0  0
   22.2514   21.1853   22.3089 H   0  0  0  0  0  0  0  0  0  0  0  0
  1  2  1  0  0  0  0
  1  3  1  0  0  0  0
  1  4  1  0  0  0  0
  4  5  1  0  0  0  0
  4  6  1  0  0  0  0
  4  7  1  0  0  0  0
  7  8  1  0  0  0  0
  7  9  1  0  0  0  0
  7 10  1  0  0  0  0
 10 11  1  0  0  0  0
 10 12  1  0  0  0  0
 10 13  1  0  0  0  0
 13 14  1  0  0  0  0
 13 15  1  0  0  0  0
 15 16  1  0  0  0  0
 15 17  1  0  0  0  0
 15 18  1  0  0  0  0
 18 19  1  0  0  0  0
 18 20  1  0  0  0  0
  1 21  1  0  0  0  0
 18 21  1  0  0  0  0
 21 22  1  0  0  0  0
 21 23  1  0  0  0  0
 13 24  1  0  0  0  0
 24 25  1  0  0  0  0
M  END
> <VConfSearch Rank>
760

> <Conf_Id>
115

> <Delta U+W>
0.038

> <U+W>
10.952

> <U>
12.526

> <W>
-1.575

> <W(PB)>
-3.698

> <W(SA)>
2.123

> <Valence>
19.016

> <Coulomb>
-9.226

> <VdW>
2.737

> <VdW6>
-12.612

> <VdW12>
15.349

> <Bond>
0.421

> <Angle>
4.883

> <Pdih>
13.711

> <Idih>
0.000

> <Tether>
0.000

$$$$
VeraChem MOL file


 25 25  0  0  0  0  0  0  0  0999 V2000     
   20.8929   17.9905   24.2948 C   0  0  0  0  0  0  0  0  0  0  0  0
   20.9953   17.7481   25.3614 H   0  0  0  0  0  0  0  0  0  0  0  0
   21.0704   17.0473   23.7605 H   0  0  0  0  0  0  0  0  0  0  0  0
   21.9986   19.0141   23.9468 C   0  0  0  0  0  0  0  0  0  0  0  0
   21.8919   19.9114   24.5713 H   0  0  0  0  0  0  0  0  0  0  0  0
   22.9609   18.5681   24.2334 H   0  0  0  0  0  0  0  0  0  0  0  0
   22.0828   19.4091   22.4542 C   0  0  0  0  0  0  0  0  0  0  0  0
   21.9530   18.5237   21.8176 H   0  0  0  0  0  0  0  0  0  0  0  0
   23.1073   19.7573   22.2638 H   0  0  0  0  0  0  0  0  0  0  0  0
   21.1175   20.5523   22.0405 C   0  0  0  0  0  0  0  0  0  0  0  0
   20.6992   21.0587   22.9193 H   0  0  0  0  0  0  0  0  0  0  0  0
   21.7155   21.3138   21.5216 H   0  0  0  0  0  0  0  0  0  0  0  0
   19.9793   20.1153   21.0911 C   0  0  0  0  0  0  0  0  0  0  0  0
   20.3635   19.3470   20.4050 H   0  0  0  0  0  0  0  0  0  0  0  0
   18.7212   19.5693   21.8021 C   0  0  0  0  0  0  0  0  0  0  0  0
   18.2880   20.3462   22.4459 H   0  0  0  0  0  0  0  0  0  0  0  0
   17.9670   19.3660   21.0306 H   0  0  0  0  0  0  0  0  0  0  0  0
   18.9277   18.2638   22.6082 C   0  0  0  0  0  0  0  0  0  0  0  0
   19.5698   17.5680   22.0517 H   0  0  0  0  0  0  0  0  0  0  0  0
   17.9512   17.7651   22.6782 H   0  0  0  0  0  0  0  0  0  0  0  0
   19.4441   18.4765   24.0553 C   0  0  0  0  0  0  0  0  0  0  0  0
   18.7915   17.8994   24.7248 H   0  0  0  0  0  0  0  0  0  0  0  0
   19.3333   19.5219   24.3725 H   0  0  0  0  0  0  0  0  0  0  0  0
   19.5814   21.2491   20.3297 O   0  0  0  0  0  0  0  0  0  0  0  0
   18.8987   20.9407   19.6979 H   0  0  0  0  0  0  0  0  0  0  0  0
  1  2  1  0  0  0  0
  1  3  1  0  0  0  0
  1  4  1  0  0  0  0
  4  5  1  0  0  0  0
  4  6  1  0  0  0  0
  4  7  1  0  0  0  0
  7  8  1  0  0  0  0
  7  9  1  0  0  0  0
  7 10  1  0  0  0  0
 10 11  1  0  0  0  0
 10 12  1  0  0  0  0
 10 13  1  0  0  0  0
 13 14  1  0  0  0  0
 13 15  1  0  0  0  0
 15 16  1  0  0  0  0
 15 17  1  0  0  0  0
 15 18  1  0  0  0  0
 18 19  1  0  0  0  0
 18 20  1  0  0  0  0
  1 21  1  0  0  0  0
 18 21  1  0  0  0  0
 21 22  1  0  0  0  0
 21 23  1  0  0  0  0
 13 24  1  0  0  0  0
 24 25  1  0  0  0  0
M  END
> <VConfSearch Rank>
761

> <Conf_Id>
30

> <Delta U+W>
0.000

> <U+W>
10.913

> <U>
13.140

> <W>
-2.227

> <W(PB)>
-4.367

> <W(SA)>
2.140

> <Valence>
19.155

> <Coulomb>
-8.157

> <VdW>
2.142

> <VdW6>
-11.576

> <VdW12>
13.718

> <Bond>
0.294

> <Angle>
3.547

> <Pdih>
15.314

> <Idih>
0.000

> <Tether>
0.000

$$$$
VeraChem MOL file


 25 25  0  0  0  0  0  0  0  0999 V2000     
   21.6377   17.8986   23.6338 C   0  0  0  0  0  0  0  0  0  0  0  0
   21.5297   16.8699   24.0039 H   0  0  0  0  0  0  0  0  0  0  0  0
   22.6488   18.2140   23.9251 H   0  0  0  0  0  0  0  0  0  0  0  0
   20.6172   18.7969   24.3752 C   0  0  0  0  0  0  0  0  0  0  0  0
   20.6392   18.5266   25.4397 H   0  0  0  0  0  0  0  0  0  0  0  0
   20.9556   19.8391   24.3473 H   0  0  0  0  0  0  0  0  0  0  0  0
   19.1602   18.6693   23.8625 C   0  0  0  0  0  0  0  0  0  0  0  0
   18.5106   18.4048   24.7079 H   0  0  0  0  0  0  0  0  0  0  0  0
   19.0616   17.8322   23.1616 H   0  0  0  0  0  0  0  0  0  0  0  0
   18.6026   19.9618   23.2144 C   0  0  0  0  0  0  0  0  0  0  0  0
   17.6524   19.7197   22.7202 H   0  0  0  0  0  0  0  0  0  0  0  0
   18.3541   20.6718   24.0139 H   0  0  0  0  0  0  0  0  0  0  0  0
   19.5243   20.6931   22.2064 C   0  0  0  0  0  0  0  0  0  0  0  0
   20.3553   21.1614   22.7505 H   0  0  0  0  0  0  0  0  0  0  0  0
   20.1082   19.8017   21.0832 C   0  0  0  0  0  0  0  0  0  0  0  0
   19.4065   18.9961   20.8319 H   0  0  0  0  0  0  0  0  0  0  0  0
   20.1896   20.4099   20.1724 H   0  0  0  0  0  0  0  0  0  0  0  0
   21.5267   19.2323   21.3687 C   0  0  0  0  0  0  0  0  0  0  0  0
   22.1479   19.9624   21.9048 H   0  0  0  0  0  0  0  0  0  0  0  0
   22.0161   19.0926   20.3950 H   0  0  0  0  0  0  0  0  0  0  0  0
   21.5511   17.8592   22.0848 C   0  0  0  0  0  0  0  0  0  0  0  0
   22.4334   17.3093   21.7295 H   0  0  0  0  0  0  0  0  0  0  0  0
   20.6957   17.2525   21.7612 H   0  0  0  0  0  0  0  0  0  0  0  0
   18.7527   21.7260   21.6048 O   0  0  0  0  0  0  0  0  0  0  0  0
   19.3614   22.2343   21.0291 H   0  0  0  0  0  0  0  0  0  0  0  0
  1  2  1  0  0  0  0
  1  3  1  0  0  0  0
  1  4  1  0  0  0  0
  4  5  1  0  0  0  0
  4  6  1  0  0  0  0
  4  7  1  0  0  0  0
  7  8  1  0  0  0  0
  7  9  1  0  0  0  0
  7 10  1  0  0  0  0
 10 11  1  0  0  0  0
 10 12  1  0  0  0  0
 10 13  1  0  0  0  0
 13 14  1  0  0  0  0
 13 15  1  0  0  0  0
 15 16  1  0  0  0  0
 15 17  1  0  0  0  0
 15 18  1  0  0  0  0
 18 19  1  0  0  0  0
 18 20  1  0  0  0  0
  1 21  1  0  0  0  0
 18 21  1  0  0  0  0
 21 22  1  0  0  0  0
 21 23  1  0  0  0  0
 13 24  1  0  0  0  0
 24 25  1  0  0  0  0
M  END
> <VConfSearch Rank>
762

> <Conf_Id>
162

> <Delta U+W>
0.219

> <U+W>
11.132

> <U>
13.296

> <W>
-2.164

> <W(PB)>
-4.311

> <W(SA)>
2.148

> <Valence>
18.607

> <Coulomb>
-8.339

> <VdW>
3.028

> <VdW6>
-12.271

> <VdW12>
15.299

> <Bond>
0.423

> <Angle>
4.488

> <Pdih>
13.696

> <Idih>
0.000

> <Tether>
0.000

$$$$
VeraChem MOL file


 25 25  0  0  0  0  0  0  0  0999 V2000     
   19.8869   17.5744   23.6928 C   0  0  0  0  0  0  0  0  0  0  0  0
   20.8354   17.6957   24.2311 H   0  0  0  0  0  0  0  0  0  0  0  0
   19.4159   16.6940   24.1510 H   0  0  0  0  0  0  0  0  0  0  0  0
   18.9712   18.7965   23.9533 C   0  0  0  0  0  0  0  0  0  0  0  0
   18.1987   18.8773   23.1769 H   0  0  0  0  0  0  0  0  0  0  0  0
   18.4262   18.5930   24.8854 H   0  0  0  0  0  0  0  0  0  0  0  0
   19.7120   20.1483   24.1512 C   0  0  0  0  0  0  0  0  0  0  0  0
   20.6516   20.0090   24.7026 H   0  0  0  0  0  0  0  0  0  0  0  0
   19.0797   20.7636   24.8061 H   0  0  0  0  0  0  0  0  0  0  0  0
   19.9485   20.9688   22.8566 C   0  0  0  0  0  0  0  0  0  0  0  0
   19.1155   20.8163   22.1594 H   0  0  0  0  0  0  0  0  0  0  0  0
   19.9041   22.0332   23.1214 H   0  0  0  0  0  0  0  0  0  0  0  0
   21.3051   20.7486   22.1407 C   0  0  0  0  0  0  0  0  0  0  0  0
   22.0916   21.1975   22.7645 H   0  0  0  0  0  0  0  0  0  0  0  0
   21.7102   19.2788   21.8772 C   0  0  0  0  0  0  0  0  0  0  0  0
   22.5660   19.2699   21.1899 H   0  0  0  0  0  0  0  0  0  0  0  0
   22.1009   18.8459   22.8043 H   0  0  0  0  0  0  0  0  0  0  0  0
   20.5847   18.3911   21.2832 C   0  0  0  0  0  0  0  0  0  0  0  0
   20.9348   17.9658   20.3330 H   0  0  0  0  0  0  0  0  0  0  0  0
   19.7108   18.9955   21.0131 H   0  0  0  0  0  0  0  0  0  0  0  0
   20.1445   17.2263   22.2026 C   0  0  0  0  0  0  0  0  0  0  0  0
   20.9088   16.4383   22.1633 H   0  0  0  0  0  0  0  0  0  0  0  0
   19.2339   16.7803   21.7798 H   0  0  0  0  0  0  0  0  0  0  0  0
   21.2559   21.4352   20.8956 O   0  0  0  0  0  0  0  0  0  0  0  0
   22.1179   21.2840   20.4562 H   0  0  0  0  0  0  0  0  0  0  0  0
  1  2  1  0  0  0  0
  1  3  1  0  0  0  0
  1  4  1  0  0  0  0
  4  5  1  0  0  0  0
  4  6  1  0  0  0  0
  4  7  1  0  0  0  0
  7  8  1  0  0  0  0
  7  9  1  0  0  0  0
  7 10  1  0  0  0  0
 10 11  1  0  0  0  0
 10 12  1  0  0  0  0
 10 13  1  0  0  0  0
 13 14  1  0  0  0  0
 13 15  1  0  0  0  0
 15 16  1  0  0  0  0
 15 17  1  0  0  0  0
 15 18  1  0  0  0  0
 18 19  1  0  0  0  0
 18 20  1  0  0  0  0
  1 21  1  0  0  0  0
 18 21  1  0  0  0  0
 21 22  1  0  0  0  0
 21 23  1  0  0  0  0
 13 24  1  0  0  0  0
 24 25  1  0  0  0  0
M  END
> <VConfSearch Rank>
763

> <Conf_Id>
155

> <Delta U+W>
0.339

> <U+W>
11.252

> <U>
13.420

> <W>
-2.167

> <W(PB)>
-4.325

> <W(SA)>
2.157

> <Valence>
18.609

> <Coulomb>
-8.052

> <VdW>
2.863

> <VdW6>
-12.524

> <VdW12>
15.387

> <Bond>
0.430

> <Angle>
4.724

> <Pdih>
13.455

> <Idih>
0.000

> <Tether>
0.000

$$$$
VeraChem MOL file


 25 25  0  0  0  0  0  0  0  0999 V2000     
   18.7740   20.4599   22.6064 C   0  0  0  0  0  0  0  0  0  0  0  0
   18.3147   20.5570   21.6134 H   0  0  0  0  0  0  0  0  0  0  0  0
   18.1734   21.0970   23.2698 H   0  0  0  0  0  0  0  0  0  0  0  0
   18.6047   19.0014   23.1073 C   0  0  0  0  0  0  0  0  0  0  0  0
   18.9562   18.9313   24.1415 H   0  0  0  0  0  0  0  0  0  0  0  0
   17.5276   18.8013   23.1880 H   0  0  0  0  0  0  0  0  0  0  0  0
   19.2166   17.8655   22.2364 C   0  0  0  0  0  0  0  0  0  0  0  0
   18.4708   17.5955   21.4766 H   0  0  0  0  0  0  0  0  0  0  0  0
   19.3409   16.9682   22.8578 H   0  0  0  0  0  0  0  0  0  0  0  0
   20.5456   18.1523   21.4860 C   0  0  0  0  0  0  0  0  0  0  0  0
   20.7394   17.2981   20.8240 H   0  0  0  0  0  0  0  0  0  0  0  0
   20.3921   18.9786   20.7864 H   0  0  0  0  0  0  0  0  0  0  0  0
   21.8267   18.3958   22.3367 C   0  0  0  0  0  0  0  0  0  0  0  0
   22.5319   18.9739   21.7224 H   0  0  0  0  0  0  0  0  0  0  0  0
   21.6627   19.1299   23.6912 C   0  0  0  0  0  0  0  0  0  0  0  0
   21.0131   18.5377   24.3422 H   0  0  0  0  0  0  0  0  0  0  0  0
   22.6347   19.1023   24.2012 H   0  0  0  0  0  0  0  0  0  0  0  0
   21.2082   20.6202   23.6619 C   0  0  0  0  0  0  0  0  0  0  0  0
   22.1097   21.2365   23.5424 H   0  0  0  0  0  0  0  0  0  0  0  0
   20.8003   20.8864   24.6463 H   0  0  0  0  0  0  0  0  0  0  0  0
   20.2095   21.0608   22.5596 C   0  0  0  0  0  0  0  0  0  0  0  0
   20.6637   20.9081   21.5756 H   0  0  0  0  0  0  0  0  0  0  0  0
   20.1037   22.1523   22.6259 H   0  0  0  0  0  0  0  0  0  0  0  0
   22.4089   17.1283   22.6208 O   0  0  0  0  0  0  0  0  0  0  0  0
   22.5595   16.6866   21.7597 H   0  0  0  0  0  0  0  0  0  0  0  0
  1  2  1  0  0  0  0
  1  3  1  0  0  0  0
  1  4  1  0  0  0  0
  4  5  1  0  0  0  0
  4  6  1  0  0  0  0
  4  7  1  0  0  0  0
  7  8  1  0  0  0  0
  7  9  1  0  0  0  0
  7 10  1  0  0  0  0
 10 11  1  0  0  0  0
 10 12  1  0  0  0  0
 10 13  1  0  0  0  0
 13 14  1  0  0  0  0
 13 15  1  0  0  0  0
 15 16  1  0  0  0  0
 15 17  1  0  0  0  0
 15 18  1  0  0  0  0
 18 19  1  0  0  0  0
 18 20  1  0  0  0  0
  1 21  1  0  0  0  0
 18 21  1  0  0  0  0
 21 22  1  0  0  0  0
 21 23  1  0  0  0  0
 13 24  1  0  0  0  0
 24 25  1  0  0  0  0
M  END
> <VConfSearch Rank>
764

> <Conf_Id>
146

> <Delta U+W>
2.553

> <U+W>
13.466

> <U>
15.643

> <W>
-2.176

> <W(PB)>
-4.307

> <W(SA)>
2.131

> <Valence>
18.916

> <Coulomb>
-7.506

> <VdW>
4.232

> <VdW6>
-13.632

> <VdW12>
17.864

> <Bond>
0.735

> <Angle>
9.140

> <Pdih>
9.042

> <Idih>
0.000

> <Tether>
0.000

$$$$
VeraChem MOL file


 25 25  0  0  0  0  0  0  0  0999 V2000     
   20.8377   17.2560   22.4538 C   0  0  0  0  0  0  0  0  0  0  0  0
   21.8736   16.9015   22.5413 H   0  0  0  0  0  0  0  0  0  0  0  0
   20.2348   16.3610   22.2480 H   0  0  0  0  0  0  0  0  0  0  0  0
   20.7183   18.1873   21.2215 C   0  0  0  0  0  0  0  0  0  0  0  0
   20.9897   17.5942   20.3375 H   0  0  0  0  0  0  0  0  0  0  0  0
   19.6718   18.4668   21.0550 H   0  0  0  0  0  0  0  0  0  0  0  0
   21.6230   19.4450   21.2266 C   0  0  0  0  0  0  0  0  0  0  0  0
   21.5143   19.9344   20.2490 H   0  0  0  0  0  0  0  0  0  0  0  0
   22.6750   19.1354   21.2892 H   0  0  0  0  0  0  0  0  0  0  0  0
   21.3446   20.5070   22.3221 C   0  0  0  0  0  0  0  0  0  0  0  0
   21.8192   20.2150   23.2642 H   0  0  0  0  0  0  0  0  0  0  0  0
   21.8699   21.4242   22.0233 H   0  0  0  0  0  0  0  0  0  0  0  0
   19.8472   20.8345   22.5560 C   0  0  0  0  0  0  0  0  0  0  0  0
   19.2621   20.5299   21.6779 H   0  0  0  0  0  0  0  0  0  0  0  0
   19.2460   20.1800   23.8256 C   0  0  0  0  0  0  0  0  0  0  0  0
   19.8526   20.4597   24.6971 H   0  0  0  0  0  0  0  0  0  0  0  0
   18.2563   20.6226   23.9988 H   0  0  0  0  0  0  0  0  0  0  0  0
   19.0638   18.6380   23.8012 C   0  0  0  0  0  0  0  0  0  0  0  0
   18.4272   18.3340   22.9602 H   0  0  0  0  0  0  0  0  0  0  0  0
   18.4961   18.3681   24.7022 H   0  0  0  0  0  0  0  0  0  0  0  0
   20.3846   17.8260   23.8229 C   0  0  0  0  0  0  0  0  0  0  0  0
   20.2486   16.9707   24.4989 H   0  0  0  0  0  0  0  0  0  0  0  0
   21.1888   18.4113   24.2829 H   0  0  0  0  0  0  0  0  0  0  0  0
   19.7214   22.2441   22.7067 O   0  0  0  0  0  0  0  0  0  0  0  0
   18.7643   22.4353   22.7940 H   0  0  0  0  0  0  0  0  0  0  0  0
  1  2  1  0  0  0  0
  1  3  1  0  0  0  0
  1  4  1  0  0  0  0
  4  5  1  0  0  0  0
  4  6  1  0  0  0  0
  4  7  1  0  0  0  0
  7  8  1  0  0  0  0
  7  9  1  0  0  0  0
  7 10  1  0  0  0  0
 10 11  1  0  0  0  0
 10 12  1  0  0  0  0
 10 13  1  0  0  0  0
 13 14  1  0  0  0  0
 13 15  1  0  0  0  0
 15 16  1  0  0  0  0
 15 17  1  0  0  0  0
 15 18  1  0  0  0  0
 18 19  1  0  0  0  0
 18 20  1  0  0  0  0
  1 21  1  0  0  0  0
 18 21  1  0  0  0  0
 21 22  1  0  0  0  0
 21 23  1  0  0  0  0
 13 24  1  0  0  0  0
 24 25  1  0  0  0  0
M  END
> <VConfSearch Rank>
765

> <Conf_Id>
62

> <Delta U+W>
-1.779

> <U+W>
9.134

> <U>
11.364

> <W>
-2.230

> <W(PB)>
-4.359

> <W(SA)>
2.129

> <Valence>
16.582

> <Coulomb>
-8.150

> <VdW>
2.933

> <VdW6>
-12.531

> <VdW12>
15.464

> <Bond>
0.439

> <Angle>
5.099

> <Pdih>
11.044

> <Idih>
0.000

> <Tether>
0.000

$$$$
VeraChem MOL file


 25 25  0  0  0  0  0  0  0  0999 V2000     
   19.9290   18.8826   24.4565 C   0  0  0  0  0  0  0  0  0  0  0  0
   20.7579   19.5979   24.5049 H   0  0  0  0  0  0  0  0  0  0  0  0
   19.6785   18.6782   25.5064 H   0  0  0  0  0  0  0  0  0  0  0  0
   20.4029   17.5483   23.8284 C   0  0  0  0  0  0  0  0  0  0  0  0
   21.2075   17.1532   24.4636 H   0  0  0  0  0  0  0  0  0  0  0  0
   19.5904   16.8114   23.8858 H   0  0  0  0  0  0  0  0  0  0  0  0
   20.9317   17.6014   22.3723 C   0  0  0  0  0  0  0  0  0  0  0  0
   20.1001   17.5664   21.6594 H   0  0  0  0  0  0  0  0  0  0  0  0
   21.4849   16.6689   22.1947 H   0  0  0  0  0  0  0  0  0  0  0  0
   21.8740   18.7926   22.0520 C   0  0  0  0  0  0  0  0  0  0  0  0
   22.3566   19.1696   22.9620 H   0  0  0  0  0  0  0  0  0  0  0  0
   22.6913   18.4017   21.4319 H   0  0  0  0  0  0  0  0  0  0  0  0
   21.2137   19.9540   21.2667 C   0  0  0  0  0  0  0  0  0  0  0  0
   20.7361   19.5353   20.3691 H   0  0  0  0  0  0  0  0  0  0  0  0
   20.1550   20.7877   22.0308 C   0  0  0  0  0  0  0  0  0  0  0  0
   20.5902   21.2229   22.9385 H   0  0  0  0  0  0  0  0  0  0  0  0
   19.9020   21.6450   21.3929 H   0  0  0  0  0  0  0  0  0  0  0  0
   18.8325   20.0386   22.3462 C   0  0  0  0  0  0  0  0  0  0  0  0
   18.6804   19.2140   21.6405 H   0  0  0  0  0  0  0  0  0  0  0  0
   17.9959   20.7237   22.1524 H   0  0  0  0  0  0  0  0  0  0  0  0
   18.6859   19.5398   23.8065 C   0  0  0  0  0  0  0  0  0  0  0  0
   17.8369   18.8450   23.8625 H   0  0  0  0  0  0  0  0  0  0  0  0
   18.4063   20.4009   24.4287 H   0  0  0  0  0  0  0  0  0  0  0  0
   22.2470   20.8430   20.8614 O   0  0  0  0  0  0  0  0  0  0  0  0
   22.8755   20.3196   20.3217 H   0  0  0  0  0  0  0  0  0  0  0  0
  1  2  1  0  0  0  0
  1  3  1  0  0  0  0
  1  4  1  0  0  0  0
  4  5  1  0  0  0  0
  4  6  1  0  0  0  0
  4  7  1  0  0  0  0
  7  8  1  0  0  0  0
  7  9  1  0  0  0  0
  7 10  1  0  0  0  0
 10 11  1  0  0  0  0
 10 12  1  0  0  0  0
 10 13  1  0  0  0  0
 13 14  1  0  0  0  0
 13 15  1  0  0  0  0
 15 16  1  0  0  0  0
 15 17  1  0  0  0  0
 15 18  1  0  0  0  0
 18 19  1  0  0  0  0
 18 20  1  0  0  0  0
  1 21  1  0  0  0  0
 18 21  1  0  0  0  0
 21 22  1  0  0  0  0
 21 23  1  0  0  0  0
 13 24  1  0  0  0  0
 24 25  1  0  0  0  0
M  END
> <VConfSearch Rank>
766

> <Conf_Id>
121

> <Delta U+W>
-1.283

> <U+W>
9.630

> <U>
11.876

> <W>
-2.246

> <W(PB)>
-4.376

> <W(SA)>
2.130

> <Valence>
17.153

> <Coulomb>
-7.966

> <VdW>
2.689

> <VdW6>
-12.458

> <VdW12>
15.147

> <Bond>
0.421

> <Angle>
5.258

> <Pdih>
11.475

> <Idih>
0.000

> <Tether>
0.000

$$$$
VeraChem MOL file


 25 25  0  0  0  0  0  0  0  0999 V2000     
   21.2513   19.7260   21.1070 C   0  0  0  0  0  0  0  0  0  0  0  0
   21.3574   18.6366   21.1631 H   0  0  0  0  0  0  0  0  0  0  0  0
   21.7674   20.0066   20.1788 H   0  0  0  0  0  0  0  0  0  0  0  0
   22.0077   20.4032   22.2770 C   0  0  0  0  0  0  0  0  0  0  0  0
   23.0661   20.1214   22.1909 H   0  0  0  0  0  0  0  0  0  0  0  0
   21.9791   21.4933   22.1453 H   0  0  0  0  0  0  0  0  0  0  0  0
   21.5413   20.0575   23.7143 C   0  0  0  0  0  0  0  0  0  0  0  0
   20.6840   20.6773   24.0004 H   0  0  0  0  0  0  0  0  0  0  0  0
   22.3437   20.3662   24.3982 H   0  0  0  0  0  0  0  0  0  0  0  0
   21.2374   18.5569   23.9701 C   0  0  0  0  0  0  0  0  0  0  0  0
   21.7825   17.9165   23.2662 H   0  0  0  0  0  0  0  0  0  0  0  0
   21.6403   18.3051   24.9601 H   0  0  0  0  0  0  0  0  0  0  0  0
   19.7331   18.1871   23.9881 C   0  0  0  0  0  0  0  0  0  0  0  0
   19.2263   18.8527   24.7016 H   0  0  0  0  0  0  0  0  0  0  0  0
   18.9872   18.2700   22.6324 C   0  0  0  0  0  0  0  0  0  0  0  0
   19.4688   17.6233   21.8886 H   0  0  0  0  0  0  0  0  0  0  0  0
   17.9871   17.8427   22.7829 H   0  0  0  0  0  0  0  0  0  0  0  0
   18.7928   19.7075   22.0801 C   0  0  0  0  0  0  0  0  0  0  0  0
   18.8262   20.4402   22.8944 H   0  0  0  0  0  0  0  0  0  0  0  0
   17.7722   19.7869   21.6812 H   0  0  0  0  0  0  0  0  0  0  0  0
   19.7613   20.1158   20.9407 C   0  0  0  0  0  0  0  0  0  0  0  0
   19.6855   21.1997   20.7798 H   0  0  0  0  0  0  0  0  0  0  0  0
   19.4016   19.6519   20.0121 H   0  0  0  0  0  0  0  0  0  0  0  0
   19.6273   16.8489   24.4577 O   0  0  0  0  0  0  0  0  0  0  0  0
   18.6708   16.6490   24.5299 H   0  0  0  0  0  0  0  0  0  0  0  0
  1  2  1  0  0  0  0
  1  3  1  0  0  0  0
  1  4  1  0  0  0  0
  4  5  1  0  0  0  0
  4  6  1  0  0  0  0
  4  7  1  0  0  0  0
  7  8  1  0  0  0  0
  7  9  1  0  0  0  0
  7 10  1  0  0  0  0
 10 11  1  0  0  0  0
 10 12  1  0  0  0  0
 10 13  1  0  0  0  0
 13 14  1  0  0  0  0
 13 15  1  0  0  0  0
 15 16  1  0  0  0  0
 15 17  1  0  0  0  0
 15 18  1  0  0  0  0
 18 19  1  0  0  0  0
 18 20  1  0  0  0  0
  1 21  1  0  0  0  0
 18 21  1  0  0  0  0
 21 22  1  0  0  0  0
 21 23  1  0  0  0  0
 13 24  1  0  0  0  0
 24 25  1  0  0  0  0
M  END
> <VConfSearch Rank>
767

> <Conf_Id>
24

> <Delta U+W>
-1.236

> <U+W>
9.678

> <U>
11.876

> <W>
-2.199

> <W(PB)>
-4.335

> <W(SA)>
2.137

> <Valence>
17.153

> <Coulomb>
-7.966

> <VdW>
2.689

> <VdW6>
-12.458

> <VdW12>
15.147

> <Bond>
0.421

> <Angle>
5.258

> <Pdih>
11.475

> <Idih>
0.000

> <Tether>
0.000

$$$$
VeraChem MOL file


 25 25  0  0  0  0  0  0  0  0999 V2000     
   18.6220   19.2511   21.2614 C   0  0  0  0  0  0  0  0  0  0  0  0
   18.5068   18.5334   20.4377 H   0  0  0  0  0  0  0  0  0  0  0  0
   17.7984   19.9691   21.1469 H   0  0  0  0  0  0  0  0  0  0  0  0
   18.4221   18.5060   22.6079 C   0  0  0  0  0  0  0  0  0  0  0  0
   18.2045   19.2174   23.4146 H   0  0  0  0  0  0  0  0  0  0  0  0
   17.5061   17.9075   22.5090 H   0  0  0  0  0  0  0  0  0  0  0  0
   19.5677   17.5554   23.0353 C   0  0  0  0  0  0  0  0  0  0  0  0
   20.0264   17.0786   22.1586 H   0  0  0  0  0  0  0  0  0  0  0  0
   19.1066   16.7362   23.6041 H   0  0  0  0  0  0  0  0  0  0  0  0
   20.6460   18.1929   23.9566 C   0  0  0  0  0  0  0  0  0  0  0  0
   20.1907   18.9079   24.6537 H   0  0  0  0  0  0  0  0  0  0  0  0
   21.0417   17.3819   24.5832 H   0  0  0  0  0  0  0  0  0  0  0  0
   21.8396   18.8423   23.2144 C   0  0  0  0  0  0  0  0  0  0  0  0
   21.9806   18.3217   22.2580 H   0  0  0  0  0  0  0  0  0  0  0  0
   21.7111   20.3648   22.9545 C   0  0  0  0  0  0  0  0  0  0  0  0
   21.8343   20.9076   23.9009 H   0  0  0  0  0  0  0  0  0  0  0  0
   22.5560   20.6663   22.3214 H   0  0  0  0  0  0  0  0  0  0  0  0
   20.4016   20.8520   22.2847 C   0  0  0  0  0  0  0  0  0  0  0  0
   20.5527   21.8892   21.9560 H   0  0  0  0  0  0  0  0  0  0  0  0
   19.6028   20.9097   23.0332 H   0  0  0  0  0  0  0  0  0  0  0  0
   19.9611   20.0033   21.0653 C   0  0  0  0  0  0  0  0  0  0  0  0
   20.7436   19.2924   20.7754 H   0  0  0  0  0  0  0  0  0  0  0  0
   19.8529   20.6668   20.1965 H   0  0  0  0  0  0  0  0  0  0  0  0
   23.0118   18.6456   23.9948 O   0  0  0  0  0  0  0  0  0  0  0  0
   22.8558   19.0997   24.8483 H   0  0  0  0  0  0  0  0  0  0  0  0
  1  2  1  0  0  0  0
  1  3  1  0  0  0  0
  1  4  1  0  0  0  0
  4  5  1  0  0  0  0
  4  6  1  0  0  0  0
  4  7  1  0  0  0  0
  7  8  1  0  0  0  0
  7  9  1  0  0  0  0
  7 10  1  0  0  0  0
 10 11  1  0  0  0  0
 10 12  1  0  0  0  0
 10 13  1  0  0  0  0
 13 14  1  0  0  0  0
 13 15  1  0  0  0  0
 15 16  1  0  0  0  0
 15 17  1  0  0  0  0
 15 18  1  0  0  0  0
 18 19  1  0  0  0  0
 18 20  1  0  0  0  0
  1 21  1  0  0  0  0
 18 21  1  0  0  0  0
 21 22  1  0  0  0  0
 21 23  1  0  0  0  0
 13 24  1  0  0  0  0
 24 25  1  0  0  0  0
M  END
> <VConfSearch Rank>
768

> <Conf_Id>
167

> <Delta U+W>
0.388

> <U+W>
11.301

> <U>
13.202

> <W>
-1.901

> <W(PB)>
-4.065

> <W(SA)>
2.163

> <Valence>
18.957

> <Coulomb>
-8.753

> <VdW>
2.998

> <VdW6>
-12.294

> <VdW12>
15.292

> <Bond>
0.419

> <Angle>
4.543

> <Pdih>
13.996

> <Idih>
0.000

> <Tether>
0.000

$$$$
VeraChem MOL file


 25 25  0  0  0  0  0  0  0  0999 V2000     
   20.2370   17.9806   21.0199 C   0  0  0  0  0  0  0  0  0  0  0  0
   19.6944   18.2611   20.1070 H   0  0  0  0  0  0  0  0  0  0  0  0
   20.6831   16.9990   20.8090 H   0  0  0  0  0  0  0  0  0  0  0  0
   19.2172   17.7970   22.1738 C   0  0  0  0  0  0  0  0  0  0  0  0
   18.4486   18.5773   22.1382 H   0  0  0  0  0  0  0  0  0  0  0  0
   18.6694   16.8658   21.9741 H   0  0  0  0  0  0  0  0  0  0  0  0
   19.8290   17.7001   23.5955 C   0  0  0  0  0  0  0  0  0  0  0  0
   20.8631   17.3341   23.5560 H   0  0  0  0  0  0  0  0  0  0  0  0
   19.2721   16.9272   24.1426 H   0  0  0  0  0  0  0  0  0  0  0  0
   19.7376   19.0036   24.4349 C   0  0  0  0  0  0  0  0  0  0  0  0
   18.6902   19.3270   24.4941 H   0  0  0  0  0  0  0  0  0  0  0  0
   20.0291   18.7548   25.4639 H   0  0  0  0  0  0  0  0  0  0  0  0
   20.6136   20.1952   23.9743 C   0  0  0  0  0  0  0  0  0  0  0  0
   21.6559   19.8611   23.8842 H   0  0  0  0  0  0  0  0  0  0  0  0
   20.1527   20.8423   22.6426 C   0  0  0  0  0  0  0  0  0  0  0  0
   19.0976   20.6155   22.4591 H   0  0  0  0  0  0  0  0  0  0  0  0
   20.1831   21.9360   22.7370 H   0  0  0  0  0  0  0  0  0  0  0  0
   21.0046   20.4671   21.4024 C   0  0  0  0  0  0  0  0  0  0  0  0
   21.9323   21.0544   21.4398 H   0  0  0  0  0  0  0  0  0  0  0  0
   20.4794   20.7975   20.4960 H   0  0  0  0  0  0  0  0  0  0  0  0
   21.4011   18.9770   21.2493 C   0  0  0  0  0  0  0  0  0  0  0  0
   22.0180   18.6534   22.0953 H   0  0  0  0  0  0  0  0  0  0  0  0
   22.0673   18.9053   20.3787 H   0  0  0  0  0  0  0  0  0  0  0  0
   20.5524   21.1848   24.9947 O   0  0  0  0  0  0  0  0  0  0  0  0
   21.1630   21.9029   24.7263 H   0  0  0  0  0  0  0  0  0  0  0  0
  1  2  1  0  0  0  0
  1  3  1  0  0  0  0
  1  4  1  0  0  0  0
  4  5  1  0  0  0  0
  4  6  1  0  0  0  0
  4  7  1  0  0  0  0
  7  8  1  0  0  0  0
  7  9  1  0  0  0  0
  7 10  1  0  0  0  0
 10 11  1  0  0  0  0
 10 12  1  0  0  0  0
 10 13  1  0  0  0  0
 13 14  1  0  0  0  0
 13 15  1  0  0  0  0
 15 16  1  0  0  0  0
 15 17  1  0  0  0  0
 15 18  1  0  0  0  0
 18 19  1  0  0  0  0
 18 20  1  0  0  0  0
  1 21  1  0  0  0  0
 18 21  1  0  0  0  0
 21 22  1  0  0  0  0
 21 23  1  0  0  0  0
 13 24  1  0  0  0  0
 24 25  1  0  0  0  0
M  END
> <VConfSearch Rank>
769

> <Conf_Id>
60

> <Delta U+W>
-1.838

> <U+W>
9.075

> <U>
11.150

> <W>
-2.074

> <W(PB)>
-4.196

> <W(SA)>
2.121

> <Valence>
16.582

> <Coulomb>
-8.361

> <VdW>
2.928

> <VdW6>
-12.539

> <VdW12>
15.467

> <Bond>
0.441

> <Angle>
5.093

> <Pdih>
11.049

> <Idih>
0.000

> <Tether>
0.000

$$$$
VeraChem MOL file


 25 25  0  0  0  0  0  0  0  0999 V2000     
   20.1274   20.6519   21.2131 C   0  0  0  0  0  0  0  0  0  0  0  0
   20.2404   20.4205   20.1453 H   0  0  0  0  0  0  0  0  0  0  0  0
   19.9421   21.7336   21.2635 H   0  0  0  0  0  0  0  0  0  0  0  0
   21.4683   20.3790   21.9400 C   0  0  0  0  0  0  0  0  0  0  0  0
   22.2226   21.0387   21.4900 H   0  0  0  0  0  0  0  0  0  0  0  0
   21.4076   20.7031   22.9851 H   0  0  0  0  0  0  0  0  0  0  0  0
   22.0121   18.9309   21.8493 C   0  0  0  0  0  0  0  0  0  0  0  0
   23.0114   18.9233   22.3057 H   0  0  0  0  0  0  0  0  0  0  0  0
   22.1647   18.6664   20.7941 H   0  0  0  0  0  0  0  0  0  0  0  0
   21.1690   17.8212   22.5293 C   0  0  0  0  0  0  0  0  0  0  0  0
   20.3460   17.5171   21.8747 H   0  0  0  0  0  0  0  0  0  0  0  0
   21.8050   16.9286   22.5988 H   0  0  0  0  0  0  0  0  0  0  0  0
   20.6263   18.1804   23.9368 C   0  0  0  0  0  0  0  0  0  0  0  0
   21.2078   19.0111   24.3587 H   0  0  0  0  0  0  0  0  0  0  0  0
   19.1227   18.5520   23.9589 C   0  0  0  0  0  0  0  0  0  0  0  0
   18.5425   17.7366   23.5076 H   0  0  0  0  0  0  0  0  0  0  0  0
   18.8060   18.5943   25.0095 H   0  0  0  0  0  0  0  0  0  0  0  0
   18.7230   19.8985   23.2961 C   0  0  0  0  0  0  0  0  0  0  0  0
   19.2611   20.7354   23.7595 H   0  0  0  0  0  0  0  0  0  0  0  0
   17.6646   20.0710   23.5345 H   0  0  0  0  0  0  0  0  0  0  0  0
   18.8642   19.9314   21.7521 C   0  0  0  0  0  0  0  0  0  0  0  0
   17.9927   20.4592   21.3411 H   0  0  0  0  0  0  0  0  0  0  0  0
   18.7897   18.9198   21.3375 H   0  0  0  0  0  0  0  0  0  0  0  0
   20.7949   17.0479   24.7813 O   0  0  0  0  0  0  0  0  0  0  0  0
   21.7569   16.8638   24.8151 H   0  0  0  0  0  0  0  0  0  0  0  0
  1  2  1  0  0  0  0
  1  3  1  0  0  0  0
  1  4  1  0  0  0  0
  4  5  1  0  0  0  0
  4  6  1  0  0  0  0
  4  7  1  0  0  0  0
  7  8  1  0  0  0  0
  7  9  1  0  0  0  0
  7 10  1  0  0  0  0
 10 11  1  0  0  0  0
 10 12  1  0  0  0  0
 10 13  1  0  0  0  0
 13 14  1  0  0  0  0
 13 15  1  0  0  0  0
 15 16  1  0  0  0  0
 15 17  1  0  0  0  0
 15 18  1  0  0  0  0
 18 19  1  0  0  0  0
 18 20  1  0  0  0  0
  1 21  1  0  0  0  0
 18 21  1  0  0  0  0
 21 22  1  0  0  0  0
 21 23  1  0  0  0  0
 13 24  1  0  0  0  0
 24 25  1  0  0  0  0
M  END
> <VConfSearch Rank>
770

> <Conf_Id>
129

> <Delta U+W>
-1.846

> <U+W>
9.067

> <U>
11.150

> <W>
-2.083

> <W(PB)>
-4.217

> <W(SA)>
2.134

> <Valence>
16.583

> <Coulomb>
-8.361

> <VdW>
2.928

> <VdW6>
-12.539

> <VdW12>
15.467

> <Bond>
0.441

> <Angle>
5.093

> <Pdih>
11.049

> <Idih>
0.000

> <Tether>
0.000

$$$$
VeraChem MOL file


 25 25  0  0  0  0  0  0  0  0999 V2000     
   18.2049   19.3110   22.7188 C   0  0  0  0  0  0  0  0  0  0  0  0
   17.6959   20.0531   23.3486 H   0  0  0  0  0  0  0  0  0  0  0  0
   17.4047   18.7461   22.2214 H   0  0  0  0  0  0  0  0  0  0  0  0
   18.9788   18.3182   23.6219 C   0  0  0  0  0  0  0  0  0  0  0  0
   18.2410   17.8212   24.2664 H   0  0  0  0  0  0  0  0  0  0  0  0
   19.4074   17.5092   23.0195 H   0  0  0  0  0  0  0  0  0  0  0  0
   20.0561   18.9356   24.5485 C   0  0  0  0  0  0  0  0  0  0  0  0
   20.4290   18.1343   25.2012 H   0  0  0  0  0  0  0  0  0  0  0  0
   19.5835   19.6681   25.2168 H   0  0  0  0  0  0  0  0  0  0  0  0
   21.2798   19.5961   23.8619 C   0  0  0  0  0  0  0  0  0  0  0  0
   21.0302   20.6131   23.5425 H   0  0  0  0  0  0  0  0  0  0  0  0
   22.0474   19.7294   24.6362 H   0  0  0  0  0  0  0  0  0  0  0  0
   21.8810   18.7937   22.6790 C   0  0  0  0  0  0  0  0  0  0  0  0
   21.5720   17.7423   22.7500 H   0  0  0  0  0  0  0  0  0  0  0  0
   21.5046   19.3432   21.2800 C   0  0  0  0  0  0  0  0  0  0  0  0
   21.7846   20.4028   21.2161 H   0  0  0  0  0  0  0  0  0  0  0  0
   22.1283   18.8249   20.5393 H   0  0  0  0  0  0  0  0  0  0  0  0
   20.0254   19.1794   20.8371 C   0  0  0  0  0  0  0  0  0  0  0  0
   19.7298   18.1224   20.8499 H   0  0  0  0  0  0  0  0  0  0  0  0
   19.9718   19.4790   19.7815 H   0  0  0  0  0  0  0  0  0  0  0  0
   19.0117   20.0522   21.6213 C   0  0  0  0  0  0  0  0  0  0  0  0
   18.2840   20.4574   20.9048 H   0  0  0  0  0  0  0  0  0  0  0  0
   19.5062   20.9373   22.0369 H   0  0  0  0  0  0  0  0  0  0  0  0
   23.2983   18.8421   22.7842 O   0  0  0  0  0  0  0  0  0  0  0  0
   23.5488   19.7862   22.7140 H   0  0  0  0  0  0  0  0  0  0  0  0
  1  2  1  0  0  0  0
  1  3  1  0  0  0  0
  1  4  1  0  0  0  0
  4  5  1  0  0  0  0
  4  6  1  0  0  0  0
  4  7  1  0  0  0  0
  7  8  1  0  0  0  0
  7  9  1  0  0  0  0
  7 10  1  0  0  0  0
 10 11  1  0  0  0  0
 10 12  1  0  0  0  0
 10 13  1  0  0  0  0
 13 14  1  0  0  0  0
 13 15  1  0  0  0  0
 15 16  1  0  0  0  0
 15 17  1  0  0  0  0
 15 18  1  0  0  0  0
 18 19  1  0  0  0  0
 18 20  1  0  0  0  0
  1 21  1  0  0  0  0
 18 21  1  0  0  0  0
 21 22  1  0  0  0  0
 21 23  1  0  0  0  0
 13 24  1  0  0  0  0
 24 25  1  0  0  0  0
M  END
> <VConfSearch Rank>
771

> <Conf_Id>
140

> <Delta U+W>
-1.702

> <U+W>
9.211

> <U>
11.181

> <W>
-1.969

> <W(PB)>
-4.093

> <W(SA)>
2.124

> <Valence>
16.954

> <Coulomb>
-8.661

> <VdW>
2.887

> <VdW6>
-12.561

> <VdW12>
15.448

> <Bond>
0.433

> <Angle>
5.120

> <Pdih>
11.401

> <Idih>
0.000

> <Tether>
0.000

$$$$
VeraChem MOL file


 25 25  0  0  0  0  0  0  0  0999 V2000     
   22.1710   19.3624   21.8432 C   0  0  0  0  0  0  0  0  0  0  0  0
   22.3151   19.7393   20.8216 H   0  0  0  0  0  0  0  0  0  0  0  0
   23.1785   19.1451   22.2234 H   0  0  0  0  0  0  0  0  0  0  0  0
   21.3916   18.0234   21.7794 C   0  0  0  0  0  0  0  0  0  0  0  0
   20.5905   18.0780   21.0337 H   0  0  0  0  0  0  0  0  0  0  0  0
   22.0826   17.2670   21.3825 H   0  0  0  0  0  0  0  0  0  0  0  0
   20.8407   17.5091   23.1345 C   0  0  0  0  0  0  0  0  0  0  0  0
   21.4293   17.9001   23.9744 H   0  0  0  0  0  0  0  0  0  0  0  0
   20.9918   16.4212   23.1609 H   0  0  0  0  0  0  0  0  0  0  0  0
   19.3251   17.7616   23.3589 C   0  0  0  0  0  0  0  0  0  0  0  0
   18.7596   17.3228   22.5265 H   0  0  0  0  0  0  0  0  0  0  0  0
   19.0270   17.1966   24.2523 H   0  0  0  0  0  0  0  0  0  0  0  0
   18.8838   19.2327   23.5638 C   0  0  0  0  0  0  0  0  0  0  0  0
   19.4728   19.6774   24.3769 H   0  0  0  0  0  0  0  0  0  0  0  0
   18.9971   20.1148   22.2935 C   0  0  0  0  0  0  0  0  0  0  0  0
   18.9867   19.4893   21.3950 H   0  0  0  0  0  0  0  0  0  0  0  0
   18.0985   20.7404   22.2059 H   0  0  0  0  0  0  0  0  0  0  0  0
   20.2174   21.0715   22.2653 C   0  0  0  0  0  0  0  0  0  0  0  0
   19.9881   21.9278   22.9144 H   0  0  0  0  0  0  0  0  0  0  0  0
   20.3232   21.4851   21.2532 H   0  0  0  0  0  0  0  0  0  0  0  0
   21.5775   20.4893   22.7252 C   0  0  0  0  0  0  0  0  0  0  0  0
   21.5237   20.1666   23.7713 H   0  0  0  0  0  0  0  0  0  0  0  0
   22.3011   21.3158   22.7283 H   0  0  0  0  0  0  0  0  0  0  0  0
   17.5212   19.2119   23.9701 O   0  0  0  0  0  0  0  0  0  0  0  0
   17.0188   18.8086   23.2327 H   0  0  0  0  0  0  0  0  0  0  0  0
  1  2  1  0  0  0  0
  1  3  1  0  0  0  0
  1  4  1  0  0  0  0
  4  5  1  0  0  0  0
  4  6  1  0  0  0  0
  4  7  1  0  0  0  0
  7  8  1  0  0  0  0
  7  9  1  0  0  0  0
  7 10  1  0  0  0  0
 10 11  1  0  0  0  0
 10 12  1  0  0  0  0
 10 13  1  0  0  0  0
 13 14  1  0  0  0  0
 13 15  1  0  0  0  0
 15 16  1  0  0  0  0
 15 17  1  0  0  0  0
 15 18  1  0  0  0  0
 18 19  1  0  0  0  0
 18 20  1  0  0  0  0
  1 21  1  0  0  0  0
 18 21  1  0  0  0  0
 21 22  1  0  0  0  0
 21 23  1  0  0  0  0
 13 24  1  0  0  0  0
 24 25  1  0  0  0  0
M  END
> <VConfSearch Rank>
772

> <Conf_Id>
68

> <Delta U+W>
-1.765

> <U+W>
9.148

> <U>
11.181

> <W>
-2.032

> <W(PB)>
-4.147

> <W(SA)>
2.114

> <Valence>
16.955

> <Coulomb>
-8.661

> <VdW>
2.887

> <VdW6>
-12.561

> <VdW12>
15.448

> <Bond>
0.433

> <Angle>
5.121

> <Pdih>
11.402

> <Idih>
0.000

> <Tether>
0.000

$$$$
VeraChem MOL file


 25 25  0  0  0  0  0  0  0  0999 V2000     
   18.5993   19.5067   21.8292 C   0  0  0  0  0  0  0  0  0  0  0  0
   17.6909   19.6807   21.2363 H   0  0  0  0  0  0  0  0  0  0  0  0
   18.3374   19.8540   22.8350 H   0  0  0  0  0  0  0  0  0  0  0  0
   19.7372   20.3747   21.2316 C   0  0  0  0  0  0  0  0  0  0  0  0
   20.3420   19.7987   20.5195 H   0  0  0  0  0  0  0  0  0  0  0  0
   19.2680   21.1670   20.6324 H   0  0  0  0  0  0  0  0  0  0  0  0
   20.6405   21.0757   22.2801 C   0  0  0  0  0  0  0  0  0  0  0  0
   20.0169   21.6829   22.9505 H   0  0  0  0  0  0  0  0  0  0  0  0
   21.2798   21.7910   21.7447 H   0  0  0  0  0  0  0  0  0  0  0  0
   21.5636   20.1602   23.1277 C   0  0  0  0  0  0  0  0  0  0  0  0
   22.2158   19.5671   22.4755 H   0  0  0  0  0  0  0  0  0  0  0  0
   22.2393   20.8225   23.6858 H   0  0  0  0  0  0  0  0  0  0  0  0
   20.8158   19.2519   24.1380 C   0  0  0  0  0  0  0  0  0  0  0  0
   19.8158   19.6637   24.3166 H   0  0  0  0  0  0  0  0  0  0  0  0
   20.6853   17.7707   23.7055 C   0  0  0  0  0  0  0  0  0  0  0  0
   21.6494   17.2726   23.8729 H   0  0  0  0  0  0  0  0  0  0  0  0
   19.9709   17.2757   24.3761 H   0  0  0  0  0  0  0  0  0  0  0  0
   20.2715   17.4957   22.2367 C   0  0  0  0  0  0  0  0  0  0  0  0
   20.3027   16.4080   22.0865 H   0  0  0  0  0  0  0  0  0  0  0  0
   21.0243   17.8918   21.5456 H   0  0  0  0  0  0  0  0  0  0  0  0
   18.8575   17.9776   21.8262 C   0  0  0  0  0  0  0  0  0  0  0  0
   18.1077   17.4882   22.4626 H   0  0  0  0  0  0  0  0  0  0  0  0
   18.6683   17.6086   20.8088 H   0  0  0  0  0  0  0  0  0  0  0  0
   21.5181   19.2757   25.3745 O   0  0  0  0  0  0  0  0  0  0  0  0
   22.4127   18.9218   25.1918 H   0  0  0  0  0  0  0  0  0  0  0  0
  1  2  1  0  0  0  0
  1  3  1  0  0  0  0
  1  4  1  0  0  0  0
  4  5  1  0  0  0  0
  4  6  1  0  0  0  0
  4  7  1  0  0  0  0
  7  8  1  0  0  0  0
  7  9  1  0  0  0  0
  7 10  1  0  0  0  0
 10 11  1  0  0  0  0
 10 12  1  0  0  0  0
 10 13  1  0  0  0  0
 13 14  1  0  0  0  0
 13 15  1  0  0  0  0
 15 16  1  0  0  0  0
 15 17  1  0  0  0  0
 15 18  1  0  0  0  0
 18 19  1  0  0  0  0
 18 20  1  0  0  0  0
  1 21  1  0  0  0  0
 18 21  1  0  0  0  0
 21 22  1  0  0  0  0
 21 23  1  0  0  0  0
 13 24  1  0  0  0  0
 24 25  1  0  0  0  0
M  END
> <VConfSearch Rank>
773

> <Conf_Id>
165

> <Delta U+W>
-1.999

> <U+W>
8.915

> <U>
10.935

> <W>
-2.020

> <W(PB)>
-4.135

> <W(SA)>
2.115

> <Valence>
16.757

> <Coulomb>
-8.731

> <VdW>
2.908

> <VdW6>
-12.597

> <VdW12>
15.506

> <Bond>
0.434

> <Angle>
5.069

> <Pdih>
11.254

> <Idih>
0.000

> <Tether>
0.000

$$$$
VeraChem MOL file


 25 25  0  0  0  0  0  0  0  0999 V2000     
   18.8837   18.0251   22.7489 C   0  0  0  0  0  0  0  0  0  0  0  0
   18.0368   17.3400   22.8925 H   0  0  0  0  0  0  0  0  0  0  0  0
   18.8907   18.2252   21.6716 H   0  0  0  0  0  0  0  0  0  0  0  0
   20.1638   17.2595   23.1740 C   0  0  0  0  0  0  0  0  0  0  0  0
   19.9299   16.7006   24.0905 H   0  0  0  0  0  0  0  0  0  0  0  0
   20.3936   16.4997   22.4148 H   0  0  0  0  0  0  0  0  0  0  0  0
   21.4331   18.1012   23.4582 C   0  0  0  0  0  0  0  0  0  0  0  0
   22.2030   17.4150   23.8363 H   0  0  0  0  0  0  0  0  0  0  0  0
   21.2518   18.7961   24.2861 H   0  0  0  0  0  0  0  0  0  0  0  0
   22.0393   18.8512   22.2441 C   0  0  0  0  0  0  0  0  0  0  0  0
   22.9822   19.3063   22.5762 H   0  0  0  0  0  0  0  0  0  0  0  0
   22.3118   18.1178   21.4743 H   0  0  0  0  0  0  0  0  0  0  0  0
   21.1728   19.9561   21.5913 C   0  0  0  0  0  0  0  0  0  0  0  0
   20.4092   19.4899   20.9576 H   0  0  0  0  0  0  0  0  0  0  0  0
   20.4784   20.9111   22.5963 C   0  0  0  0  0  0  0  0  0  0  0  0
   21.0048   20.9155   23.5580 H   0  0  0  0  0  0  0  0  0  0  0  0
   20.5677   21.9381   22.2171 H   0  0  0  0  0  0  0  0  0  0  0  0
   18.9651   20.6373   22.8060 C   0  0  0  0  0  0  0  0  0  0  0  0
   18.4528   20.6687   21.8346 H   0  0  0  0  0  0  0  0  0  0  0  0
   18.5512   21.4747   23.3842 H   0  0  0  0  0  0  0  0  0  0  0  0
   18.5906   19.3246   23.5432 C   0  0  0  0  0  0  0  0  0  0  0  0
   17.5086   19.3601   23.7304 H   0  0  0  0  0  0  0  0  0  0  0  0
   19.0515   19.2922   24.5387 H   0  0  0  0  0  0  0  0  0  0  0  0
   22.0259   20.7262   20.7518 O   0  0  0  0  0  0  0  0  0  0  0  0
   22.4154   20.1062   20.1004 H   0  0  0  0  0  0  0  0  0  0  0  0
  1  2  1  0  0  0  0
  1  3  1  0  0  0  0
  1  4  1  0  0  0  0
  4  5  1  0  0  0  0
  4  6  1  0  0  0  0
  4  7  1  0  0  0  0
  7  8  1  0  0  0  0
  7  9  1  0  0  0  0
  7 10  1  0  0  0  0
 10 11  1  0  0  0  0
 10 12  1  0  0  0  0
 10 13  1  0  0  0  0
 13 14  1  0  0  0  0
 13 15  1  0  0  0  0
 15 16  1  0  0  0  0
 15 17  1  0  0  0  0
 15 18  1  0  0  0  0
 18 19  1  0  0  0  0
 18 20  1  0  0  0  0
  1 21  1  0  0  0  0
 18 21  1  0  0  0  0
 21 22  1  0  0  0  0
 21 23  1  0  0  0  0
 13 24  1  0  0  0  0
 24 25  1  0  0  0  0
M  END
> <VConfSearch Rank>
774

> <Conf_Id>
133

> <Delta U+W>
-2.139

> <U+W>
8.774

> <U>
10.905

> <W>
-2.131

> <W(PB)>
-4.281

> <W(SA)>
2.150

> <Valence>
16.378

> <Coulomb>
-8.448

> <VdW>
2.976

> <VdW6>
-12.570

> <VdW12>
15.545

> <Bond>
0.439

> <Angle>
5.049

> <Pdih>
10.889

> <Idih>
0.000

> <Tether>
0.000

$$$$
VeraChem MOL file


 25 25  0  0  0  0  0  0  0  0999 V2000     
   18.6804   18.4310   22.2961 C   0  0  0  0  0  0  0  0  0  0  0  0
   17.7015   17.9491   22.1674 H   0  0  0  0  0  0  0  0  0  0  0  0
   19.1323   18.3974   21.2984 H   0  0  0  0  0  0  0  0  0  0  0  0
   19.5061   17.5820   23.2976 C   0  0  0  0  0  0  0  0  0  0  0  0
   19.4101   17.9713   24.3193 H   0  0  0  0  0  0  0  0  0  0  0  0
   19.0563   16.5802   23.3303 H   0  0  0  0  0  0  0  0  0  0  0  0
   20.9987   17.3954   22.9180 C   0  0  0  0  0  0  0  0  0  0  0  0
   21.0670   16.9590   21.9120 H   0  0  0  0  0  0  0  0  0  0  0  0
   21.4237   16.6419   23.5951 H   0  0  0  0  0  0  0  0  0  0  0  0
   21.8993   18.6573   22.9914 C   0  0  0  0  0  0  0  0  0  0  0  0
   21.8705   19.0917   23.9977 H   0  0  0  0  0  0  0  0  0  0  0  0
   22.9354   18.3188   22.8560 H   0  0  0  0  0  0  0  0  0  0  0  0
   21.5912   19.7322   21.9172 C   0  0  0  0  0  0  0  0  0  0  0  0
   21.0351   19.2653   21.0958 H   0  0  0  0  0  0  0  0  0  0  0  0
   20.8002   20.9572   22.4382 C   0  0  0  0  0  0  0  0  0  0  0  0
   21.4947   21.6036   22.9918 H   0  0  0  0  0  0  0  0  0  0  0  0
   20.4586   21.5467   21.5777 H   0  0  0  0  0  0  0  0  0  0  0  0
   19.5894   20.6759   23.3650 C   0  0  0  0  0  0  0  0  0  0  0  0
   19.1980   21.6476   23.6955 H   0  0  0  0  0  0  0  0  0  0  0  0
   19.9190   20.1829   24.2867 H   0  0  0  0  0  0  0  0  0  0  0  0
   18.4117   19.8960   22.7287 C   0  0  0  0  0  0  0  0  0  0  0  0
   18.0271   20.4576   21.8665 H   0  0  0  0  0  0  0  0  0  0  0  0
   17.5937   19.8830   23.4620 H   0  0  0  0  0  0  0  0  0  0  0  0
   22.8236   20.2128   21.3922 O   0  0  0  0  0  0  0  0  0  0  0  0
   22.5987   20.8550   20.6869 H   0  0  0  0  0  0  0  0  0  0  0  0
  1  2  1  0  0  0  0
  1  3  1  0  0  0  0
  1  4  1  0  0  0  0
  4  5  1  0  0  0  0
  4  6  1  0  0  0  0
  4  7  1  0  0  0  0
  7  8  1  0  0  0  0
  7  9  1  0  0  0  0
  7 10  1  0  0  0  0
 10 11  1  0  0  0  0
 10 12  1  0  0  0  0
 10 13  1  0  0  0  0
 13 14  1  0  0  0  0
 13 15  1  0  0  0  0
 15 16  1  0  0  0  0
 15 17  1  0  0  0  0
 15 18  1  0  0  0  0
 18 19  1  0  0  0  0
 18 20  1  0  0  0  0
  1 21  1  0  0  0  0
 18 21  1  0  0  0  0
 21 22  1  0  0  0  0
 21 23  1  0  0  0  0
 13 24  1  0  0  0  0
 24 25  1  0  0  0  0
M  END
> <VConfSearch Rank>
775

> <Conf_Id>
95

> <Delta U+W>
-2.190

> <U+W>
8.723

> <U>
10.905

> <W>
-2.182

> <W(PB)>
-4.296

> <W(SA)>
2.114

> <Valence>
16.377

> <Coulomb>
-8.448

> <VdW>
2.976

> <VdW6>
-12.570

> <VdW12>
15.546

> <Bond>
0.439

> <Angle>
5.049

> <Pdih>
10.889

> <Idih>
0.000

> <Tether>
0.000

$$$$
VeraChem MOL file


 25 25  0  0  0  0  0  0  0  0999 V2000     
   18.8160   19.5863   21.6697 C   0  0  0  0  0  0  0  0  0  0  0  0
   17.9227   19.7179   21.0438 H   0  0  0  0  0  0  0  0  0  0  0  0
   19.2166   20.6012   21.7570 H   0  0  0  0  0  0  0  0  0  0  0  0
   19.7937   18.6672   20.8800 C   0  0  0  0  0  0  0  0  0  0  0  0
   19.1842   17.9439   20.3210 H   0  0  0  0  0  0  0  0  0  0  0  0
   20.3083   19.2665   20.1168 H   0  0  0  0  0  0  0  0  0  0  0  0
   20.8407   17.8500   21.6816 C   0  0  0  0  0  0  0  0  0  0  0  0
   21.3513   17.1808   20.9757 H   0  0  0  0  0  0  0  0  0  0  0  0
   20.3222   17.1620   22.3568 H   0  0  0  0  0  0  0  0  0  0  0  0
   21.9443   18.6456   22.4401 C   0  0  0  0  0  0  0  0  0  0  0  0
   22.3650   18.0062   23.2272 H   0  0  0  0  0  0  0  0  0  0  0  0
   22.7625   18.8177   21.7286 H   0  0  0  0  0  0  0  0  0  0  0  0
   21.5697   20.0200   23.0504 C   0  0  0  0  0  0  0  0  0  0  0  0
   21.1955   20.6587   22.2437 H   0  0  0  0  0  0  0  0  0  0  0  0
   20.5500   20.0150   24.2255 C   0  0  0  0  0  0  0  0  0  0  0  0
   21.1083   19.8497   25.1567 H   0  0  0  0  0  0  0  0  0  0  0  0
   20.1209   21.0212   24.3135 H   0  0  0  0  0  0  0  0  0  0  0  0
   19.3966   18.9757   24.2011 C   0  0  0  0  0  0  0  0  0  0  0  0
   18.8561   19.0576   25.1540 H   0  0  0  0  0  0  0  0  0  0  0  0
   19.8187   17.9663   24.2327 H   0  0  0  0  0  0  0  0  0  0  0  0
   18.3406   19.0991   23.0639 C   0  0  0  0  0  0  0  0  0  0  0  0
   17.5717   19.8058   23.4049 H   0  0  0  0  0  0  0  0  0  0  0  0
   17.8239   18.1362   22.9532 H   0  0  0  0  0  0  0  0  0  0  0  0
   22.7698   20.6112   23.5348 O   0  0  0  0  0  0  0  0  0  0  0  0
   23.3835   20.6704   22.7733 H   0  0  0  0  0  0  0  0  0  0  0  0
  1  2  1  0  0  0  0
  1  3  1  0  0  0  0
  1  4  1  0  0  0  0
  4  5  1  0  0  0  0
  4  6  1  0  0  0  0
  4  7  1  0  0  0  0
  7  8  1  0  0  0  0
  7  9  1  0  0  0  0
  7 10  1  0  0  0  0
 10 11  1  0  0  0  0
 10 12  1  0  0  0  0
 10 13  1  0  0  0  0
 13 14  1  0  0  0  0
 13 15  1  0  0  0  0
 15 16  1  0  0  0  0
 15 17  1  0  0  0  0
 15 18  1  0  0  0  0
 18 19  1  0  0  0  0
 18 20  1  0  0  0  0
  1 21  1  0  0  0  0
 18 21  1  0  0  0  0
 21 22  1  0  0  0  0
 21 23  1  0  0  0  0
 13 24  1  0  0  0  0
 24 25  1  0  0  0  0
M  END
> <VConfSearch Rank>
776

> <Conf_Id>
161

> <Delta U+W>
2.120

> <U+W>
13.033

> <U>
15.076

> <W>
-2.043

> <W(PB)>
-4.186

> <W(SA)>
2.143

> <Valence>
18.884

> <Coulomb>
-8.074

> <VdW>
4.266

> <VdW6>
-13.486

> <VdW12>
17.752

> <Bond>
0.713

> <Angle>
8.955

> <Pdih>
9.215

> <Idih>
0.000

> <Tether>
0.000

$$$$
VeraChem MOL file


 25 25  0  0  0  0  0  0  0  0999 V2000     
   20.3567   17.3008   23.1748 C   0  0  0  0  0  0  0  0  0  0  0  0
   20.1682   16.3148   23.6212 H   0  0  0  0  0  0  0  0  0  0  0  0
   21.3477   17.2130   22.7117 H   0  0  0  0  0  0  0  0  0  0  0  0
   20.3987   18.3439   24.3192 C   0  0  0  0  0  0  0  0  0  0  0  0
   19.3894   18.7094   24.5514 H   0  0  0  0  0  0  0  0  0  0  0  0
   20.7297   17.8126   25.2221 H   0  0  0  0  0  0  0  0  0  0  0  0
   21.3878   19.5231   24.1034 C   0  0  0  0  0  0  0  0  0  0  0  0
   22.3064   19.1839   23.6059 H   0  0  0  0  0  0  0  0  0  0  0  0
   21.7047   19.8577   25.1008 H   0  0  0  0  0  0  0  0  0  0  0  0
   20.7954   20.7613   23.3820 C   0  0  0  0  0  0  0  0  0  0  0  0
   19.7417   20.8853   23.6602 H   0  0  0  0  0  0  0  0  0  0  0  0
   21.2996   21.6518   23.7799 H   0  0  0  0  0  0  0  0  0  0  0  0
   20.9715   20.8067   21.8430 C   0  0  0  0  0  0  0  0  0  0  0  0
   22.0363   20.9788   21.6301 H   0  0  0  0  0  0  0  0  0  0  0  0
   20.5418   19.5424   21.0635 C   0  0  0  0  0  0  0  0  0  0  0  0
   20.5025   19.7936   19.9951 H   0  0  0  0  0  0  0  0  0  0  0  0
   21.3358   18.7915   21.1379 H   0  0  0  0  0  0  0  0  0  0  0  0
   19.1732   18.9458   21.4882 C   0  0  0  0  0  0  0  0  0  0  0  0
   18.5189   18.9004   20.6070 H   0  0  0  0  0  0  0  0  0  0  0  0
   18.6530   19.6061   22.1914 H   0  0  0  0  0  0  0  0  0  0  0  0
   19.2662   17.5249   22.0940 C   0  0  0  0  0  0  0  0  0  0  0  0
   19.4371   16.8055   21.2816 H   0  0  0  0  0  0  0  0  0  0  0  0
   18.2866   17.2677   22.5195 H   0  0  0  0  0  0  0  0  0  0  0  0
   20.2224   21.9080   21.3485 O   0  0  0  0  0  0  0  0  0  0  0  0
   19.2817   21.6513   21.4322 H   0  0  0  0  0  0  0  0  0  0  0  0
  1  2  1  0  0  0  0
  1  3  1  0  0  0  0
  1  4  1  0  0  0  0
  4  5  1  0  0  0  0
  4  6  1  0  0  0  0
  4  7  1  0  0  0  0
  7  8  1  0  0  0  0
  7  9  1  0  0  0  0
  7 10  1  0  0  0  0
 10 11  1  0  0  0  0
 10 12  1  0  0  0  0
 10 13  1  0  0  0  0
 13 14  1  0  0  0  0
 13 15  1  0  0  0  0
 15 16  1  0  0  0  0
 15 17  1  0  0  0  0
 15 18  1  0  0  0  0
 18 19  1  0  0  0  0
 18 20  1  0  0  0  0
  1 21  1  0  0  0  0
 18 21  1  0  0  0  0
 21 22  1  0  0  0  0
 21 23  1  0  0  0  0
 13 24  1  0  0  0  0
 24 25  1  0  0  0  0
M  END
> <VConfSearch Rank>
777

> <Conf_Id>
164

> <Delta U+W>
0.008

> <U+W>
10.922

> <U>
12.433

> <W>
-1.511

> <W(PB)>
-3.669

> <W(SA)>
2.157

> <Valence>
19.007

> <Coulomb>
-9.373

> <VdW>
2.799

> <VdW6>
-12.597

> <VdW12>
15.396

> <Bond>
0.425

> <Angle>
4.784

> <Pdih>
13.799

> <Idih>
0.000

> <Tether>
0.000

$$$$
VeraChem MOL file


 25 25  0  0  0  0  0  0  0  0999 V2000     
   20.8122   17.5846   23.2777 C   0  0  0  0  0  0  0  0  0  0  0  0
   19.9451   17.3855   22.6380 H   0  0  0  0  0  0  0  0  0  0  0  0
   21.1065   16.5975   23.6593 H   0  0  0  0  0  0  0  0  0  0  0  0
   20.3979   18.4444   24.4979 C   0  0  0  0  0  0  0  0  0  0  0  0
   19.6384   17.8795   25.0555 H   0  0  0  0  0  0  0  0  0  0  0  0
   21.2536   18.5436   25.1793 H   0  0  0  0  0  0  0  0  0  0  0  0
   19.8209   19.8533   24.2065 C   0  0  0  0  0  0  0  0  0  0  0  0
   20.6300   20.5771   24.0559 H   0  0  0  0  0  0  0  0  0  0  0  0
   19.3162   20.1922   25.1216 H   0  0  0  0  0  0  0  0  0  0  0  0
   18.8029   19.9238   23.0372 C   0  0  0  0  0  0  0  0  0  0  0  0
   18.3244   18.9505   22.8741 H   0  0  0  0  0  0  0  0  0  0  0  0
   17.9931   20.5966   23.3498 H   0  0  0  0  0  0  0  0  0  0  0  0
   19.3717   20.4868   21.7106 C   0  0  0  0  0  0  0  0  0  0  0  0
   19.8439   21.4563   21.9246 H   0  0  0  0  0  0  0  0  0  0  0  0
   20.4034   19.6009   20.9681 C   0  0  0  0  0  0  0  0  0  0  0  0
   19.9776   18.6171   20.7369 H   0  0  0  0  0  0  0  0  0  0  0  0
   20.5891   20.0730   19.9939 H   0  0  0  0  0  0  0  0  0  0  0  0
   21.7750   19.4592   21.6804 C   0  0  0  0  0  0  0  0  0  0  0  0
   21.9515   20.3105   22.3476 H   0  0  0  0  0  0  0  0  0  0  0  0
   22.5654   19.5369   20.9213 H   0  0  0  0  0  0  0  0  0  0  0  0
   21.9947   18.1223   22.4336 C   0  0  0  0  0  0  0  0  0  0  0  0
   22.8837   18.2149   23.0720 H   0  0  0  0  0  0  0  0  0  0  0  0
   22.2429   17.3541   21.6886 H   0  0  0  0  0  0  0  0  0  0  0  0
   18.2775   20.7036   20.8303 O   0  0  0  0  0  0  0  0  0  0  0  0
   17.8810   19.8245   20.6609 H   0  0  0  0  0  0  0  0  0  0  0  0
  1  2  1  0  0  0  0
  1  3  1  0  0  0  0
  1  4  1  0  0  0  0
  4  5  1  0  0  0  0
  4  6  1  0  0  0  0
  4  7  1  0  0  0  0
  7  8  1  0  0  0  0
  7  9  1  0  0  0  0
  7 10  1  0  0  0  0
 10 11  1  0  0  0  0
 10 12  1  0  0  0  0
 10 13  1  0  0  0  0
 13 14  1  0  0  0  0
 13 15  1  0  0  0  0
 15 16  1  0  0  0  0
 15 17  1  0  0  0  0
 15 18  1  0  0  0  0
 18 19  1  0  0  0  0
 18 20  1  0  0  0  0
  1 21  1  0  0  0  0
 18 21  1  0  0  0  0
 21 22  1  0  0  0  0
 21 23  1  0  0  0  0
 13 24  1  0  0  0  0
 24 25  1  0  0  0  0
M  END
> <VConfSearch Rank>
778

> <Conf_Id>
15

> <Delta U+W>
-1.271

> <U+W>
9.643

> <U>
11.413

> <W>
-1.770

> <W(PB)>
-3.908

> <W(SA)>
2.138

> <Valence>
17.496

> <Coulomb>
-8.736

> <VdW>
2.653

> <VdW6>
-12.485

> <VdW12>
15.138

> <Bond>
0.414

> <Angle>
5.295

> <Pdih>
11.787

> <Idih>
0.000

> <Tether>
0.000

$$$$
VeraChem MOL file


 25 25  0  0  0  0  0  0  0  0999 V2000     
   19.2729   17.9237   23.5660 C   0  0  0  0  0  0  0  0  0  0  0  0
   18.8038   17.1927   24.2387 H   0  0  0  0  0  0  0  0  0  0  0  0
   18.9589   17.6193   22.5596 H   0  0  0  0  0  0  0  0  0  0  0  0
   18.6842   19.3133   23.9257 C   0  0  0  0  0  0  0  0  0  0  0  0
   17.6180   19.3105   23.6613 H   0  0  0  0  0  0  0  0  0  0  0  0
   18.7210   19.4434   25.0159 H   0  0  0  0  0  0  0  0  0  0  0  0
   19.3550   20.5429   23.2675 C   0  0  0  0  0  0  0  0  0  0  0  0
   20.2852   20.7805   23.7967 H   0  0  0  0  0  0  0  0  0  0  0  0
   18.7072   21.4144   23.4340 H   0  0  0  0  0  0  0  0  0  0  0  0
   19.6030   20.3901   21.7441 C   0  0  0  0  0  0  0  0  0  0  0  0
   19.1125   19.4904   21.3563 H   0  0  0  0  0  0  0  0  0  0  0  0
   19.1112   21.2245   21.2272 H   0  0  0  0  0  0  0  0  0  0  0  0
   21.0933   20.4008   21.3329 C   0  0  0  0  0  0  0  0  0  0  0  0
   21.4549   21.4353   21.4209 H   0  0  0  0  0  0  0  0  0  0  0  0
   22.0493   19.5109   22.1687 C   0  0  0  0  0  0  0  0  0  0  0  0
   23.0158   19.5008   21.6471 H   0  0  0  0  0  0  0  0  0  0  0  0
   22.2632   19.9909   23.1311 H   0  0  0  0  0  0  0  0  0  0  0  0
   21.6156   18.0390   22.4026 C   0  0  0  0  0  0  0  0  0  0  0  0
   22.5374   17.4463   22.4804 H   0  0  0  0  0  0  0  0  0  0  0  0
   21.0875   17.6373   21.5283 H   0  0  0  0  0  0  0  0  0  0  0  0
   20.8090   17.7850   23.7059 C   0  0  0  0  0  0  0  0  0  0  0  0
   21.1834   18.4043   24.5321 H   0  0  0  0  0  0  0  0  0  0  0  0
   21.0093   16.7475   24.0069 H   0  0  0  0  0  0  0  0  0  0  0  0
   21.1808   20.0017   19.9722 O   0  0  0  0  0  0  0  0  0  0  0  0
   20.9422   19.0530   19.9556 H   0  0  0  0  0  0  0  0  0  0  0  0
  1  2  1  0  0  0  0
  1  3  1  0  0  0  0
  1  4  1  0  0  0  0
  4  5  1  0  0  0  0
  4  6  1  0  0  0  0
  4  7  1  0  0  0  0
  7  8  1  0  0  0  0
  7  9  1  0  0  0  0
  7 10  1  0  0  0  0
 10 11  1  0  0  0  0
 10 12  1  0  0  0  0
 10 13  1  0  0  0  0
 13 14  1  0  0  0  0
 13 15  1  0  0  0  0
 15 16  1  0  0  0  0
 15 17  1  0  0  0  0
 15 18  1  0  0  0  0
 18 19  1  0  0  0  0
 18 20  1  0  0  0  0
  1 21  1  0  0  0  0
 18 21  1  0  0  0  0
 21 22  1  0  0  0  0
 21 23  1  0  0  0  0
 13 24  1  0  0  0  0
 24 25  1  0  0  0  0
M  END
> <VConfSearch Rank>
779

> <Conf_Id>
115

> <Delta U+W>
0.038

> <U+W>
10.952

> <U>
12.526

> <W>
-1.575

> <W(PB)>
-3.698

> <W(SA)>
2.123

> <Valence>
19.016

> <Coulomb>
-9.226

> <VdW>
2.737

> <VdW6>
-12.612

> <VdW12>
15.349

> <Bond>
0.421

> <Angle>
4.883

> <Pdih>
13.711

> <Idih>
0.000

> <Tether>
0.000

$$$$
VeraChem MOL file


 25 25  0  0  0  0  0  0  0  0999 V2000     
   21.3092   17.9284   21.2900 C   0  0  0  0  0  0  0  0  0  0  0  0
   22.1288   17.2691   20.9731 H   0  0  0  0  0  0  0  0  0  0  0  0
   20.4886   17.7370   20.5854 H   0  0  0  0  0  0  0  0  0  0  0  0
   21.8068   19.3852   21.1425 C   0  0  0  0  0  0  0  0  0  0  0  0
   22.7039   19.5413   21.7568 H   0  0  0  0  0  0  0  0  0  0  0  0
   22.1351   19.5163   20.1023 H   0  0  0  0  0  0  0  0  0  0  0  0
   20.7529   20.4742   21.4498 C   0  0  0  0  0  0  0  0  0  0  0  0
   19.7803   20.1947   21.0233 H   0  0  0  0  0  0  0  0  0  0  0  0
   21.0552   21.3845   20.9139 H   0  0  0  0  0  0  0  0  0  0  0  0
   20.6300   20.8380   22.9539 C   0  0  0  0  0  0  0  0  0  0  0  0
   21.4724   20.4371   23.5313 H   0  0  0  0  0  0  0  0  0  0  0  0
   20.7142   21.9303   23.0344 H   0  0  0  0  0  0  0  0  0  0  0  0
   19.2942   20.4160   23.6062 C   0  0  0  0  0  0  0  0  0  0  0  0
   18.4861   20.5332   22.8701 H   0  0  0  0  0  0  0  0  0  0  0  0
   19.2714   18.9705   24.1507 C   0  0  0  0  0  0  0  0  0  0  0  0
   20.0331   18.8529   24.9328 H   0  0  0  0  0  0  0  0  0  0  0  0
   18.3052   18.8200   24.6498 H   0  0  0  0  0  0  0  0  0  0  0  0
   19.4249   17.8572   23.0860 C   0  0  0  0  0  0  0  0  0  0  0  0
   18.8357   18.0993   22.1914 H   0  0  0  0  0  0  0  0  0  0  0  0
   18.9680   16.9465   23.4972 H   0  0  0  0  0  0  0  0  0  0  0  0
   20.8931   17.5145   22.7211 C   0  0  0  0  0  0  0  0  0  0  0  0
   21.0023   16.4234   22.7899 H   0  0  0  0  0  0  0  0  0  0  0  0
   21.5969   17.9235   23.4582 H   0  0  0  0  0  0  0  0  0  0  0  0
   19.0439   21.2890   24.7012 O   0  0  0  0  0  0  0  0  0  0  0  0
   18.1694   21.0407   25.0672 H   0  0  0  0  0  0  0  0  0  0  0  0
  1  2  1  0  0  0  0
  1  3  1  0  0  0  0
  1  4  1  0  0  0  0
  4  5  1  0  0  0  0
  4  6  1  0  0  0  0
  4  7  1  0  0  0  0
  7  8  1  0  0  0  0
  7  9  1  0  0  0  0
  7 10  1  0  0  0  0
 10 11  1  0  0  0  0
 10 12  1  0  0  0  0
 10 13  1  0  0  0  0
 13 14  1  0  0  0  0
 13 15  1  0  0  0  0
 15 16  1  0  0  0  0
 15 17  1  0  0  0  0
 15 18  1  0  0  0  0
 18 19  1  0  0  0  0
 18 20  1  0  0  0  0
  1 21  1  0  0  0  0
 18 21  1  0  0  0  0
 21 22  1  0  0  0  0
 21 23  1  0  0  0  0
 13 24  1  0  0  0  0
 24 25  1  0  0  0  0
M  END
> <VConfSearch Rank>
780

> <Conf_Id>
30

> <Delta U+W>
0.000

> <U+W>
10.913

> <U>
13.140

> <W>
-2.227

> <W(PB)>
-4.367

> <W(SA)>
2.140

> <Valence>
19.155

> <Coulomb>
-8.157

> <VdW>
2.142

> <VdW6>
-11.576

> <VdW12>
13.718

> <Bond>
0.294

> <Angle>
3.547

> <Pdih>
15.314

> <Idih>
0.000

> <Tether>
0.000

$$$$
VeraChem MOL file


 25 25  0  0  0  0  0  0  0  0999 V2000     
   20.9142   19.9908   20.7463 C   0  0  0  0  0  0  0  0  0  0  0  0
   21.8502   19.9108   20.1767 H   0  0  0  0  0  0  0  0  0  0  0  0
   20.2609   20.6450   20.1531 H   0  0  0  0  0  0  0  0  0  0  0  0
   21.2164   20.6974   22.0907 C   0  0  0  0  0  0  0  0  0  0  0  0
   21.8788   21.5491   21.8839 H   0  0  0  0  0  0  0  0  0  0  0  0
   20.2984   21.1499   22.4834 H   0  0  0  0  0  0  0  0  0  0  0  0
   21.8910   19.7925   23.1527 C   0  0  0  0  0  0  0  0  0  0  0  0
   22.8281   20.2660   23.4758 H   0  0  0  0  0  0  0  0  0  0  0  0
   22.1978   18.8349   22.7161 H   0  0  0  0  0  0  0  0  0  0  0  0
   21.0225   19.5387   24.4108 C   0  0  0  0  0  0  0  0  0  0  0  0
   21.4979   18.7482   25.0065 H   0  0  0  0  0  0  0  0  0  0  0  0
   21.0443   20.4411   25.0356 H   0  0  0  0  0  0  0  0  0  0  0  0
   19.5372   19.1679   24.1727 C   0  0  0  0  0  0  0  0  0  0  0  0
   18.9972   20.0531   23.8110 H   0  0  0  0  0  0  0  0  0  0  0  0
   19.3013   18.0041   23.1791 C   0  0  0  0  0  0  0  0  0  0  0  0
   20.1340   17.2905   23.2229 H   0  0  0  0  0  0  0  0  0  0  0  0
   18.4197   17.4420   23.5151 H   0  0  0  0  0  0  0  0  0  0  0  0
   19.0214   18.4403   21.7131 C   0  0  0  0  0  0  0  0  0  0  0  0
   18.4168   19.3566   21.6792 H   0  0  0  0  0  0  0  0  0  0  0  0
   18.3927   17.6598   21.2628 H   0  0  0  0  0  0  0  0  0  0  0  0
   20.2776   18.5772   20.8176 C   0  0  0  0  0  0  0  0  0  0  0  0
   19.9924   18.3033   19.7925 H   0  0  0  0  0  0  0  0  0  0  0  0
   21.0275   17.8301   21.1072 H   0  0  0  0  0  0  0  0  0  0  0  0
   18.9888   18.8008   25.4331 O   0  0  0  0  0  0  0  0  0  0  0  0
   18.0319   18.6452   25.2901 H   0  0  0  0  0  0  0  0  0  0  0  0
  1  2  1  0  0  0  0
  1  3  1  0  0  0  0
  1  4  1  0  0  0  0
  4  5  1  0  0  0  0
  4  6  1  0  0  0  0
  4  7  1  0  0  0  0
  7  8  1  0  0  0  0
  7  9  1  0  0  0  0
  7 10  1  0  0  0  0
 10 11  1  0  0  0  0
 10 12  1  0  0  0  0
 10 13  1  0  0  0  0
 13 14  1  0  0  0  0
 13 15  1  0  0  0  0
 15 16  1  0  0  0  0
 15 17  1  0  0  0  0
 15 18  1  0  0  0  0
 18 19  1  0  0  0  0
 18 20  1  0  0  0  0
  1 21  1  0  0  0  0
 18 21  1  0  0  0  0
 21 22  1  0  0  0  0
 21 23  1  0  0  0  0
 13 24  1  0  0  0  0
 24 25  1  0  0  0  0
M  END
> <VConfSearch Rank>
781

> <Conf_Id>
162

> <Delta U+W>
0.219

> <U+W>
11.132

> <U>
13.296

> <W>
-2.164

> <W(PB)>
-4.311

> <W(SA)>
2.148

> <Valence>
18.607

> <Coulomb>
-8.339

> <VdW>
3.028

> <VdW6>
-12.271

> <VdW12>
15.299

> <Bond>
0.423

> <Angle>
4.488

> <Pdih>
13.696

> <Idih>
0.000

> <Tether>
0.000

$$$$
VeraChem MOL file


 25 25  0  0  0  0  0  0  0  0999 V2000     
   21.2276   17.5230   22.1056 C   0  0  0  0  0  0  0  0  0  0  0  0
   21.8268   18.1165   21.4035 H   0  0  0  0  0  0  0  0  0  0  0  0
   21.5958   16.4947   21.9876 H   0  0  0  0  0  0  0  0  0  0  0  0
   21.5190   17.9713   23.5595 C   0  0  0  0  0  0  0  0  0  0  0  0
   20.7067   17.6647   24.2321 H   0  0  0  0  0  0  0  0  0  0  0  0
   22.4017   17.4097   23.8950 H   0  0  0  0  0  0  0  0  0  0  0  0
   21.8525   19.4794   23.7328 C   0  0  0  0  0  0  0  0  0  0  0  0
   22.4462   19.8542   22.8883 H   0  0  0  0  0  0  0  0  0  0  0  0
   22.5108   19.5599   24.6088 H   0  0  0  0  0  0  0  0  0  0  0  0
   20.6336   20.3997   24.0019 C   0  0  0  0  0  0  0  0  0  0  0  0
   19.8807   19.8612   24.5905 H   0  0  0  0  0  0  0  0  0  0  0  0
   20.9686   21.2180   24.6527 H   0  0  0  0  0  0  0  0  0  0  0  0
   19.9836   21.0614   22.7605 C   0  0  0  0  0  0  0  0  0  0  0  0
   20.6814   21.8213   22.3801 H   0  0  0  0  0  0  0  0  0  0  0  0
   19.6427   20.1190   21.5816 C   0  0  0  0  0  0  0  0  0  0  0  0
   19.0069   20.6636   20.8715 H   0  0  0  0  0  0  0  0  0  0  0  0
   20.5586   19.9066   21.0199 H   0  0  0  0  0  0  0  0  0  0  0  0
   18.9247   18.8046   21.9870 C   0  0  0  0  0  0  0  0  0  0  0  0
   17.9691   18.7438   21.4490 H   0  0  0  0  0  0  0  0  0  0  0  0
   18.6471   18.8212   23.0476 H   0  0  0  0  0  0  0  0  0  0  0  0
   19.7342   17.5207   21.6837 C   0  0  0  0  0  0  0  0  0  0  0  0
   19.6846   17.3197   20.6048 H   0  0  0  0  0  0  0  0  0  0  0  0
   19.2297   16.6740   22.1687 H   0  0  0  0  0  0  0  0  0  0  0  0
   18.7883   21.7046   23.1867 O   0  0  0  0  0  0  0  0  0  0  0  0
   18.3900   22.1144   22.3914 H   0  0  0  0  0  0  0  0  0  0  0  0
  1  2  1  0  0  0  0
  1  3  1  0  0  0  0
  1  4  1  0  0  0  0
  4  5  1  0  0  0  0
  4  6  1  0  0  0  0
  4  7  1  0  0  0  0
  7  8  1  0  0  0  0
  7  9  1  0  0  0  0
  7 10  1  0  0  0  0
 10 11  1  0  0  0  0
 10 12  1  0  0  0  0
 10 13  1  0  0  0  0
 13 14  1  0  0  0  0
 13 15  1  0  0  0  0
 15 16  1  0  0  0  0
 15 17  1  0  0  0  0
 15 18  1  0  0  0  0
 18 19  1  0  0  0  0
 18 20  1  0  0  0  0
  1 21  1  0  0  0  0
 18 21  1  0  0  0  0
 21 22  1  0  0  0  0
 21 23  1  0  0  0  0
 13 24  1  0  0  0  0
 24 25  1  0  0  0  0
M  END
> <VConfSearch Rank>
782

> <Conf_Id>
155

> <Delta U+W>
0.339

> <U+W>
11.252

> <U>
13.420

> <W>
-2.167

> <W(PB)>
-4.325

> <W(SA)>
2.157

> <Valence>
18.609

> <Coulomb>
-8.052

> <VdW>
2.863

> <VdW6>
-12.524

> <VdW12>
15.387

> <Bond>
0.430

> <Angle>
4.724

> <Pdih>
13.455

> <Idih>
0.000

> <Tether>
0.000

$$$$
VeraChem MOL file


 25 25  0  0  0  0  0  0  0  0999 V2000     
   22.1185   19.4620   21.7543 C   0  0  0  0  0  0  0  0  0  0  0  0
   22.8276   20.1061   22.2918 H   0  0  0  0  0  0  0  0  0  0  0  0
   22.6488   19.1347   20.8497 H   0  0  0  0  0  0  0  0  0  0  0  0
   21.8413   18.1907   22.5991 C   0  0  0  0  0  0  0  0  0  0  0  0
   21.2289   17.4956   22.0161 H   0  0  0  0  0  0  0  0  0  0  0  0
   22.7939   17.6567   22.7174 H   0  0  0  0  0  0  0  0  0  0  0  0
   21.2484   18.3888   24.0248 C   0  0  0  0  0  0  0  0  0  0  0  0
   22.0901   18.5518   24.7114 H   0  0  0  0  0  0  0  0  0  0  0  0
   20.7818   17.4491   24.3500 H   0  0  0  0  0  0  0  0  0  0  0  0
   20.2487   19.5564   24.2471 C   0  0  0  0  0  0  0  0  0  0  0  0
   20.0559   19.6220   25.3259 H   0  0  0  0  0  0  0  0  0  0  0  0
   20.7480   20.5039   24.0262 H   0  0  0  0  0  0  0  0  0  0  0  0
   18.8732   19.4884   23.5207 C   0  0  0  0  0  0  0  0  0  0  0  0
   18.4885   20.5147   23.4353 H   0  0  0  0  0  0  0  0  0  0  0  0
   18.8345   18.8467   22.1109 C   0  0  0  0  0  0  0  0  0  0  0  0
   19.1546   17.8033   22.1845 H   0  0  0  0  0  0  0  0  0  0  0  0
   17.7809   18.7737   21.8106 H   0  0  0  0  0  0  0  0  0  0  0  0
   19.5854   19.5769   20.9571 C   0  0  0  0  0  0  0  0  0  0  0  0
   18.8963   20.3215   20.5359 H   0  0  0  0  0  0  0  0  0  0  0  0
   19.7731   18.8603   20.1463 H   0  0  0  0  0  0  0  0  0  0  0  0
   20.9038   20.3212   21.2956 C   0  0  0  0  0  0  0  0  0  0  0  0
   20.6964   21.1184   22.0163 H   0  0  0  0  0  0  0  0  0  0  0  0
   21.2171   20.8660   20.3946 H   0  0  0  0  0  0  0  0  0  0  0  0
   17.9835   18.7390   24.3410 O   0  0  0  0  0  0  0  0  0  0  0  0
   17.9697   19.1769   25.2170 H   0  0  0  0  0  0  0  0  0  0  0  0
  1  2  1  0  0  0  0
  1  3  1  0  0  0  0
  1  4  1  0  0  0  0
  4  5  1  0  0  0  0
  4  6  1  0  0  0  0
  4  7  1  0  0  0  0
  7  8  1  0  0  0  0
  7  9  1  0  0  0  0
  7 10  1  0  0  0  0
 10 11  1  0  0  0  0
 10 12  1  0  0  0  0
 10 13  1  0  0  0  0
 13 14  1  0  0  0  0
 13 15  1  0  0  0  0
 15 16  1  0  0  0  0
 15 17  1  0  0  0  0
 15 18  1  0  0  0  0
 18 19  1  0  0  0  0
 18 20  1  0  0  0  0
  1 21  1  0  0  0  0
 18 21  1  0  0  0  0
 21 22  1  0  0  0  0
 21 23  1  0  0  0  0
 13 24  1  0  0  0  0
 24 25  1  0  0  0  0
M  END
> <VConfSearch Rank>
783

> <Conf_Id>
146

> <Delta U+W>
2.553

> <U+W>
13.466

> <U>
15.643

> <W>
-2.176

> <W(PB)>
-4.307

> <W(SA)>
2.131

> <Valence>
18.916

> <Coulomb>
-7.506

> <VdW>
4.232

> <VdW6>
-13.632

> <VdW12>
17.864

> <Bond>
0.735

> <Angle>
9.140

> <Pdih>
9.042

> <Idih>
0.000

> <Tether>
0.000

$$$$
VeraChem MOL file


 25 25  0  0  0  0  0  0  0  0999 V2000     
   19.3497   20.9232   23.4132 C   0  0  0  0  0  0  0  0  0  0  0  0
   18.2557   20.9937   23.4822 H   0  0  0  0  0  0  0  0  0  0  0  0
   19.7331   21.8751   23.8054 H   0  0  0  0  0  0  0  0  0  0  0  0
   19.7634   20.8371   21.9227 C   0  0  0  0  0  0  0  0  0  0  0  0
   19.4132   21.7564   21.4338 H   0  0  0  0  0  0  0  0  0  0  0  0
   20.8546   20.8728   21.8273 H   0  0  0  0  0  0  0  0  0  0  0  0
   19.1863   19.6427   21.1223 C   0  0  0  0  0  0  0  0  0  0  0  0
   19.4686   19.7826   20.0698 H   0  0  0  0  0  0  0  0  0  0  0  0
   18.0890   19.6867   21.1446 H   0  0  0  0  0  0  0  0  0  0  0  0
   19.6421   18.2234   21.5507 C   0  0  0  0  0  0  0  0  0  0  0  0
   19.0545   17.8775   22.4070 H   0  0  0  0  0  0  0  0  0  0  0  0
   19.3701   17.5377   20.7368 H   0  0  0  0  0  0  0  0  0  0  0  0
   21.1570   18.0803   21.8482 C   0  0  0  0  0  0  0  0  0  0  0  0
   21.7055   18.9032   21.3704 H   0  0  0  0  0  0  0  0  0  0  0  0
   21.5054   18.0397   23.3578 C   0  0  0  0  0  0  0  0  0  0  0  0
   20.9306   17.2373   23.8390 H   0  0  0  0  0  0  0  0  0  0  0  0
   22.5595   17.7484   23.4546 H   0  0  0  0  0  0  0  0  0  0  0  0
   21.3157   19.3572   24.1577 C   0  0  0  0  0  0  0  0  0  0  0  0
   21.9118   20.1683   23.7200 H   0  0  0  0  0  0  0  0  0  0  0  0
   21.7460   19.1915   25.1548 H   0  0  0  0  0  0  0  0  0  0  0  0
   19.8405   19.7927   24.3542 C   0  0  0  0  0  0  0  0  0  0  0  0
   19.7266   20.1585   25.3839 H   0  0  0  0  0  0  0  0  0  0  0  0
   19.1724   18.9259   24.2978 H   0  0  0  0  0  0  0  0  0  0  0  0
   21.6060   16.8565   21.2774 O   0  0  0  0  0  0  0  0  0  0  0  0
   22.5738   16.8134   21.4245 H   0  0  0  0  0  0  0  0  0  0  0  0
  1  2  1  0  0  0  0
  1  3  1  0  0  0  0
  1  4  1  0  0  0  0
  4  5  1  0  0  0  0
  4  6  1  0  0  0  0
  4  7  1  0  0  0  0
  7  8  1  0  0  0  0
  7  9  1  0  0  0  0
  7 10  1  0  0  0  0
 10 11  1  0  0  0  0
 10 12  1  0  0  0  0
 10 13  1  0  0  0  0
 13 14  1  0  0  0  0
 13 15  1  0  0  0  0
 15 16  1  0  0  0  0
 15 17  1  0  0  0  0
 15 18  1  0  0  0  0
 18 19  1  0  0  0  0
 18 20  1  0  0  0  0
  1 21  1  0  0  0  0
 18 21  1  0  0  0  0
 21 22  1  0  0  0  0
 21 23  1  0  0  0  0
 13 24  1  0  0  0  0
 24 25  1  0  0  0  0
M  END
> <VConfSearch Rank>
784

> <Conf_Id>
62

> <Delta U+W>
-1.779

> <U+W>
9.134

> <U>
11.364

> <W>
-2.230

> <W(PB)>
-4.359

> <W(SA)>
2.129

> <Valence>
16.582

> <Coulomb>
-8.150

> <VdW>
2.933

> <VdW6>
-12.531

> <VdW12>
15.464

> <Bond>
0.439

> <Angle>
5.099

> <Pdih>
11.044

> <Idih>
0.000

> <Tether>
0.000

$$$$
VeraChem MOL file


 25 25  0  0  0  0  0  0  0  0999 V2000     
   21.1781   20.8534   22.3791 C   0  0  0  0  0  0  0  0  0  0  0  0
   21.6106   20.2035   21.6098 H   0  0  0  0  0  0  0  0  0  0  0  0
   21.6658   21.8257   22.2258 H   0  0  0  0  0  0  0  0  0  0  0  0
   21.5756   20.3569   23.7916 C   0  0  0  0  0  0  0  0  0  0  0  0
   22.6724   20.3778   23.8509 H   0  0  0  0  0  0  0  0  0  0  0  0
   21.2239   21.0778   24.5419 H   0  0  0  0  0  0  0  0  0  0  0  0
   21.1062   18.9370   24.1994 C   0  0  0  0  0  0  0  0  0  0  0  0
   20.0753   18.9644   24.5702 H   0  0  0  0  0  0  0  0  0  0  0  0
   21.7035   18.6367   25.0712 H   0  0  0  0  0  0  0  0  0  0  0  0
   21.2629   17.8470   23.1055 C   0  0  0  0  0  0  0  0  0  0  0  0
   22.0420   18.1215   22.3837 H   0  0  0  0  0  0  0  0  0  0  0  0
   21.6345   16.9409   23.6016 H   0  0  0  0  0  0  0  0  0  0  0  0
   19.9524   17.4665   22.3711 C   0  0  0  0  0  0  0  0  0  0  0  0
   19.1971   17.2063   23.1266 H   0  0  0  0  0  0  0  0  0  0  0  0
   19.3479   18.5450   21.4377 C   0  0  0  0  0  0  0  0  0  0  0  0
   20.0722   18.8368   20.6676 H   0  0  0  0  0  0  0  0  0  0  0  0
   18.5227   18.0689   20.8915 H   0  0  0  0  0  0  0  0  0  0  0  0
   18.7673   19.7890   22.1621 C   0  0  0  0  0  0  0  0  0  0  0  0
   18.4929   19.5399   23.1934 H   0  0  0  0  0  0  0  0  0  0  0  0
   17.8155   20.0527   21.6808 H   0  0  0  0  0  0  0  0  0  0  0  0
   19.6628   21.0538   22.1271 C   0  0  0  0  0  0  0  0  0  0  0  0
   19.2699   21.7888   22.8426 H   0  0  0  0  0  0  0  0  0  0  0  0
   19.5527   21.5156   21.1364 H   0  0  0  0  0  0  0  0  0  0  0  0
   20.2203   16.3165   21.5785 O   0  0  0  0  0  0  0  0  0  0  0  0
   20.5376   15.6192   22.1895 H   0  0  0  0  0  0  0  0  0  0  0  0
  1  2  1  0  0  0  0
  1  3  1  0  0  0  0
  1  4  1  0  0  0  0
  4  5  1  0  0  0  0
  4  6  1  0  0  0  0
  4  7  1  0  0  0  0
  7  8  1  0  0  0  0
  7  9  1  0  0  0  0
  7 10  1  0  0  0  0
 10 11  1  0  0  0  0
 10 12  1  0  0  0  0
 10 13  1  0  0  0  0
 13 14  1  0  0  0  0
 13 15  1  0  0  0  0
 15 16  1  0  0  0  0
 15 17  1  0  0  0  0
 15 18  1  0  0  0  0
 18 19  1  0  0  0  0
 18 20  1  0  0  0  0
  1 21  1  0  0  0  0
 18 21  1  0  0  0  0
 21 22  1  0  0  0  0
 21 23  1  0  0  0  0
 13 24  1  0  0  0  0
 24 25  1  0  0  0  0
M  END
> <VConfSearch Rank>
785

> <Conf_Id>
121

> <Delta U+W>
-1.283

> <U+W>
9.630

> <U>
11.876

> <W>
-2.246

> <W(PB)>
-4.376

> <W(SA)>
2.130

> <Valence>
17.153

> <Coulomb>
-7.966

> <VdW>
2.689

> <VdW6>
-12.458

> <VdW12>
15.147

> <Bond>
0.421

> <Angle>
5.258

> <Pdih>
11.475

> <Idih>
0.000

> <Tether>
0.000

$$$$
VeraChem MOL file


 25 25  0  0  0  0  0  0  0  0999 V2000     
   21.2992   17.7156   22.2293 C   0  0  0  0  0  0  0  0  0  0  0  0
   21.4700   17.8396   23.3048 H   0  0  0  0  0  0  0  0  0  0  0  0
   21.8438   16.7985   21.9668 H   0  0  0  0  0  0  0  0  0  0  0  0
   21.9511   18.8793   21.4415 C   0  0  0  0  0  0  0  0  0  0  0  0
   23.0279   18.8601   21.6580 H   0  0  0  0  0  0  0  0  0  0  0  0
   21.8613   18.6836   20.3644 H   0  0  0  0  0  0  0  0  0  0  0  0
   21.4340   20.3103   21.7377 C   0  0  0  0  0  0  0  0  0  0  0  0
   20.5263   20.5189   21.1603 H   0  0  0  0  0  0  0  0  0  0  0  0
   22.1795   21.0127   21.3406 H   0  0  0  0  0  0  0  0  0  0  0  0
   21.2115   20.6376   23.2387 C   0  0  0  0  0  0  0  0  0  0  0  0
   21.8307   19.9986   23.8798 H   0  0  0  0  0  0  0  0  0  0  0  0
   21.5781   21.6586   23.4093 H   0  0  0  0  0  0  0  0  0  0  0  0
   19.7343   20.6052   23.7041 C   0  0  0  0  0  0  0  0  0  0  0  0
   19.1510   21.2541   23.0349 H   0  0  0  0  0  0  0  0  0  0  0  0
   19.0550   19.2129   23.7441 C   0  0  0  0  0  0  0  0  0  0  0  0
   19.6135   18.5316   24.3977 H   0  0  0  0  0  0  0  0  0  0  0  0
   18.0772   19.3400   24.2268 H   0  0  0  0  0  0  0  0  0  0  0  0
   18.8001   18.5699   22.3546 C   0  0  0  0  0  0  0  0  0  0  0  0
   18.7460   19.3412   21.5779 H   0  0  0  0  0  0  0  0  0  0  0  0
   17.7983   18.1189   22.3637 H   0  0  0  0  0  0  0  0  0  0  0  0
   19.7983   17.4563   21.9470 C   0  0  0  0  0  0  0  0  0  0  0  0
   19.6636   17.2296   20.8807 H   0  0  0  0  0  0  0  0  0  0  0  0
   19.5164   16.5399   22.4833 H   0  0  0  0  0  0  0  0  0  0  0  0
   19.6881   21.1457   25.0187 O   0  0  0  0  0  0  0  0  0  0  0  0
   18.7434   21.1837   25.2762 H   0  0  0  0  0  0  0  0  0  0  0  0
  1  2  1  0  0  0  0
  1  3  1  0  0  0  0
  1  4  1  0  0  0  0
  4  5  1  0  0  0  0
  4  6  1  0  0  0  0
  4  7  1  0  0  0  0
  7  8  1  0  0  0  0
  7  9  1  0  0  0  0
  7 10  1  0  0  0  0
 10 11  1  0  0  0  0
 10 12  1  0  0  0  0
 10 13  1  0  0  0  0
 13 14  1  0  0  0  0
 13 15  1  0  0  0  0
 15 16  1  0  0  0  0
 15 17  1  0  0  0  0
 15 18  1  0  0  0  0
 18 19  1  0  0  0  0
 18 20  1  0  0  0  0
  1 21  1  0  0  0  0
 18 21  1  0  0  0  0
 21 22  1  0  0  0  0
 21 23  1  0  0  0  0
 13 24  1  0  0  0  0
 24 25  1  0  0  0  0
M  END
> <VConfSearch Rank>
786

> <Conf_Id>
24

> <Delta U+W>
-1.236

> <U+W>
9.678

> <U>
11.876

> <W>
-2.199

> <W(PB)>
-4.335

> <W(SA)>
2.137

> <Valence>
17.153

> <Coulomb>
-7.966

> <VdW>
2.689

> <VdW6>
-12.458

> <VdW12>
15.147

> <Bond>
0.421

> <Angle>
5.258

> <Pdih>
11.475

> <Idih>
0.000

> <Tether>
0.000

$$$$
VeraChem MOL file


 25 25  0  0  0  0  0  0  0  0999 V2000     
   19.2404   21.0631   22.8776 C   0  0  0  0  0  0  0  0  0  0  0  0
   19.3503   21.6987   23.7669 H   0  0  0  0  0  0  0  0  0  0  0  0
   18.4937   21.5630   22.2457 H   0  0  0  0  0  0  0  0  0  0  0  0
   20.5856   21.0457   22.1040 C   0  0  0  0  0  0  0  0  0  0  0  0
   20.4330   20.7078   21.0711 H   0  0  0  0  0  0  0  0  0  0  0  0
   20.9140   22.0899   22.0104 H   0  0  0  0  0  0  0  0  0  0  0  0
   21.7361   20.2421   22.7592 C   0  0  0  0  0  0  0  0  0  0  0  0
   21.6852   20.3102   23.8543 H   0  0  0  0  0  0  0  0  0  0  0  0
   22.6736   20.7424   22.4799 H   0  0  0  0  0  0  0  0  0  0  0  0
   21.8579   18.7636   22.2933 C   0  0  0  0  0  0  0  0  0  0  0  0
   21.6132   18.6685   21.2277 H   0  0  0  0  0  0  0  0  0  0  0  0
   22.9200   18.4954   22.3766 H   0  0  0  0  0  0  0  0  0  0  0  0
   21.0461   17.7449   23.1302 C   0  0  0  0  0  0  0  0  0  0  0  0
   20.9495   18.1322   24.1531 H   0  0  0  0  0  0  0  0  0  0  0  0
   19.6393   17.4025   22.5774 C   0  0  0  0  0  0  0  0  0  0  0  0
   19.7426   16.7806   21.6785 H   0  0  0  0  0  0  0  0  0  0  0  0
   19.1333   16.7744   23.3224 H   0  0  0  0  0  0  0  0  0  0  0  0
   18.7124   18.5961   22.2356 C   0  0  0  0  0  0  0  0  0  0  0  0
   17.6961   18.2065   22.0873 H   0  0  0  0  0  0  0  0  0  0  0  0
   18.9948   19.0169   21.2636 H   0  0  0  0  0  0  0  0  0  0  0  0
   18.6690   19.6958   23.3265 C   0  0  0  0  0  0  0  0  0  0  0  0
   19.1774   19.3664   24.2400 H   0  0  0  0  0  0  0  0  0  0  0  0
   17.6242   19.8484   23.6297 H   0  0  0  0  0  0  0  0  0  0  0  0
   21.7818   16.5298   23.1920 O   0  0  0  0  0  0  0  0  0  0  0  0
   21.8732   16.2141   22.2695 H   0  0  0  0  0  0  0  0  0  0  0  0
  1  2  1  0  0  0  0
  1  3  1  0  0  0  0
  1  4  1  0  0  0  0
  4  5  1  0  0  0  0
  4  6  1  0  0  0  0
  4  7  1  0  0  0  0
  7  8  1  0  0  0  0
  7  9  1  0  0  0  0
  7 10  1  0  0  0  0
 10 11  1  0  0  0  0
 10 12  1  0  0  0  0
 10 13  1  0  0  0  0
 13 14  1  0  0  0  0
 13 15  1  0  0  0  0
 15 16  1  0  0  0  0
 15 17  1  0  0  0  0
 15 18  1  0  0  0  0
 18 19  1  0  0  0  0
 18 20  1  0  0  0  0
  1 21  1  0  0  0  0
 18 21  1  0  0  0  0
 21 22  1  0  0  0  0
 21 23  1  0  0  0  0
 13 24  1  0  0  0  0
 24 25  1  0  0  0  0
M  END
> <VConfSearch Rank>
787

> <Conf_Id>
167

> <Delta U+W>
0.388

> <U+W>
11.301

> <U>
13.202

> <W>
-1.901

> <W(PB)>
-4.065

> <W(SA)>
2.163

> <Valence>
18.957

> <Coulomb>
-8.753

> <VdW>
2.998

> <VdW6>
-12.294

> <VdW12>
15.292

> <Bond>
0.419

> <Angle>
4.543

> <Pdih>
13.996

> <Idih>
0.000

> <Tether>
0.000

$$$$
VeraChem MOL file


 25 25  0  0  0  0  0  0  0  0999 V2000     
   18.6489   18.8579   23.8232 C   0  0  0  0  0  0  0  0  0  0  0  0
   18.7164   18.2392   24.7282 H   0  0  0  0  0  0  0  0  0  0  0  0
   17.6014   19.1838   23.7652 H   0  0  0  0  0  0  0  0  0  0  0  0
   18.9355   17.9692   22.5849 C   0  0  0  0  0  0  0  0  0  0  0  0
   19.7602   17.2769   22.7885 H   0  0  0  0  0  0  0  0  0  0  0  0
   18.0613   17.3184   22.4465 H   0  0  0  0  0  0  0  0  0  0  0  0
   19.1816   18.7335   21.2582 C   0  0  0  0  0  0  0  0  0  0  0  0
   18.6957   19.7176   21.2736 H   0  0  0  0  0  0  0  0  0  0  0  0
   18.6758   18.1766   20.4576 H   0  0  0  0  0  0  0  0  0  0  0  0
   20.6738   18.8623   20.8469 C   0  0  0  0  0  0  0  0  0  0  0  0
   21.1267   17.8634   20.7987 H   0  0  0  0  0  0  0  0  0  0  0  0
   20.7009   19.2494   19.8197 H   0  0  0  0  0  0  0  0  0  0  0  0
   21.5628   19.7834   21.7190 C   0  0  0  0  0  0  0  0  0  0  0  0
   21.0913   20.7726   21.7929 H   0  0  0  0  0  0  0  0  0  0  0  0
   21.8465   19.2296   23.1394 C   0  0  0  0  0  0  0  0  0  0  0  0
   21.7076   18.1439   23.1548 H   0  0  0  0  0  0  0  0  0  0  0  0
   22.9079   19.3713   23.3826 H   0  0  0  0  0  0  0  0  0  0  0  0
   21.0251   19.8907   24.2765 C   0  0  0  0  0  0  0  0  0  0  0  0
   21.4791   20.8663   24.4978 H   0  0  0  0  0  0  0  0  0  0  0  0
   21.1397   19.2945   25.1919 H   0  0  0  0  0  0  0  0  0  0  0  0
   19.5179   20.1276   24.0059 C   0  0  0  0  0  0  0  0  0  0  0  0
   19.3809   20.8079   23.1577 H   0  0  0  0  0  0  0  0  0  0  0  0
   19.1149   20.6767   24.8678 H   0  0  0  0  0  0  0  0  0  0  0  0
   22.8060   19.9346   21.0438 O   0  0  0  0  0  0  0  0  0  0  0  0
   23.3342   20.5726   21.5677 H   0  0  0  0  0  0  0  0  0  0  0  0
  1  2  1  0  0  0  0
  1  3  1  0  0  0  0
  1  4  1  0  0  0  0
  4  5  1  0  0  0  0
  4  6  1  0  0  0  0
  4  7  1  0  0  0  0
  7  8  1  0  0  0  0
  7  9  1  0  0  0  0
  7 10  1  0  0  0  0
 10 11  1  0  0  0  0
 10 12  1  0  0  0  0
 10 13  1  0  0  0  0
 13 14  1  0  0  0  0
 13 15  1  0  0  0  0
 15 16  1  0  0  0  0
 15 17  1  0  0  0  0
 15 18  1  0  0  0  0
 18 19  1  0  0  0  0
 18 20  1  0  0  0  0
  1 21  1  0  0  0  0
 18 21  1  0  0  0  0
 21 22  1  0  0  0  0
 21 23  1  0  0  0  0
 13 24  1  0  0  0  0
 24 25  1  0  0  0  0
M  END
> <VConfSearch Rank>
788

> <Conf_Id>
60

> <Delta U+W>
-1.838

> <U+W>
9.075

> <U>
11.150

> <W>
-2.074

> <W(PB)>
-4.196

> <W(SA)>
2.121

> <Valence>
16.582

> <Coulomb>
-8.361

> <VdW>
2.928

> <VdW6>
-12.539

> <VdW12>
15.467

> <Bond>
0.441

> <Angle>
5.093

> <Pdih>
11.049

> <Idih>
0.000

> <Tether>
0.000

$$$$
VeraChem MOL file


 25 25  0  0  0  0  0  0  0  0999 V2000     
   18.2826   18.9442   22.8464 C   0  0  0  0  0  0  0  0  0  0  0  0
   17.7559   19.2357   23.7652 H   0  0  0  0  0  0  0  0  0  0  0  0
   17.5133   18.5214   22.1858 H   0  0  0  0  0  0  0  0  0  0  0  0
   19.2868   17.8097   23.1708 C   0  0  0  0  0  0  0  0  0  0  0  0
   18.7056   16.9610   23.5565 H   0  0  0  0  0  0  0  0  0  0  0  0
   19.7460   17.4329   22.2498 H   0  0  0  0  0  0  0  0  0  0  0  0
   20.3727   18.1396   24.2257 C   0  0  0  0  0  0  0  0  0  0  0  0
   20.9267   17.2134   24.4314 H   0  0  0  0  0  0  0  0  0  0  0  0
   19.8874   18.4127   25.1725 H   0  0  0  0  0  0  0  0  0  0  0  0
   21.4021   19.2379   23.8529 C   0  0  0  0  0  0  0  0  0  0  0  0
   20.9764   20.2307   24.0300 H   0  0  0  0  0  0  0  0  0  0  0  0
   22.2285   19.1642   24.5722 H   0  0  0  0  0  0  0  0  0  0  0  0
   21.9627   19.1477   22.4099 C   0  0  0  0  0  0  0  0  0  0  0  0
   21.8047   18.1363   22.0121 H   0  0  0  0  0  0  0  0  0  0  0  0
   21.3523   20.1792   21.4286 C   0  0  0  0  0  0  0  0  0  0  0  0
   21.4802   21.1888   21.8402 H   0  0  0  0  0  0  0  0  0  0  0  0
   21.9506   20.1569   20.5081 H   0  0  0  0  0  0  0  0  0  0  0  0
   19.8670   19.9702   21.0255 C   0  0  0  0  0  0  0  0  0  0  0  0
   19.7220   18.9808   20.5730 H   0  0  0  0  0  0  0  0  0  0  0  0
   19.6492   20.6874   20.2224 H   0  0  0  0  0  0  0  0  0  0  0  0
   18.8426   20.2188   22.1628 C   0  0  0  0  0  0  0  0  0  0  0  0
   17.9855   20.7589   21.7378 H   0  0  0  0  0  0  0  0  0  0  0  0
   19.2553   20.9077   22.9084 H   0  0  0  0  0  0  0  0  0  0  0  0
   23.3638   19.3897   22.4608 O   0  0  0  0  0  0  0  0  0  0  0  0
   23.7490   18.6900   23.0289 H   0  0  0  0  0  0  0  0  0  0  0  0
  1  2  1  0  0  0  0
  1  3  1  0  0  0  0
  1  4  1  0  0  0  0
  4  5  1  0  0  0  0
  4  6  1  0  0  0  0
  4  7  1  0  0  0  0
  7  8  1  0  0  0  0
  7  9  1  0  0  0  0
  7 10  1  0  0  0  0
 10 11  1  0  0  0  0
 10 12  1  0  0  0  0
 10 13  1  0  0  0  0
 13 14  1  0  0  0  0
 13 15  1  0  0  0  0
 15 16  1  0  0  0  0
 15 17  1  0  0  0  0
 15 18  1  0  0  0  0
 18 19  1  0  0  0  0
 18 20  1  0  0  0  0
  1 21  1  0  0  0  0
 18 21  1  0  0  0  0
 21 22  1  0  0  0  0
 21 23  1  0  0  0  0
 13 24  1  0  0  0  0
 24 25  1  0  0  0  0
M  END
> <VConfSearch Rank>
789

> <Conf_Id>
129

> <Delta U+W>
-1.846

> <U+W>
9.067

> <U>
11.150

> <W>
-2.083

> <W(PB)>
-4.217

> <W(SA)>
2.134

> <Valence>
16.583

> <Coulomb>
-8.361

> <VdW>
2.928

> <VdW6>
-12.539

> <VdW12>
15.467

> <Bond>
0.441

> <Angle>
5.093

> <Pdih>
11.049

> <Idih>
0.000

> <Tether>
0.000

$$$$
VeraChem MOL file


 25 25  0  0  0  0  0  0  0  0999 V2000     
   19.2403   18.6489   20.9494 C   0  0  0  0  0  0  0  0  0  0  0  0
   19.7768   18.2873   20.0618 H   0  0  0  0  0  0  0  0  0  0  0  0
   18.1741   18.6074   20.6882 H   0  0  0  0  0  0  0  0  0  0  0  0
   19.5987   20.1364   21.1930 C   0  0  0  0  0  0  0  0  0  0  0  0
   19.2778   20.6982   20.3053 H   0  0  0  0  0  0  0  0  0  0  0  0
   18.9945   20.5452   22.0109 H   0  0  0  0  0  0  0  0  0  0  0  0
   21.0995   20.4492   21.4168 C   0  0  0  0  0  0  0  0  0  0  0  0
   21.2067   21.5418   21.4571 H   0  0  0  0  0  0  0  0  0  0  0  0
   21.6727   20.1261   20.5373 H   0  0  0  0  0  0  0  0  0  0  0  0
   21.7582   19.8605   22.6915 C   0  0  0  0  0  0  0  0  0  0  0  0
   22.0431   18.8171   22.5219 H   0  0  0  0  0  0  0  0  0  0  0  0
   22.7112   20.3886   22.8316 H   0  0  0  0  0  0  0  0  0  0  0  0
   20.9111   19.9831   23.9845 C   0  0  0  0  0  0  0  0  0  0  0  0
   20.1554   20.7699   23.8586 H   0  0  0  0  0  0  0  0  0  0  0  0
   20.2129   18.6687   24.4154 C   0  0  0  0  0  0  0  0  0  0  0  0
   20.9618   17.8719   24.5127 H   0  0  0  0  0  0  0  0  0  0  0  0
   19.8077   18.8217   25.4246 H   0  0  0  0  0  0  0  0  0  0  0  0
   19.0485   18.1669   23.5191 C   0  0  0  0  0  0  0  0  0  0  0  0
   18.2625   18.9288   23.4387 H   0  0  0  0  0  0  0  0  0  0  0  0
   18.5784   17.3250   24.0457 H   0  0  0  0  0  0  0  0  0  0  0  0
   19.4788   17.6587   22.1186 C   0  0  0  0  0  0  0  0  0  0  0  0
   18.9037   16.7500   21.8936 H   0  0  0  0  0  0  0  0  0  0  0  0
   20.5220   17.3236   22.1343 H   0  0  0  0  0  0  0  0  0  0  0  0
   21.7743   20.3702   25.0462 O   0  0  0  0  0  0  0  0  0  0  0  0
   22.4344   19.6531   25.1414 H   0  0  0  0  0  0  0  0  0  0  0  0
  1  2  1  0  0  0  0
  1  3  1  0  0  0  0
  1  4  1  0  0  0  0
  4  5  1  0  0  0  0
  4  6  1  0  0  0  0
  4  7  1  0  0  0  0
  7  8  1  0  0  0  0
  7  9  1  0  0  0  0
  7 10  1  0  0  0  0
 10 11  1  0  0  0  0
 10 12  1  0  0  0  0
 10 13  1  0  0  0  0
 13 14  1  0  0  0  0
 13 15  1  0  0  0  0
 15 16  1  0  0  0  0
 15 17  1  0  0  0  0
 15 18  1  0  0  0  0
 18 19  1  0  0  0  0
 18 20  1  0  0  0  0
  1 21  1  0  0  0  0
 18 21  1  0  0  0  0
 21 22  1  0  0  0  0
 21 23  1  0  0  0  0
 13 24  1  0  0  0  0
 24 25  1  0  0  0  0
M  END
> <VConfSearch Rank>
790

> <Conf_Id>
140

> <Delta U+W>
-1.702

> <U+W>
9.211

> <U>
11.181

> <W>
-1.969

> <W(PB)>
-4.093

> <W(SA)>
2.124

> <Valence>
16.954

> <Coulomb>
-8.661

> <VdW>
2.887

> <VdW6>
-12.561

> <VdW12>
15.448

> <Bond>
0.433

> <Angle>
5.120

> <Pdih>
11.401

> <Idih>
0.000

> <Tether>
0.000

$$$$
VeraChem MOL file


 25 25  0  0  0  0  0  0  0  0999 V2000     
   18.4037   19.8973   23.1116 C   0  0  0  0  0  0  0  0  0  0  0  0
   17.5002   19.4048   22.7276 H   0  0  0  0  0  0  0  0  0  0  0  0
   18.0465   20.7491   23.7065 H   0  0  0  0  0  0  0  0  0  0  0  0
   19.2140   20.4630   21.9166 C   0  0  0  0  0  0  0  0  0  0  0  0
   19.2176   19.7530   21.0819 H   0  0  0  0  0  0  0  0  0  0  0  0
   18.6600   21.3312   21.5339 H   0  0  0  0  0  0  0  0  0  0  0  0
   20.6577   20.9208   22.2490 C   0  0  0  0  0  0  0  0  0  0  0  0
   20.7523   21.1921   23.3083 H   0  0  0  0  0  0  0  0  0  0  0  0
   20.8439   21.8523   21.6971 H   0  0  0  0  0  0  0  0  0  0  0  0
   21.7696   19.9190   21.8352 C   0  0  0  0  0  0  0  0  0  0  0  0
   21.6766   19.6999   20.7635 H   0  0  0  0  0  0  0  0  0  0  0  0
   22.7336   20.4322   21.9518 H   0  0  0  0  0  0  0  0  0  0  0  0
   21.8449   18.5904   22.6288 C   0  0  0  0  0  0  0  0  0  0  0  0
   21.9072   18.8131   23.7023 H   0  0  0  0  0  0  0  0  0  0  0  0
   20.6633   17.6219   22.3637 C   0  0  0  0  0  0  0  0  0  0  0  0
   20.1976   17.8467   21.3988 H   0  0  0  0  0  0  0  0  0  0  0  0
   21.0507   16.6000   22.2529 H   0  0  0  0  0  0  0  0  0  0  0  0
   19.5873   17.5780   23.4798 C   0  0  0  0  0  0  0  0  0  0  0  0
   19.9827   16.9683   24.3038 H   0  0  0  0  0  0  0  0  0  0  0  0
   18.7071   17.0379   23.1057 H   0  0  0  0  0  0  0  0  0  0  0  0
   19.1394   18.9352   24.0777 C   0  0  0  0  0  0  0  0  0  0  0  0
   19.9859   19.4447   24.5521 H   0  0  0  0  0  0  0  0  0  0  0  0
   18.4510   18.7152   24.9051 H   0  0  0  0  0  0  0  0  0  0  0  0
   23.0489   17.9377   22.2459 O   0  0  0  0  0  0  0  0  0  0  0  0
   22.9710   17.7539   21.2872 H   0  0  0  0  0  0  0  0  0  0  0  0
  1  2  1  0  0  0  0
  1  3  1  0  0  0  0
  1  4  1  0  0  0  0
  4  5  1  0  0  0  0
  4  6  1  0  0  0  0
  4  7  1  0  0  0  0
  7  8  1  0  0  0  0
  7  9  1  0  0  0  0
  7 10  1  0  0  0  0
 10 11  1  0  0  0  0
 10 12  1  0  0  0  0
 10 13  1  0  0  0  0
 13 14  1  0  0  0  0
 13 15  1  0  0  0  0
 15 16  1  0  0  0  0
 15 17  1  0  0  0  0
 15 18  1  0  0  0  0
 18 19  1  0  0  0  0
 18 20  1  0  0  0  0
  1 21  1  0  0  0  0
 18 21  1  0  0  0  0
 21 22  1  0  0  0  0
 21 23  1  0  0  0  0
 13 24  1  0  0  0  0
 24 25  1  0  0  0  0
M  END
> <VConfSearch Rank>
791

> <Conf_Id>
68

> <Delta U+W>
-1.765

> <U+W>
9.148

> <U>
11.181

> <W>
-2.032

> <W(PB)>
-4.147

> <W(SA)>
2.114

> <Valence>
16.955

> <Coulomb>
-8.661

> <VdW>
2.887

> <VdW6>
-12.561

> <VdW12>
15.448

> <Bond>
0.433

> <Angle>
5.121

> <Pdih>
11.402

> <Idih>
0.000

> <Tether>
0.000

$$$$
VeraChem MOL file


 25 25  0  0  0  0  0  0  0  0999 V2000     
   20.1267   19.0591   20.8010 C   0  0  0  0  0  0  0  0  0  0  0  0
   19.9720   19.0630   19.7133 H   0  0  0  0  0  0  0  0  0  0  0  0
   20.7089   18.1498   20.9889 H   0  0  0  0  0  0  0  0  0  0  0  0
   18.7373   18.9680   21.4841 C   0  0  0  0  0  0  0  0  0  0  0  0
   18.3611   19.9641   21.7502 H   0  0  0  0  0  0  0  0  0  0  0  0
   18.0274   18.5845   20.7384 H   0  0  0  0  0  0  0  0  0  0  0  0
   18.6728   18.0114   22.7036 C   0  0  0  0  0  0  0  0  0  0  0  0
   19.0087   17.0104   22.3997 H   0  0  0  0  0  0  0  0  0  0  0  0
   17.6162   17.8954   22.9811 H   0  0  0  0  0  0  0  0  0  0  0  0
   19.4492   18.4489   23.9742 C   0  0  0  0  0  0  0  0  0  0  0  0
   19.1059   19.4346   24.3106 H   0  0  0  0  0  0  0  0  0  0  0  0
   19.1614   17.7545   24.7752 H   0  0  0  0  0  0  0  0  0  0  0  0
   20.9926   18.4204   23.8260 C   0  0  0  0  0  0  0  0  0  0  0  0
   21.2587   17.7735   22.9821 H   0  0  0  0  0  0  0  0  0  0  0  0
   21.6512   19.8081   23.6295 C   0  0  0  0  0  0  0  0  0  0  0  0
   21.6896   20.3165   24.6020 H   0  0  0  0  0  0  0  0  0  0  0  0
   22.6959   19.6562   23.3285 H   0  0  0  0  0  0  0  0  0  0  0  0
   20.9739   20.7778   22.6271 C   0  0  0  0  0  0  0  0  0  0  0  0
   21.5223   21.7287   22.6706 H   0  0  0  0  0  0  0  0  0  0  0  0
   19.9603   21.0279   22.9608 H   0  0  0  0  0  0  0  0  0  0  0  0
   20.9561   20.3232   21.1462 C   0  0  0  0  0  0  0  0  0  0  0  0
   21.9878   20.1786   20.7979 H   0  0  0  0  0  0  0  0  0  0  0  0
   20.5574   21.1571   20.5523 H   0  0  0  0  0  0  0  0  0  0  0  0
   21.5499   17.8455   25.0015 O   0  0  0  0  0  0  0  0  0  0  0  0
   21.2873   18.4260   25.7451 H   0  0  0  0  0  0  0  0  0  0  0  0
  1  2  1  0  0  0  0
  1  3  1  0  0  0  0
  1  4  1  0  0  0  0
  4  5  1  0  0  0  0
  4  6  1  0  0  0  0
  4  7  1  0  0  0  0
  7  8  1  0  0  0  0
  7  9  1  0  0  0  0
  7 10  1  0  0  0  0
 10 11  1  0  0  0  0
 10 12  1  0  0  0  0
 10 13  1  0  0  0  0
 13 14  1  0  0  0  0
 13 15  1  0  0  0  0
 15 16  1  0  0  0  0
 15 17  1  0  0  0  0
 15 18  1  0  0  0  0
 18 19  1  0  0  0  0
 18 20  1  0  0  0  0
  1 21  1  0  0  0  0
 18 21  1  0  0  0  0
 21 22  1  0  0  0  0
 21 23  1  0  0  0  0
 13 24  1  0  0  0  0
 24 25  1  0  0  0  0
M  END
> <VConfSearch Rank>
792

> <Conf_Id>
165

> <Delta U+W>
-1.999

> <U+W>
8.915

> <U>
10.935

> <W>
-2.020

> <W(PB)>
-4.135

> <W(SA)>
2.115

> <Valence>
16.757

> <Coulomb>
-8.731

> <VdW>
2.908

> <VdW6>
-12.597

> <VdW12>
15.506

> <Bond>
0.434

> <Angle>
5.069

> <Pdih>
11.254

> <Idih>
0.000

> <Tether>
0.000

$$$$
VeraChem MOL file


 25 25  0  0  0  0  0  0  0  0999 V2000     
   21.1125   20.8212   22.5229 C   0  0  0  0  0  0  0  0  0  0  0  0
   21.6457   21.7706   22.3763 H   0  0  0  0  0  0  0  0  0  0  0  0
   20.2962   21.0721   23.2096 H   0  0  0  0  0  0  0  0  0  0  0  0
   22.1100   19.8390   23.1904 C   0  0  0  0  0  0  0  0  0  0  0  0
   23.0840   19.9665   22.6985 H   0  0  0  0  0  0  0  0  0  0  0  0
   22.2641   20.1421   24.2348 H   0  0  0  0  0  0  0  0  0  0  0  0
   21.7618   18.3301   23.1402 C   0  0  0  0  0  0  0  0  0  0  0  0
   22.6135   17.7832   23.5670 H   0  0  0  0  0  0  0  0  0  0  0  0
   21.7058   17.9865   22.1009 H   0  0  0  0  0  0  0  0  0  0  0  0
   20.4957   17.8965   23.9232 C   0  0  0  0  0  0  0  0  0  0  0  0
   20.4445   16.8000   23.8840 H   0  0  0  0  0  0  0  0  0  0  0  0
   20.6274   18.1558   24.9816 H   0  0  0  0  0  0  0  0  0  0  0  0
   19.1375   18.4615   23.4397 C   0  0  0  0  0  0  0  0  0  0  0  0
   19.0320   19.4961   23.7867 H   0  0  0  0  0  0  0  0  0  0  0  0
   18.9313   18.4224   21.9035 C   0  0  0  0  0  0  0  0  0  0  0  0
   19.5740   17.6630   21.4425 H   0  0  0  0  0  0  0  0  0  0  0  0
   17.9046   18.0894   21.6997 H   0  0  0  0  0  0  0  0  0  0  0  0
   19.1114   19.7907   21.1934 C   0  0  0  0  0  0  0  0  0  0  0  0
   18.4364   20.5277   21.6496 H   0  0  0  0  0  0  0  0  0  0  0  0
   18.7658   19.6771   20.1568 H   0  0  0  0  0  0  0  0  0  0  0  0
   20.5505   20.3686   21.1500 C   0  0  0  0  0  0  0  0  0  0  0  0
   20.5212   21.2522   20.4978 H   0  0  0  0  0  0  0  0  0  0  0  0
   21.2357   19.6699   20.6530 H   0  0  0  0  0  0  0  0  0  0  0  0
   18.1120   17.6886   24.0532 O   0  0  0  0  0  0  0  0  0  0  0  0
   18.2399   17.7677   25.0216 H   0  0  0  0  0  0  0  0  0  0  0  0
  1  2  1  0  0  0  0
  1  3  1  0  0  0  0
  1  4  1  0  0  0  0
  4  5  1  0  0  0  0
  4  6  1  0  0  0  0
  4  7  1  0  0  0  0
  7  8  1  0  0  0  0
  7  9  1  0  0  0  0
  7 10  1  0  0  0  0
 10 11  1  0  0  0  0
 10 12  1  0  0  0  0
 10 13  1  0  0  0  0
 13 14  1  0  0  0  0
 13 15  1  0  0  0  0
 15 16  1  0  0  0  0
 15 17  1  0  0  0  0
 15 18  1  0  0  0  0
 18 19  1  0  0  0  0
 18 20  1  0  0  0  0
  1 21  1  0  0  0  0
 18 21  1  0  0  0  0
 21 22  1  0  0  0  0
 21 23  1  0  0  0  0
 13 24  1  0  0  0  0
 24 25  1  0  0  0  0
M  END
> <VConfSearch Rank>
793

> <Conf_Id>
133

> <Delta U+W>
-2.139

> <U+W>
8.774

> <U>
10.905

> <W>
-2.131

> <W(PB)>
-4.281

> <W(SA)>
2.150

> <Valence>
16.378

> <Coulomb>
-8.448

> <VdW>
2.976

> <VdW6>
-12.570

> <VdW12>
15.545

> <Bond>
0.439

> <Angle>
5.049

> <Pdih>
10.889

> <Idih>
0.000

> <Tether>
0.000

$$$$
VeraChem MOL file


 25 25  0  0  0  0  0  0  0  0999 V2000     
   21.3816   20.3914   21.7446 C   0  0  0  0  0  0  0  0  0  0  0  0
   22.0845   21.0118   21.1718 H   0  0  0  0  0  0  0  0  0  0  0  0
   20.7531   21.1146   22.2765 H   0  0  0  0  0  0  0  0  0  0  0  0
   22.2007   19.5386   22.7482 C   0  0  0  0  0  0  0  0  0  0  0  0
   22.4210   18.5456   22.3359 H   0  0  0  0  0  0  0  0  0  0  0  0
   23.1802   20.0213   22.8690 H   0  0  0  0  0  0  0  0  0  0  0  0
   21.5771   19.4206   24.1639 C   0  0  0  0  0  0  0  0  0  0  0  0
   21.4123   20.4263   24.5744 H   0  0  0  0  0  0  0  0  0  0  0  0
   22.3243   18.9538   24.8200 H   0  0  0  0  0  0  0  0  0  0  0  0
   20.2662   18.5980   24.2813 C   0  0  0  0  0  0  0  0  0  0  0  0
   20.4172   17.5791   23.9055 H   0  0  0  0  0  0  0  0  0  0  0  0
   20.0586   18.4790   25.3534 H   0  0  0  0  0  0  0  0  0  0  0  0
   19.0309   19.2553   23.6135 C   0  0  0  0  0  0  0  0  0  0  0  0
   19.2245   20.3265   23.4835 H   0  0  0  0  0  0  0  0  0  0  0  0
   18.6301   18.6395   22.2504 C   0  0  0  0  0  0  0  0  0  0  0  0
   18.1131   17.6895   22.4420 H   0  0  0  0  0  0  0  0  0  0  0  0
   17.8911   19.2953   21.7724 H   0  0  0  0  0  0  0  0  0  0  0  0
   19.7712   18.3515   21.2410 C   0  0  0  0  0  0  0  0  0  0  0  0
   19.3206   17.8536   20.3716 H   0  0  0  0  0  0  0  0  0  0  0  0
   20.4685   17.6124   21.6518 H   0  0  0  0  0  0  0  0  0  0  0  0
   20.5441   19.5874   20.7161 C   0  0  0  0  0  0  0  0  0  0  0  0
   19.8432   20.2693   20.2159 H   0  0  0  0  0  0  0  0  0  0  0  0
   21.2272   19.2366   19.9304 H   0  0  0  0  0  0  0  0  0  0  0  0
   17.9167   19.1160   24.4879 O   0  0  0  0  0  0  0  0  0  0  0  0
   17.1644   19.5779   24.0624 H   0  0  0  0  0  0  0  0  0  0  0  0
  1  2  1  0  0  0  0
  1  3  1  0  0  0  0
  1  4  1  0  0  0  0
  4  5  1  0  0  0  0
  4  6  1  0  0  0  0
  4  7  1  0  0  0  0
  7  8  1  0  0  0  0
  7  9  1  0  0  0  0
  7 10  1  0  0  0  0
 10 11  1  0  0  0  0
 10 12  1  0  0  0  0
 10 13  1  0  0  0  0
 13 14  1  0  0  0  0
 13 15  1  0  0  0  0
 15 16  1  0  0  0  0
 15 17  1  0  0  0  0
 15 18  1  0  0  0  0
 18 19  1  0  0  0  0
 18 20  1  0  0  0  0
  1 21  1  0  0  0  0
 18 21  1  0  0  0  0
 21 22  1  0  0  0  0
 21 23  1  0  0  0  0
 13 24  1  0  0  0  0
 24 25  1  0  0  0  0
M  END
> <VConfSearch Rank>
794

> <Conf_Id>
95

> <Delta U+W>
-2.190

> <U+W>
8.723

> <U>
10.905

> <W>
-2.182

> <W(PB)>
-4.296

> <W(SA)>
2.114

> <Valence>
16.377

> <Coulomb>
-8.448

> <VdW>
2.976

> <VdW6>
-12.570

> <VdW12>
15.546

> <Bond>
0.439

> <Angle>
5.049

> <Pdih>
10.889

> <Idih>
0.000

> <Tether>
0.000

$$$$
VeraChem MOL file


 25 25  0  0  0  0  0  0  0  0999 V2000     
   20.1937   20.9916   22.5255 C   0  0  0  0  0  0  0  0  0  0  0  0
   20.0175   22.0748   22.4752 H   0  0  0  0  0  0  0  0  0  0  0  0
   21.1102   20.8561   21.9426 H   0  0  0  0  0  0  0  0  0  0  0  0
   18.9838   20.3009   21.8302 C   0  0  0  0  0  0  0  0  0  0  0  0
   18.0919   20.9036   22.0495 H   0  0  0  0  0  0  0  0  0  0  0  0
   19.1164   20.3613   20.7415 H   0  0  0  0  0  0  0  0  0  0  0  0
   18.6479   18.8388   22.2252 C   0  0  0  0  0  0  0  0  0  0  0  0
   17.7066   18.5680   21.7278 H   0  0  0  0  0  0  0  0  0  0  0  0
   18.3950   18.8009   23.2894 H   0  0  0  0  0  0  0  0  0  0  0  0
   19.6910   17.7399   21.8632 C   0  0  0  0  0  0  0  0  0  0  0  0
   19.5156   16.8615   22.4981 H   0  0  0  0  0  0  0  0  0  0  0  0
   19.4713   17.4139   20.8382 H   0  0  0  0  0  0  0  0  0  0  0  0
   21.1949   18.1102   21.9151 C   0  0  0  0  0  0  0  0  0  0  0  0
   21.3590   18.9579   21.2418 H   0  0  0  0  0  0  0  0  0  0  0  0
   21.7932   18.4339   23.3143 C   0  0  0  0  0  0  0  0  0  0  0  0
   22.0983   17.4865   23.7788 H   0  0  0  0  0  0  0  0  0  0  0  0
   22.7202   19.0031   23.1693 H   0  0  0  0  0  0  0  0  0  0  0  0
   20.9026   19.1759   24.3473 C   0  0  0  0  0  0  0  0  0  0  0  0
   21.4564   19.2151   25.2952 H   0  0  0  0  0  0  0  0  0  0  0  0
   20.0321   18.5564   24.5853 H   0  0  0  0  0  0  0  0  0  0  0  0
   20.4699   20.6327   24.0095 C   0  0  0  0  0  0  0  0  0  0  0  0
   21.2688   21.3017   24.3572 H   0  0  0  0  0  0  0  0  0  0  0  0
   19.5893   20.8906   24.6133 H   0  0  0  0  0  0  0  0  0  0  0  0
   21.9228   17.0064   21.3892 O   0  0  0  0  0  0  0  0  0  0  0  0
   21.5846   16.8505   20.4830 H   0  0  0  0  0  0  0  0  0  0  0  0
  1  2  1  0  0  0  0
  1  3  1  0  0  0  0
  1  4  1  0  0  0  0
  4  5  1  0  0  0  0
  4  6  1  0  0  0  0
  4  7  1  0  0  0  0
  7  8  1  0  0  0  0
  7  9  1  0  0  0  0
  7 10  1  0  0  0  0
 10 11  1  0  0  0  0
 10 12  1  0  0  0  0
 10 13  1  0  0  0  0
 13 14  1  0  0  0  0
 13 15  1  0  0  0  0
 15 16  1  0  0  0  0
 15 17  1  0  0  0  0
 15 18  1  0  0  0  0
 18 19  1  0  0  0  0
 18 20  1  0  0  0  0
  1 21  1  0  0  0  0
 18 21  1  0  0  0  0
 21 22  1  0  0  0  0
 21 23  1  0  0  0  0
 13 24  1  0  0  0  0
 24 25  1  0  0  0  0
M  END
> <VConfSearch Rank>
795

> <Conf_Id>
161

> <Delta U+W>
2.120

> <U+W>
13.033

> <U>
15.076

> <W>
-2.043

> <W(PB)>
-4.186

> <W(SA)>
2.143

> <Valence>
18.884

> <Coulomb>
-8.074

> <VdW>
4.266

> <VdW6>
-13.486

> <VdW12>
17.752

> <Bond>
0.713

> <Angle>
8.955

> <Pdih>
9.215

> <Idih>
0.000

> <Tether>
0.000

$$$$
VeraChem MOL file


 25 25  0  0  0  0  0  0  0  0999 V2000     
   21.6140   17.7126   22.5996 C   0  0  0  0  0  0  0  0  0  0  0  0
   22.2928   16.8963   22.3167 H   0  0  0  0  0  0  0  0  0  0  0  0
   21.5209   17.6332   23.6901 H   0  0  0  0  0  0  0  0  0  0  0  0
   20.2419   17.4471   21.9313 C   0  0  0  0  0  0  0  0  0  0  0  0
   20.2168   17.8602   20.9140 H   0  0  0  0  0  0  0  0  0  0  0  0
   20.1547   16.3592   21.8050 H   0  0  0  0  0  0  0  0  0  0  0  0
   19.0057   17.9046   22.7547 C   0  0  0  0  0  0  0  0  0  0  0  0
   19.1601   17.7352   23.8288 H   0  0  0  0  0  0  0  0  0  0  0  0
   18.1748   17.2432   22.4731 H   0  0  0  0  0  0  0  0  0  0  0  0
   18.5329   19.3572   22.4882 C   0  0  0  0  0  0  0  0  0  0  0  0
   18.7013   19.6163   21.4359 H   0  0  0  0  0  0  0  0  0  0  0  0
   17.4424   19.3813   22.6144 H   0  0  0  0  0  0  0  0  0  0  0  0
   19.1086   20.4480   23.4266 C   0  0  0  0  0  0  0  0  0  0  0  0
   18.6655   20.3045   24.4225 H   0  0  0  0  0  0  0  0  0  0  0  0
   20.6449   20.4647   23.6013 C   0  0  0  0  0  0  0  0  0  0  0  0
   20.9252   21.4066   24.0915 H   0  0  0  0  0  0  0  0  0  0  0  0
   20.9298   19.6883   24.3195 H   0  0  0  0  0  0  0  0  0  0  0  0
   21.4544   20.3254   22.2843 C   0  0  0  0  0  0  0  0  0  0  0  0
   22.1235   21.1912   22.1877 H   0  0  0  0  0  0  0  0  0  0  0  0
   20.7988   20.3769   21.4076 H   0  0  0  0  0  0  0  0  0  0  0  0
   22.3133   19.0406   22.2058 C   0  0  0  0  0  0  0  0  0  0  0  0
   23.1954   19.1661   22.8484 H   0  0  0  0  0  0  0  0  0  0  0  0
   22.7006   18.9478   21.1820 H   0  0  0  0  0  0  0  0  0  0  0  0
   18.7059   21.7147   22.9250 O   0  0  0  0  0  0  0  0  0  0  0  0
   19.2289   21.8588   22.1104 H   0  0  0  0  0  0  0  0  0  0  0  0
  1  2  1  0  0  0  0
  1  3  1  0  0  0  0
  1  4  1  0  0  0  0
  4  5  1  0  0  0  0
  4  6  1  0  0  0  0
  4  7  1  0  0  0  0
  7  8  1  0  0  0  0
  7  9  1  0  0  0  0
  7 10  1  0  0  0  0
 10 11  1  0  0  0  0
 10 12  1  0  0  0  0
 10 13  1  0  0  0  0
 13 14  1  0  0  0  0
 13 15  1  0  0  0  0
 15 16  1  0  0  0  0
 15 17  1  0  0  0  0
 15 18  1  0  0  0  0
 18 19  1  0  0  0  0
 18 20  1  0  0  0  0
  1 21  1  0  0  0  0
 18 21  1  0  0  0  0
 21 22  1  0  0  0  0
 21 23  1  0  0  0  0
 13 24  1  0  0  0  0
 24 25  1  0  0  0  0
M  END
> <VConfSearch Rank>
796

> <Conf_Id>
164

> <Delta U+W>
0.008

> <U+W>
10.922

> <U>
12.433

> <W>
-1.511

> <W(PB)>
-3.669

> <W(SA)>
2.157

> <Valence>
19.007

> <Coulomb>
-9.373

> <VdW>
2.799

> <VdW6>
-12.597

> <VdW12>
15.396

> <Bond>
0.425

> <Angle>
4.784

> <Pdih>
13.799

> <Idih>
0.000

> <Tether>
0.000

$$$$
VeraChem MOL file


 25 25  0  0  0  0  0  0  0  0999 V2000     
   21.3641   20.3822   21.7255 C   0  0  0  0  0  0  0  0  0  0  0  0
   20.3917   20.4196   21.2215 H   0  0  0  0  0  0  0  0  0  0  0  0
   21.9914   21.0914   21.1687 H   0  0  0  0  0  0  0  0  0  0  0  0
   22.0024   18.9798   21.5654 C   0  0  0  0  0  0  0  0  0  0  0  0
   22.1269   18.7962   20.4895 H   0  0  0  0  0  0  0  0  0  0  0  0
   23.0179   18.9935   21.9836 H   0  0  0  0  0  0  0  0  0  0  0  0
   21.2279   17.7781   22.1645 C   0  0  0  0  0  0  0  0  0  0  0  0
   21.4397   17.6787   23.2351 H   0  0  0  0  0  0  0  0  0  0  0  0
   21.6467   16.8668   21.7159 H   0  0  0  0  0  0  0  0  0  0  0  0
   19.6968   17.7836   21.9107 C   0  0  0  0  0  0  0  0  0  0  0  0
   19.4489   18.3700   21.0177 H   0  0  0  0  0  0  0  0  0  0  0  0
   19.4020   16.7528   21.6722 H   0  0  0  0  0  0  0  0  0  0  0  0
   18.8372   18.2315   23.1195 C   0  0  0  0  0  0  0  0  0  0  0  0
   19.1239   17.6217   23.9882 H   0  0  0  0  0  0  0  0  0  0  0  0
   18.9352   19.7239   23.5240 C   0  0  0  0  0  0  0  0  0  0  0  0
   18.6623   20.3740   22.6840 H   0  0  0  0  0  0  0  0  0  0  0  0
   18.1668   19.8998   24.2887 H   0  0  0  0  0  0  0  0  0  0  0  0
   20.2981   20.1470   24.1340 C   0  0  0  0  0  0  0  0  0  0  0  0
   20.8110   19.2807   24.5671 H   0  0  0  0  0  0  0  0  0  0  0  0
   20.1007   20.8057   24.9909 H   0  0  0  0  0  0  0  0  0  0  0  0
   21.2426   20.9156   23.1749 C   0  0  0  0  0  0  0  0  0  0  0  0
   22.2424   20.9696   23.6266 H   0  0  0  0  0  0  0  0  0  0  0  0
   20.8877   21.9535   23.1146 H   0  0  0  0  0  0  0  0  0  0  0  0
   17.4783   17.9583   22.8065 O   0  0  0  0  0  0  0  0  0  0  0  0
   17.2560   18.5148   22.0321 H   0  0  0  0  0  0  0  0  0  0  0  0
  1  2  1  0  0  0  0
  1  3  1  0  0  0  0
  1  4  1  0  0  0  0
  4  5  1  0  0  0  0
  4  6  1  0  0  0  0
  4  7  1  0  0  0  0
  7  8  1  0  0  0  0
  7  9  1  0  0  0  0
  7 10  1  0  0  0  0
 10 11  1  0  0  0  0
 10 12  1  0  0  0  0
 10 13  1  0  0  0  0
 13 14  1  0  0  0  0
 13 15  1  0  0  0  0
 15 16  1  0  0  0  0
 15 17  1  0  0  0  0
 15 18  1  0  0  0  0
 18 19  1  0  0  0  0
 18 20  1  0  0  0  0
  1 21  1  0  0  0  0
 18 21  1  0  0  0  0
 21 22  1  0  0  0  0
 21 23  1  0  0  0  0
 13 24  1  0  0  0  0
 24 25  1  0  0  0  0
M  END
> <VConfSearch Rank>
797

> <Conf_Id>
15

> <Delta U+W>
-1.271

> <U+W>
9.643

> <U>
11.413

> <W>
-1.770

> <W(PB)>
-3.908

> <W(SA)>
2.138

> <Valence>
17.496

> <Coulomb>
-8.736

> <VdW>
2.653

> <VdW6>
-12.485

> <VdW12>
15.138

> <Bond>
0.414

> <Angle>
5.295

> <Pdih>
11.787

> <Idih>
0.000

> <Tether>
0.000

$$$$
VeraChem MOL file


 25 25  0  0  0  0  0  0  0  0999 V2000     
   19.2548   18.0331   23.6849 C   0  0  0  0  0  0  0  0  0  0  0  0
   18.7898   17.2231   24.2635 H   0  0  0  0  0  0  0  0  0  0  0  0
   18.4124   18.5823   23.2458 H   0  0  0  0  0  0  0  0  0  0  0  0
   20.0241   18.9263   24.6934 C   0  0  0  0  0  0  0  0  0  0  0  0
   19.2881   19.4150   25.3463 H   0  0  0  0  0  0  0  0  0  0  0  0
   20.6257   18.2836   25.3505 H   0  0  0  0  0  0  0  0  0  0  0  0
   20.9516   20.0105   24.0936 C   0  0  0  0  0  0  0  0  0  0  0  0
   21.8885   19.5486   23.7612 H   0  0  0  0  0  0  0  0  0  0  0  0
   21.2467   20.6923   24.9028 H   0  0  0  0  0  0  0  0  0  0  0  0
   20.3034   20.8400   22.9546 C   0  0  0  0  0  0  0  0  0  0  0  0
   19.2328   20.6220   22.8726 H   0  0  0  0  0  0  0  0  0  0  0  0
   20.3549   21.9023   23.2266 H   0  0  0  0  0  0  0  0  0  0  0  0
   20.9846   20.6784   21.5762 C   0  0  0  0  0  0  0  0  0  0  0  0
   21.9375   21.2258   21.6103 H   0  0  0  0  0  0  0  0  0  0  0  0
   21.3068   19.2294   21.1279 C   0  0  0  0  0  0  0  0  0  0  0  0
   21.6220   19.2817   20.0771 H   0  0  0  0  0  0  0  0  0  0  0  0
   22.1913   18.8598   21.6604 H   0  0  0  0  0  0  0  0  0  0  0  0
   20.1596   18.1892   21.2329 C   0  0  0  0  0  0  0  0  0  0  0  0
   20.3226   17.4565   20.4305 H   0  0  0  0  0  0  0  0  0  0  0  0
   19.1870   18.6473   21.0118 H   0  0  0  0  0  0  0  0  0  0  0  0
   20.1094   17.3904   22.5645 C   0  0  0  0  0  0  0  0  0  0  0  0
   21.1197   17.1594   22.9279 H   0  0  0  0  0  0  0  0  0  0  0  0
   19.6539   16.4173   22.3347 H   0  0  0  0  0  0  0  0  0  0  0  0
   20.1495   21.2781   20.5957 O   0  0  0  0  0  0  0  0  0  0  0  0
   19.3582   20.7063   20.5320 H   0  0  0  0  0  0  0  0  0  0  0  0
  1  2  1  0  0  0  0
  1  3  1  0  0  0  0
  1  4  1  0  0  0  0
  4  5  1  0  0  0  0
  4  6  1  0  0  0  0
  4  7  1  0  0  0  0
  7  8  1  0  0  0  0
  7  9  1  0  0  0  0
  7 10  1  0  0  0  0
 10 11  1  0  0  0  0
 10 12  1  0  0  0  0
 10 13  1  0  0  0  0
 13 14  1  0  0  0  0
 13 15  1  0  0  0  0
 15 16  1  0  0  0  0
 15 17  1  0  0  0  0
 15 18  1  0  0  0  0
 18 19  1  0  0  0  0
 18 20  1  0  0  0  0
  1 21  1  0  0  0  0
 18 21  1  0  0  0  0
 21 22  1  0  0  0  0
 21 23  1  0  0  0  0
 13 24  1  0  0  0  0
 24 25  1  0  0  0  0
M  END
> <VConfSearch Rank>
798

> <Conf_Id>
115

> <Delta U+W>
0.038

> <U+W>
10.952

> <U>
12.526

> <W>
-1.575

> <W(PB)>
-3.698

> <W(SA)>
2.123

> <Valence>
19.016

> <Coulomb>
-9.226

> <VdW>
2.737

> <VdW6>
-12.612

> <VdW12>
15.349

> <Bond>
0.421

> <Angle>
4.883

> <Pdih>
13.711

> <Idih>
0.000

> <Tether>
0.000

$$$$
VeraChem MOL file


 25 25  0  0  0  0  0  0  0  0999 V2000     
   20.9377   19.7988   24.6387 C   0  0  0  0  0  0  0  0  0  0  0  0
   20.7507   20.0452   25.6929 H   0  0  0  0  0  0  0  0  0  0  0  0
   22.0212   19.6350   24.5627 H   0  0  0  0  0  0  0  0  0  0  0  0
   20.5265   21.0299   23.7980 C   0  0  0  0  0  0  0  0  0  0  0  0
   19.4679   21.2674   23.9699 H   0  0  0  0  0  0  0  0  0  0  0  0
   21.0883   21.8923   24.1820 H   0  0  0  0  0  0  0  0  0  0  0  0
   20.8087   20.9148   22.2821 C   0  0  0  0  0  0  0  0  0  0  0  0
   21.7903   20.4531   22.1110 H   0  0  0  0  0  0  0  0  0  0  0  0
   20.8939   21.9358   21.8853 H   0  0  0  0  0  0  0  0  0  0  0  0
   19.6940   20.1936   21.4776 C   0  0  0  0  0  0  0  0  0  0  0  0
   18.7773   20.0898   22.0714 H   0  0  0  0  0  0  0  0  0  0  0  0
   19.4244   20.8453   20.6355 H   0  0  0  0  0  0  0  0  0  0  0  0
   20.1082   18.8210   20.9012 C   0  0  0  0  0  0  0  0  0  0  0  0
   21.1639   18.8665   20.5976 H   0  0  0  0  0  0  0  0  0  0  0  0
   19.9148   17.6315   21.8677 C   0  0  0  0  0  0  0  0  0  0  0  0
   18.8539   17.5333   22.1331 H   0  0  0  0  0  0  0  0  0  0  0  0
   20.1718   16.7151   21.3204 H   0  0  0  0  0  0  0  0  0  0  0  0
   20.7830   17.6686   23.1489 C   0  0  0  0  0  0  0  0  0  0  0  0
   21.8020   18.0021   22.9111 H   0  0  0  0  0  0  0  0  0  0  0  0
   20.8908   16.6333   23.5007 H   0  0  0  0  0  0  0  0  0  0  0  0
   20.1752   18.4928   24.3139 C   0  0  0  0  0  0  0  0  0  0  0  0
   20.2084   17.8632   25.2137 H   0  0  0  0  0  0  0  0  0  0  0  0
   19.1104   18.7024   24.1458 H   0  0  0  0  0  0  0  0  0  0  0  0
   19.3126   18.5691   19.7492 O   0  0  0  0  0  0  0  0  0  0  0  0
   19.6261   17.7225   19.3680 H   0  0  0  0  0  0  0  0  0  0  0  0
  1  2  1  0  0  0  0
  1  3  1  0  0  0  0
  1  4  1  0  0  0  0
  4  5  1  0  0  0  0
  4  6  1  0  0  0  0
  4  7  1  0  0  0  0
  7  8  1  0  0  0  0
  7  9  1  0  0  0  0
  7 10  1  0  0  0  0
 10 11  1  0  0  0  0
 10 12  1  0  0  0  0
 10 13  1  0  0  0  0
 13 14  1  0  0  0  0
 13 15  1  0  0  0  0
 15 16  1  0  0  0  0
 15 17  1  0  0  0  0
 15 18  1  0  0  0  0
 18 19  1  0  0  0  0
 18 20  1  0  0  0  0
  1 21  1  0  0  0  0
 18 21  1  0  0  0  0
 21 22  1  0  0  0  0
 21 23  1  0  0  0  0
 13 24  1  0  0  0  0
 24 25  1  0  0  0  0
M  END
> <VConfSearch Rank>
799

> <Conf_Id>
30

> <Delta U+W>
0.000

> <U+W>
10.913

> <U>
13.140

> <W>
-2.227

> <W(PB)>
-4.367

> <W(SA)>
2.140

> <Valence>
19.155

> <Coulomb>
-8.157

> <VdW>
2.142

> <VdW6>
-11.576

> <VdW12>
13.718

> <Bond>
0.294

> <Angle>
3.547

> <Pdih>
15.314

> <Idih>
0.000

> <Tether>
0.000

$$$$
VeraChem MOL file


 25 25  0  0  0  0  0  0  0  0999 V2000     
   19.2579   17.7768   23.8082 C   0  0  0  0  0  0  0  0  0  0  0  0
   19.1246   16.6920   23.6973 H   0  0  0  0  0  0  0  0  0  0  0  0
   18.6548   18.0623   24.6808 H   0  0  0  0  0  0  0  0  0  0  0  0
   18.6647   18.4748   22.5596 C   0  0  0  0  0  0  0  0  0  0  0  0
   17.7009   17.9992   22.3321 H   0  0  0  0  0  0  0  0  0  0  0  0
   18.4103   19.5126   22.8039 H   0  0  0  0  0  0  0  0  0  0  0  0
   19.5621   18.4022   21.2981 C   0  0  0  0  0  0  0  0  0  0  0  0
   18.9838   17.9531   20.4792 H   0  0  0  0  0  0  0  0  0  0  0  0
   20.4045   17.7182   21.4533 H   0  0  0  0  0  0  0  0  0  0  0  0
   20.0880   19.7780   20.8164 C   0  0  0  0  0  0  0  0  0  0  0  0
   20.8535   19.6068   20.0480 H   0  0  0  0  0  0  0  0  0  0  0  0
   19.2681   20.3062   20.3125 H   0  0  0  0  0  0  0  0  0  0  0  0
   20.6621   20.7258   21.8991 C   0  0  0  0  0  0  0  0  0  0  0  0
   19.8399   21.1047   22.5207 H   0  0  0  0  0  0  0  0  0  0  0  0
   21.7320   20.0958   22.8241 C   0  0  0  0  0  0  0  0  0  0  0  0
   22.3043   19.3329   22.2810 H   0  0  0  0  0  0  0  0  0  0  0  0
   22.4609   20.8753   23.0832 H   0  0  0  0  0  0  0  0  0  0  0  0
   21.1872   19.5295   24.1658 C   0  0  0  0  0  0  0  0  0  0  0  0
   20.3807   20.1592   24.5652 H   0  0  0  0  0  0  0  0  0  0  0  0
   22.0034   19.6028   24.8977 H   0  0  0  0  0  0  0  0  0  0  0  0
   20.7540   18.0431   24.1235 C   0  0  0  0  0  0  0  0  0  0  0  0
   20.9552   17.6051   25.1108 H   0  0  0  0  0  0  0  0  0  0  0  0
   21.3994   17.4842   23.4340 H   0  0  0  0  0  0  0  0  0  0  0  0
   21.2486   21.8309   21.2215 O   0  0  0  0  0  0  0  0  0  0  0  0
   21.5379   22.4639   21.9115 H   0  0  0  0  0  0  0  0  0  0  0  0
  1  2  1  0  0  0  0
  1  3  1  0  0  0  0
  1  4  1  0  0  0  0
  4  5  1  0  0  0  0
  4  6  1  0  0  0  0
  4  7  1  0  0  0  0
  7  8  1  0  0  0  0
  7  9  1  0  0  0  0
  7 10  1  0  0  0  0
 10 11  1  0  0  0  0
 10 12  1  0  0  0  0
 10 13  1  0  0  0  0
 13 14  1  0  0  0  0
 13 15  1  0  0  0  0
 15 16  1  0  0  0  0
 15 17  1  0  0  0  0
 15 18  1  0  0  0  0
 18 19  1  0  0  0  0
 18 20  1  0  0  0  0
  1 21  1  0  0  0  0
 18 21  1  0  0  0  0
 21 22  1  0  0  0  0
 21 23  1  0  0  0  0
 13 24  1  0  0  0  0
 24 25  1  0  0  0  0
M  END
> <VConfSearch Rank>
800

> <Conf_Id>
162

> <Delta U+W>
0.219

> <U+W>
11.132

> <U>
13.296

> <W>
-2.164

> <W(PB)>
-4.311

> <W(SA)>
2.148

> <Valence>
18.607

> <Coulomb>
-8.339

> <VdW>
3.028

> <VdW6>
-12.271

> <VdW12>
15.299

> <Bond>
0.423

> <Angle>
4.488

> <Pdih>
13.696

> <Idih>
0.000

> <Tether>
0.000

$$$$
VeraChem MOL file


 25 25  0  0  0  0  0  0  0  0999 V2000     
   20.0142   19.2196   20.6978 C   0  0  0  0  0  0  0  0  0  0  0  0
   18.9422   19.2629   20.9284 H   0  0  0  0  0  0  0  0  0  0  0  0
   20.0657   19.2490   19.6008 H   0  0  0  0  0  0  0  0  0  0  0  0
   20.7237   20.4838   21.2437 C   0  0  0  0  0  0  0  0  0  0  0  0
   21.8034   20.3108   21.3472 H   0  0  0  0  0  0  0  0  0  0  0  0
   20.6267   21.2611   20.4733 H   0  0  0  0  0  0  0  0  0  0  0  0
   20.1208   21.0685   22.5514 C   0  0  0  0  0  0  0  0  0  0  0  0
   19.0263   20.9781   22.5589 H   0  0  0  0  0  0  0  0  0  0  0  0
   20.3227   22.1485   22.5386 H   0  0  0  0  0  0  0  0  0  0  0  0
   20.7292   20.5144   23.8659 C   0  0  0  0  0  0  0  0  0  0  0  0
   21.7935   20.2918   23.7211 H   0  0  0  0  0  0  0  0  0  0  0  0
   20.7079   21.3203   24.6111 H   0  0  0  0  0  0  0  0  0  0  0  0
   20.0016   19.3042   24.5042 C   0  0  0  0  0  0  0  0  0  0  0  0
   19.0426   19.6617   24.9061 H   0  0  0  0  0  0  0  0  0  0  0  0
   19.6913   18.1166   23.5622 C   0  0  0  0  0  0  0  0  0  0  0  0
   19.3767   17.2597   24.1719 H   0  0  0  0  0  0  0  0  0  0  0  0
   18.8094   18.3611   22.9604 H   0  0  0  0  0  0  0  0  0  0  0  0
   20.8737   17.6778   22.6584 C   0  0  0  0  0  0  0  0  0  0  0  0
   21.0868   16.6168   22.8459 H   0  0  0  0  0  0  0  0  0  0  0  0
   21.7956   18.2011   22.9384 H   0  0  0  0  0  0  0  0  0  0  0  0
   20.6148   17.8599   21.1433 C   0  0  0  0  0  0  0  0  0  0  0  0
   19.9419   17.0613   20.8025 H   0  0  0  0  0  0  0  0  0  0  0  0
   21.5624   17.6991   20.6112 H   0  0  0  0  0  0  0  0  0  0  0  0
   20.8049   18.8318   25.5793 O   0  0  0  0  0  0  0  0  0  0  0  0
   20.3329   18.0673   25.9689 H   0  0  0  0  0  0  0  0  0  0  0  0
  1  2  1  0  0  0  0
  1  3  1  0  0  0  0
  1  4  1  0  0  0  0
  4  5  1  0  0  0  0
  4  6  1  0  0  0  0
  4  7  1  0  0  0  0
  7  8  1  0  0  0  0
  7  9  1  0  0  0  0
  7 10  1  0  0  0  0
 10 11  1  0  0  0  0
 10 12  1  0  0  0  0
 10 13  1  0  0  0  0
 13 14  1  0  0  0  0
 13 15  1  0  0  0  0
 15 16  1  0  0  0  0
 15 17  1  0  0  0  0
 15 18  1  0  0  0  0
 18 19  1  0  0  0  0
 18 20  1  0  0  0  0
  1 21  1  0  0  0  0
 18 21  1  0  0  0  0
 21 22  1  0  0  0  0
 21 23  1  0  0  0  0
 13 24  1  0  0  0  0
 24 25  1  0  0  0  0
M  END
> <VConfSearch Rank>
801

> <Conf_Id>
155

> <Delta U+W>
0.339

> <U+W>
11.252

> <U>
13.420

> <W>
-2.167

> <W(PB)>
-4.325

> <W(SA)>
2.157

> <Valence>
18.609

> <Coulomb>
-8.052

> <VdW>
2.863

> <VdW6>
-12.524

> <VdW12>
15.387

> <Bond>
0.430

> <Angle>
4.724

> <Pdih>
13.455

> <Idih>
0.000

> <Tether>
0.000

$$$$
VeraChem MOL file


 25 25  0  0  0  0  0  0  0  0999 V2000     
   19.2047   18.4141   21.2393 C   0  0  0  0  0  0  0  0  0  0  0  0
   18.1313   18.3945   21.4715 H   0  0  0  0  0  0  0  0  0  0  0  0
   19.2947   17.9750   20.2363 H   0  0  0  0  0  0  0  0  0  0  0  0
   19.6771   19.8878   21.1302 C   0  0  0  0  0  0  0  0  0  0  0  0
   20.7155   19.9098   20.7846 H   0  0  0  0  0  0  0  0  0  0  0  0
   19.1220   20.3540   20.3048 H   0  0  0  0  0  0  0  0  0  0  0  0
   19.4898   20.7982   22.3788 C   0  0  0  0  0  0  0  0  0  0  0  0
   18.4745   21.2150   22.3327 H   0  0  0  0  0  0  0  0  0  0  0  0
   20.1652   21.6605   22.2953 H   0  0  0  0  0  0  0  0  0  0  0  0
   19.6540   20.1579   23.7841 C   0  0  0  0  0  0  0  0  0  0  0  0
   19.3484   20.9088   24.5244 H   0  0  0  0  0  0  0  0  0  0  0  0
   18.9077   19.3684   23.9087 H   0  0  0  0  0  0  0  0  0  0  0  0
   21.0644   19.6367   24.1887 C   0  0  0  0  0  0  0  0  0  0  0  0
   20.9286   18.8761   24.9710 H   0  0  0  0  0  0  0  0  0  0  0  0
   21.9513   19.0226   23.0766 C   0  0  0  0  0  0  0  0  0  0  0  0
   22.1510   19.7845   22.3176 H   0  0  0  0  0  0  0  0  0  0  0  0
   22.9396   18.8271   23.5133 H   0  0  0  0  0  0  0  0  0  0  0  0
   21.4762   17.6934   22.4165 C   0  0  0  0  0  0  0  0  0  0  0  0
   21.8454   16.8669   23.0390 H   0  0  0  0  0  0  0  0  0  0  0  0
   21.9807   17.5780   21.4478 H   0  0  0  0  0  0  0  0  0  0  0  0
   19.9524   17.4720   22.2278 C   0  0  0  0  0  0  0  0  0  0  0  0
   19.4621   17.4660   23.2063 H   0  0  0  0  0  0  0  0  0  0  0  0
   19.8097   16.4453   21.8640 H   0  0  0  0  0  0  0  0  0  0  0  0
   21.7907   20.7289   24.7416 O   0  0  0  0  0  0  0  0  0  0  0  0
   21.2515   21.0834   25.4784 H   0  0  0  0  0  0  0  0  0  0  0  0
  1  2  1  0  0  0  0
  1  3  1  0  0  0  0
  1  4  1  0  0  0  0
  4  5  1  0  0  0  0
  4  6  1  0  0  0  0
  4  7  1  0  0  0  0
  7  8  1  0  0  0  0
  7  9  1  0  0  0  0
  7 10  1  0  0  0  0
 10 11  1  0  0  0  0
 10 12  1  0  0  0  0
 10 13  1  0  0  0  0
 13 14  1  0  0  0  0
 13 15  1  0  0  0  0
 15 16  1  0  0  0  0
 15 17  1  0  0  0  0
 15 18  1  0  0  0  0
 18 19  1  0  0  0  0
 18 20  1  0  0  0  0
  1 21  1  0  0  0  0
 18 21  1  0  0  0  0
 21 22  1  0  0  0  0
 21 23  1  0  0  0  0
 13 24  1  0  0  0  0
 24 25  1  0  0  0  0
M  END
> <VConfSearch Rank>
802

> <Conf_Id>
146

> <Delta U+W>
2.553

> <U+W>
13.466

> <U>
15.643

> <W>
-2.176

> <W(PB)>
-4.307

> <W(SA)>
2.131

> <Valence>
18.916

> <Coulomb>
-7.506

> <VdW>
4.232

> <VdW6>
-13.632

> <VdW12>
17.864

> <Bond>
0.735

> <Angle>
9.140

> <Pdih>
9.042

> <Idih>
0.000

> <Tether>
0.000

$$$$
VeraChem MOL file


 25 25  0  0  0  0  0  0  0  0999 V2000     
   18.6059   19.9728   23.5821 C   0  0  0  0  0  0  0  0  0  0  0  0
   18.4341   19.8886   24.6637 H   0  0  0  0  0  0  0  0  0  0  0  0
   17.7199   20.4833   23.1804 H   0  0  0  0  0  0  0  0  0  0  0  0
   18.6451   18.5551   22.9587 C   0  0  0  0  0  0  0  0  0  0  0  0
   17.6694   18.0880   23.1501 H   0  0  0  0  0  0  0  0  0  0  0  0
   18.7096   18.6206   21.8666 H   0  0  0  0  0  0  0  0  0  0  0  0
   19.7297   17.5965   23.5110 C   0  0  0  0  0  0  0  0  0  0  0  0
   19.5569   16.6084   23.0630 H   0  0  0  0  0  0  0  0  0  0  0  0
   19.5811   17.4638   24.5912 H   0  0  0  0  0  0  0  0  0  0  0  0
   21.2089   17.9834   23.2500 C   0  0  0  0  0  0  0  0  0  0  0  0
   21.5453   18.7192   23.9872 H   0  0  0  0  0  0  0  0  0  0  0  0
   21.8167   17.0918   23.4555 H   0  0  0  0  0  0  0  0  0  0  0  0
   21.5147   18.4849   21.8151 C   0  0  0  0  0  0  0  0  0  0  0  0
   20.7224   18.1512   21.1316 H   0  0  0  0  0  0  0  0  0  0  0  0
   21.6763   20.0221   21.7019 C   0  0  0  0  0  0  0  0  0  0  0  0
   22.4459   20.3568   22.4100 H   0  0  0  0  0  0  0  0  0  0  0  0
   22.0733   20.2486   20.7037 H   0  0  0  0  0  0  0  0  0  0  0  0
   20.3952   20.8786   21.8940 C   0  0  0  0  0  0  0  0  0  0  0  0
   19.6216   20.5905   21.1706 H   0  0  0  0  0  0  0  0  0  0  0  0
   20.6594   21.9128   21.6341 H   0  0  0  0  0  0  0  0  0  0  0  0
   19.8312   20.8913   23.3384 C   0  0  0  0  0  0  0  0  0  0  0  0
   19.5165   21.9174   23.5730 H   0  0  0  0  0  0  0  0  0  0  0  0
   20.6246   20.6775   24.0633 H   0  0  0  0  0  0  0  0  0  0  0  0
   22.7411   17.8985   21.3940 O   0  0  0  0  0  0  0  0  0  0  0  0
   22.8861   18.1800   20.4666 H   0  0  0  0  0  0  0  0  0  0  0  0
  1  2  1  0  0  0  0
  1  3  1  0  0  0  0
  1  4  1  0  0  0  0
  4  5  1  0  0  0  0
  4  6  1  0  0  0  0
  4  7  1  0  0  0  0
  7  8  1  0  0  0  0
  7  9  1  0  0  0  0
  7 10  1  0  0  0  0
 10 11  1  0  0  0  0
 10 12  1  0  0  0  0
 10 13  1  0  0  0  0
 13 14  1  0  0  0  0
 13 15  1  0  0  0  0
 15 16  1  0  0  0  0
 15 17  1  0  0  0  0
 15 18  1  0  0  0  0
 18 19  1  0  0  0  0
 18 20  1  0  0  0  0
  1 21  1  0  0  0  0
 18 21  1  0  0  0  0
 21 22  1  0  0  0  0
 21 23  1  0  0  0  0
 13 24  1  0  0  0  0
 24 25  1  0  0  0  0
M  END
> <VConfSearch Rank>
803

> <Conf_Id>
62

> <Delta U+W>
-1.779

> <U+W>
9.134

> <U>
11.364

> <W>
-2.230

> <W(PB)>
-4.359

> <W(SA)>
2.129

> <Valence>
16.582

> <Coulomb>
-8.150

> <VdW>
2.933

> <VdW6>
-12.531

> <VdW12>
15.464

> <Bond>
0.439

> <Angle>
5.099

> <Pdih>
11.044

> <Idih>
0.000

> <Tether>
0.000

$$$$
VeraChem MOL file


 25 25  0  0  0  0  0  0  0  0999 V2000     
   21.3349   20.7923   22.7319 C   0  0  0  0  0  0  0  0  0  0  0  0
   21.4729   20.3550   23.7273 H   0  0  0  0  0  0  0  0  0  0  0  0
   21.8873   21.7410   22.7677 H   0  0  0  0  0  0  0  0  0  0  0  0
   19.8433   21.1370   22.4952 C   0  0  0  0  0  0  0  0  0  0  0  0
   19.5453   21.8568   23.2698 H   0  0  0  0  0  0  0  0  0  0  0  0
   19.7411   21.6694   21.5400 H   0  0  0  0  0  0  0  0  0  0  0  0
   18.8330   19.9618   22.5268 C   0  0  0  0  0  0  0  0  0  0  0  0
   18.8024   19.4545   21.5558 H   0  0  0  0  0  0  0  0  0  0  0  0
   17.8315   20.3992   22.6396 H   0  0  0  0  0  0  0  0  0  0  0  0
   19.0455   18.9352   23.6714 C   0  0  0  0  0  0  0  0  0  0  0  0
   19.5839   19.3882   24.5129 H   0  0  0  0  0  0  0  0  0  0  0  0
   18.0534   18.6802   24.0664 H   0  0  0  0  0  0  0  0  0  0  0  0
   19.7255   17.6106   23.2419 C   0  0  0  0  0  0  0  0  0  0  0  0
   19.1628   17.1933   22.3943 H   0  0  0  0  0  0  0  0  0  0  0  0
   21.2162   17.7034   22.8307 C   0  0  0  0  0  0  0  0  0  0  0  0
   21.8157   18.1192   23.6496 H   0  0  0  0  0  0  0  0  0  0  0  0
   21.5773   16.6743   22.7029 H   0  0  0  0  0  0  0  0  0  0  0  0
   21.4843   18.4570   21.5004 C   0  0  0  0  0  0  0  0  0  0  0  0
   20.5945   18.4363   20.8611 H   0  0  0  0  0  0  0  0  0  0  0  0
   22.2414   17.8963   20.9354 H   0  0  0  0  0  0  0  0  0  0  0  0
   22.0103   19.9070   21.6549 C   0  0  0  0  0  0  0  0  0  0  0  0
   21.9533   20.4126   20.6814 H   0  0  0  0  0  0  0  0  0  0  0  0
   23.0801   19.8516   21.8986 H   0  0  0  0  0  0  0  0  0  0  0  0
   19.6393   16.7067   24.3364 O   0  0  0  0  0  0  0  0  0  0  0  0
   18.6872   16.6029   24.5437 H   0  0  0  0  0  0  0  0  0  0  0  0
  1  2  1  0  0  0  0
  1  3  1  0  0  0  0
  1  4  1  0  0  0  0
  4  5  1  0  0  0  0
  4  6  1  0  0  0  0
  4  7  1  0  0  0  0
  7  8  1  0  0  0  0
  7  9  1  0  0  0  0
  7 10  1  0  0  0  0
 10 11  1  0  0  0  0
 10 12  1  0  0  0  0
 10 13  1  0  0  0  0
 13 14  1  0  0  0  0
 13 15  1  0  0  0  0
 15 16  1  0  0  0  0
 15 17  1  0  0  0  0
 15 18  1  0  0  0  0
 18 19  1  0  0  0  0
 18 20  1  0  0  0  0
  1 21  1  0  0  0  0
 18 21  1  0  0  0  0
 21 22  1  0  0  0  0
 21 23  1  0  0  0  0
 13 24  1  0  0  0  0
 24 25  1  0  0  0  0
M  END
> <VConfSearch Rank>
804

> <Conf_Id>
121

> <Delta U+W>
-1.283

> <U+W>
9.630

> <U>
11.876

> <W>
-2.246

> <W(PB)>
-4.376

> <W(SA)>
2.130

> <Valence>
17.153

> <Coulomb>
-7.966

> <VdW>
2.689

> <VdW6>
-12.458

> <VdW12>
15.147

> <Bond>
0.421

> <Angle>
5.258

> <Pdih>
11.475

> <Idih>
0.000

> <Tether>
0.000

$$$$
VeraChem MOL file


 25 25  0  0  0  0  0  0  0  0999 V2000     
   18.7215   18.4464   23.1101 C   0  0  0  0  0  0  0  0  0  0  0  0
   18.9264   18.1012   22.0902 H   0  0  0  0  0  0  0  0  0  0  0  0
   17.7765   17.9573   23.3828 H   0  0  0  0  0  0  0  0  0  0  0  0
   18.4690   19.9747   23.1224 C   0  0  0  0  0  0  0  0  0  0  0  0
   17.6024   20.1698   22.4759 H   0  0  0  0  0  0  0  0  0  0  0  0
   18.1626   20.2839   24.1308 H   0  0  0  0  0  0  0  0  0  0  0  0
   19.6290   20.8865   22.6471 C   0  0  0  0  0  0  0  0  0  0  0  0
   20.3370   21.0663   23.4640 H   0  0  0  0  0  0  0  0  0  0  0  0
   19.1982   21.8745   22.4347 H   0  0  0  0  0  0  0  0  0  0  0  0
   20.3764   20.4008   21.3762 C   0  0  0  0  0  0  0  0  0  0  0  0
   19.7398   19.7476   20.7673 H   0  0  0  0  0  0  0  0  0  0  0  0
   20.5662   21.2829   20.7504 H   0  0  0  0  0  0  0  0  0  0  0  0
   21.7482   19.7307   21.6391 C   0  0  0  0  0  0  0  0  0  0  0  0
   22.3508   20.4156   22.2529 H   0  0  0  0  0  0  0  0  0  0  0  0
   21.7169   18.3495   22.3410 C   0  0  0  0  0  0  0  0  0  0  0  0
   21.1166   17.6374   21.7614 H   0  0  0  0  0  0  0  0  0  0  0  0
   22.7391   17.9495   22.3211 H   0  0  0  0  0  0  0  0  0  0  0  0
   21.2660   18.3810   23.8260 C   0  0  0  0  0  0  0  0  0  0  0  0
   21.4430   19.3713   24.2607 H   0  0  0  0  0  0  0  0  0  0  0  0
   21.9209   17.7093   24.3978 H   0  0  0  0  0  0  0  0  0  0  0  0
   19.8071   17.9259   24.0849 C   0  0  0  0  0  0  0  0  0  0  0  0
   19.5282   18.1911   25.1136 H   0  0  0  0  0  0  0  0  0  0  0  0
   19.7858   16.8282   24.0451 H   0  0  0  0  0  0  0  0  0  0  0  0
   22.3893   19.5610   20.3811 O   0  0  0  0  0  0  0  0  0  0  0  0
   23.2817   19.2002   20.5645 H   0  0  0  0  0  0  0  0  0  0  0  0
  1  2  1  0  0  0  0
  1  3  1  0  0  0  0
  1  4  1  0  0  0  0
  4  5  1  0  0  0  0
  4  6  1  0  0  0  0
  4  7  1  0  0  0  0
  7  8  1  0  0  0  0
  7  9  1  0  0  0  0
  7 10  1  0  0  0  0
 10 11  1  0  0  0  0
 10 12  1  0  0  0  0
 10 13  1  0  0  0  0
 13 14  1  0  0  0  0
 13 15  1  0  0  0  0
 15 16  1  0  0  0  0
 15 17  1  0  0  0  0
 15 18  1  0  0  0  0
 18 19  1  0  0  0  0
 18 20  1  0  0  0  0
  1 21  1  0  0  0  0
 18 21  1  0  0  0  0
 21 22  1  0  0  0  0
 21 23  1  0  0  0  0
 13 24  1  0  0  0  0
 24 25  1  0  0  0  0
M  END
> <VConfSearch Rank>
805

> <Conf_Id>
24

> <Delta U+W>
-1.236

> <U+W>
9.678

> <U>
11.876

> <W>
-2.199

> <W(PB)>
-4.335

> <W(SA)>
2.137

> <Valence>
17.153

> <Coulomb>
-7.966

> <VdW>
2.689

> <VdW6>
-12.458

> <VdW12>
15.147

> <Bond>
0.421

> <Angle>
5.258

> <Pdih>
11.475

> <Idih>
0.000

> <Tether>
0.000

$$$$
VeraChem MOL file


 25 25  0  0  0  0  0  0  0  0999 V2000     
   22.4014   19.3715   22.6743 C   0  0  0  0  0  0  0  0  0  0  0  0
   23.0742   18.5104   22.7864 H   0  0  0  0  0  0  0  0  0  0  0  0
   23.0521   20.2564   22.6547 H   0  0  0  0  0  0  0  0  0  0  0  0
   21.6865   19.2742   21.3003 C   0  0  0  0  0  0  0  0  0  0  0  0
   21.2720   20.2481   21.0105 H   0  0  0  0  0  0  0  0  0  0  0  0
   22.4623   19.0668   20.5505 H   0  0  0  0  0  0  0  0  0  0  0  0
   20.5994   18.1782   21.1759 C   0  0  0  0  0  0  0  0  0  0  0  0
   20.8700   17.2917   21.7652 H   0  0  0  0  0  0  0  0  0  0  0  0
   20.6023   17.8438   20.1293 H   0  0  0  0  0  0  0  0  0  0  0  0
   19.1511   18.6450   21.4960 C   0  0  0  0  0  0  0  0  0  0  0  0
   18.9860   19.6725   21.1474 H   0  0  0  0  0  0  0  0  0  0  0  0
   18.4796   18.0181   20.8933 H   0  0  0  0  0  0  0  0  0  0  0  0
   18.7296   18.4997   22.9787 C   0  0  0  0  0  0  0  0  0  0  0  0
   19.2913   17.6663   23.4209 H   0  0  0  0  0  0  0  0  0  0  0  0
   18.9215   19.7664   23.8507 C   0  0  0  0  0  0  0  0  0  0  0  0
   18.1694   20.5168   23.5737 H   0  0  0  0  0  0  0  0  0  0  0  0
   18.7032   19.4900   24.8907 H   0  0  0  0  0  0  0  0  0  0  0  0
   20.3158   20.4407   23.8077 C   0  0  0  0  0  0  0  0  0  0  0  0
   20.3710   21.1619   24.6345 H   0  0  0  0  0  0  0  0  0  0  0  0
   20.4045   21.0490   22.9001 H   0  0  0  0  0  0  0  0  0  0  0  0
   21.5013   19.4505   23.9318 C   0  0  0  0  0  0  0  0  0  0  0  0
   21.1512   18.4463   24.1975 H   0  0  0  0  0  0  0  0  0  0  0  0
   22.1292   19.7589   24.7789 H   0  0  0  0  0  0  0  0  0  0  0  0
   17.3483   18.1650   23.0201 O   0  0  0  0  0  0  0  0  0  0  0  0
   16.8699   18.9108   22.6033 H   0  0  0  0  0  0  0  0  0  0  0  0
  1  2  1  0  0  0  0
  1  3  1  0  0  0  0
  1  4  1  0  0  0  0
  4  5  1  0  0  0  0
  4  6  1  0  0  0  0
  4  7  1  0  0  0  0
  7  8  1  0  0  0  0
  7  9  1  0  0  0  0
  7 10  1  0  0  0  0
 10 11  1  0  0  0  0
 10 12  1  0  0  0  0
 10 13  1  0  0  0  0
 13 14  1  0  0  0  0
 13 15  1  0  0  0  0
 15 16  1  0  0  0  0
 15 17  1  0  0  0  0
 15 18  1  0  0  0  0
 18 19  1  0  0  0  0
 18 20  1  0  0  0  0
  1 21  1  0  0  0  0
 18 21  1  0  0  0  0
 21 22  1  0  0  0  0
 21 23  1  0  0  0  0
 13 24  1  0  0  0  0
 24 25  1  0  0  0  0
M  END
> <VConfSearch Rank>
806

> <Conf_Id>
167

> <Delta U+W>
0.388

> <U+W>
11.301

> <U>
13.202

> <W>
-1.901

> <W(PB)>
-4.065

> <W(SA)>
2.163

> <Valence>
18.957

> <Coulomb>
-8.753

> <VdW>
2.998

> <VdW6>
-12.294

> <VdW12>
15.292

> <Bond>
0.419

> <Angle>
4.543

> <Pdih>
13.996

> <Idih>
0.000

> <Tether>
0.000

$$$$
VeraChem MOL file


 25 25  0  0  0  0  0  0  0  0999 V2000     
   21.2758   20.6837   23.7636 C   0  0  0  0  0  0  0  0  0  0  0  0
   22.3469   20.6055   23.9940 H   0  0  0  0  0  0  0  0  0  0  0  0
   20.9464   21.6334   24.2069 H   0  0  0  0  0  0  0  0  0  0  0  0
   20.5215   19.5384   24.4880 C   0  0  0  0  0  0  0  0  0  0  0  0
   21.0899   18.6034   24.4292 H   0  0  0  0  0  0  0  0  0  0  0  0
   20.5130   19.7853   25.5585 H   0  0  0  0  0  0  0  0  0  0  0  0
   19.0557   19.3138   24.0342 C   0  0  0  0  0  0  0  0  0  0  0  0
   18.6269   20.2333   23.6154 H   0  0  0  0  0  0  0  0  0  0  0  0
   18.4604   19.1034   24.9332 H   0  0  0  0  0  0  0  0  0  0  0  0
   18.8492   18.1183   23.0645 C   0  0  0  0  0  0  0  0  0  0  0  0
   19.2489   17.2039   23.5221 H   0  0  0  0  0  0  0  0  0  0  0  0
   17.7678   17.9532   22.9694 H   0  0  0  0  0  0  0  0  0  0  0  0
   19.4284   18.2682   21.6357 C   0  0  0  0  0  0  0  0  0  0  0  0
   19.0532   19.2002   21.1920 H   0  0  0  0  0  0  0  0  0  0  0  0
   20.9777   18.2443   21.5748 C   0  0  0  0  0  0  0  0  0  0  0  0
   21.3818   17.7492   22.4636 H   0  0  0  0  0  0  0  0  0  0  0  0
   21.3017   17.6096   20.7393 H   0  0  0  0  0  0  0  0  0  0  0  0
   21.6474   19.6297   21.3826 C   0  0  0  0  0  0  0  0  0  0  0  0
   21.5474   19.9092   20.3248 H   0  0  0  0  0  0  0  0  0  0  0  0
   22.7263   19.5323   21.5640 H   0  0  0  0  0  0  0  0  0  0  0  0
   21.0901   20.8012   22.2299 C   0  0  0  0  0  0  0  0  0  0  0  0
   20.0374   20.9859   21.9869 H   0  0  0  0  0  0  0  0  0  0  0  0
   21.6116   21.7128   21.9077 H   0  0  0  0  0  0  0  0  0  0  0  0
   18.9358   17.1800   20.8629 O   0  0  0  0  0  0  0  0  0  0  0  0
   19.2509   17.3217   19.9458 H   0  0  0  0  0  0  0  0  0  0  0  0
  1  2  1  0  0  0  0
  1  3  1  0  0  0  0
  1  4  1  0  0  0  0
  4  5  1  0  0  0  0
  4  6  1  0  0  0  0
  4  7  1  0  0  0  0
  7  8  1  0  0  0  0
  7  9  1  0  0  0  0
  7 10  1  0  0  0  0
 10 11  1  0  0  0  0
 10 12  1  0  0  0  0
 10 13  1  0  0  0  0
 13 14  1  0  0  0  0
 13 15  1  0  0  0  0
 15 16  1  0  0  0  0
 15 17  1  0  0  0  0
 15 18  1  0  0  0  0
 18 19  1  0  0  0  0
 18 20  1  0  0  0  0
  1 21  1  0  0  0  0
 18 21  1  0  0  0  0
 21 22  1  0  0  0  0
 21 23  1  0  0  0  0
 13 24  1  0  0  0  0
 24 25  1  0  0  0  0
M  END
> <VConfSearch Rank>
807

> <Conf_Id>
60

> <Delta U+W>
-1.838

> <U+W>
9.075

> <U>
11.150

> <W>
-2.074

> <W(PB)>
-4.196

> <W(SA)>
2.121

> <Valence>
16.582

> <Coulomb>
-8.361

> <VdW>
2.928

> <VdW6>
-12.539

> <VdW12>
15.467

> <Bond>
0.441

> <Angle>
5.093

> <Pdih>
11.049

> <Idih>
0.000

> <Tether>
0.000

$$$$
VeraChem MOL file


 25 25  0  0  0  0  0  0  0  0999 V2000     
   21.7052   20.1387   21.4531 C   0  0  0  0  0  0  0  0  0  0  0  0
   21.6410   20.0875   20.3578 H   0  0  0  0  0  0  0  0  0  0  0  0
   22.6064   20.7286   21.6694 H   0  0  0  0  0  0  0  0  0  0  0  0
   21.9387   18.7151   22.0186 C   0  0  0  0  0  0  0  0  0  0  0  0
   22.8882   18.3514   21.6028 H   0  0  0  0  0  0  0  0  0  0  0  0
   22.1106   18.7586   23.1001 H   0  0  0  0  0  0  0  0  0  0  0  0
   20.8555   17.6599   21.6810 C   0  0  0  0  0  0  0  0  0  0  0  0
   21.2151   16.6879   22.0456 H   0  0  0  0  0  0  0  0  0  0  0  0
   20.7762   17.5578   20.5902 H   0  0  0  0  0  0  0  0  0  0  0  0
   19.4398   17.8952   22.2685 C   0  0  0  0  0  0  0  0  0  0  0  0
   18.8879   18.6102   21.6501 H   0  0  0  0  0  0  0  0  0  0  0  0
   18.8835   16.9547   22.1587 H   0  0  0  0  0  0  0  0  0  0  0  0
   19.4125   18.3419   23.7533 C   0  0  0  0  0  0  0  0  0  0  0  0
   20.3652   18.0861   24.2361 H   0  0  0  0  0  0  0  0  0  0  0  0
   19.1321   19.8520   23.9543 C   0  0  0  0  0  0  0  0  0  0  0  0
   18.1966   20.1167   23.4444 H   0  0  0  0  0  0  0  0  0  0  0  0
   18.9430   20.0158   25.0235 H   0  0  0  0  0  0  0  0  0  0  0  0
   20.2524   20.8371   23.5220 C   0  0  0  0  0  0  0  0  0  0  0  0
   21.1891   20.6176   24.0504 H   0  0  0  0  0  0  0  0  0  0  0  0
   19.9535   21.8350   23.8710 H   0  0  0  0  0  0  0  0  0  0  0  0
   20.4840   20.9287   21.9914 C   0  0  0  0  0  0  0  0  0  0  0  0
   20.6445   21.9845   21.7333 H   0  0  0  0  0  0  0  0  0  0  0  0
   19.5740   20.6514   21.4475 H   0  0  0  0  0  0  0  0  0  0  0  0
   18.3749   17.6272   24.4141 O   0  0  0  0  0  0  0  0  0  0  0  0
   18.5985   16.6758   24.3404 H   0  0  0  0  0  0  0  0  0  0  0  0
  1  2  1  0  0  0  0
  1  3  1  0  0  0  0
  1  4  1  0  0  0  0
  4  5  1  0  0  0  0
  4  6  1  0  0  0  0
  4  7  1  0  0  0  0
  7  8  1  0  0  0  0
  7  9  1  0  0  0  0
  7 10  1  0  0  0  0
 10 11  1  0  0  0  0
 10 12  1  0  0  0  0
 10 13  1  0  0  0  0
 13 14  1  0  0  0  0
 13 15  1  0  0  0  0
 15 16  1  0  0  0  0
 15 17  1  0  0  0  0
 15 18  1  0  0  0  0
 18 19  1  0  0  0  0
 18 20  1  0  0  0  0
  1 21  1  0  0  0  0
 18 21  1  0  0  0  0
 21 22  1  0  0  0  0
 21 23  1  0  0  0  0
 13 24  1  0  0  0  0
 24 25  1  0  0  0  0
M  END
> <VConfSearch Rank>
808

> <Conf_Id>
129

> <Delta U+W>
-1.846

> <U+W>
9.067

> <U>
11.150

> <W>
-2.083

> <W(PB)>
-4.217

> <W(SA)>
2.134

> <Valence>
16.583

> <Coulomb>
-8.361

> <VdW>
2.928

> <VdW6>
-12.539

> <VdW12>
15.467

> <Bond>
0.441

> <Angle>
5.093

> <Pdih>
11.049

> <Idih>
0.000

> <Tether>
0.000

$$$$
VeraChem MOL file


 25 25  0  0  0  0  0  0  0  0999 V2000     
   20.2180   20.7121   21.2288 C   0  0  0  0  0  0  0  0  0  0  0  0
   19.3793   21.4199   21.1825 H   0  0  0  0  0  0  0  0  0  0  0  0
   20.9042   21.0133   20.4254 H   0  0  0  0  0  0  0  0  0  0  0  0
   19.7061   19.2896   20.8901 C   0  0  0  0  0  0  0  0  0  0  0  0
   19.2994   19.3241   19.8702 H   0  0  0  0  0  0  0  0  0  0  0  0
   20.5450   18.5871   20.8284 H   0  0  0  0  0  0  0  0  0  0  0  0
   18.5929   18.7278   21.8096 C   0  0  0  0  0  0  0  0  0  0  0  0
   18.2577   17.7747   21.3780 H   0  0  0  0  0  0  0  0  0  0  0  0
   17.7208   19.3945   21.7728 H   0  0  0  0  0  0  0  0  0  0  0  0
   18.9683   18.4710   23.2923 C   0  0  0  0  0  0  0  0  0  0  0  0
   18.9124   19.4036   23.8630 H   0  0  0  0  0  0  0  0  0  0  0  0
   18.1773   17.8383   23.7173 H   0  0  0  0  0  0  0  0  0  0  0  0
   20.3428   17.7878   23.5125 C   0  0  0  0  0  0  0  0  0  0  0  0
   20.6576   17.2836   22.5892 H   0  0  0  0  0  0  0  0  0  0  0  0
   21.4650   18.7499   23.9771 C   0  0  0  0  0  0  0  0  0  0  0  0
   21.1415   19.2784   24.8833 H   0  0  0  0  0  0  0  0  0  0  0  0
   22.3249   18.1375   24.2802 H   0  0  0  0  0  0  0  0  0  0  0  0
   21.9757   19.7849   22.9384 C   0  0  0  0  0  0  0  0  0  0  0  0
   22.3466   19.2813   22.0365 H   0  0  0  0  0  0  0  0  0  0  0  0
   22.8573   20.2717   23.3776 H   0  0  0  0  0  0  0  0  0  0  0  0
   20.9595   20.8993   22.5777 C   0  0  0  0  0  0  0  0  0  0  0  0
   21.5043   21.8514   22.5165 H   0  0  0  0  0  0  0  0  0  0  0  0
   20.2441   21.0472   23.3944 H   0  0  0  0  0  0  0  0  0  0  0  0
   20.1904   16.7982   24.5224 O   0  0  0  0  0  0  0  0  0  0  0  0
   19.9144   17.2715   25.3340 H   0  0  0  0  0  0  0  0  0  0  0  0
  1  2  1  0  0  0  0
  1  3  1  0  0  0  0
  1  4  1  0  0  0  0
  4  5  1  0  0  0  0
  4  6  1  0  0  0  0
  4  7  1  0  0  0  0
  7  8  1  0  0  0  0
  7  9  1  0  0  0  0
  7 10  1  0  0  0  0
 10 11  1  0  0  0  0
 10 12  1  0  0  0  0
 10 13  1  0  0  0  0
 13 14  1  0  0  0  0
 13 15  1  0  0  0  0
 15 16  1  0  0  0  0
 15 17  1  0  0  0  0
 15 18  1  0  0  0  0
 18 19  1  0  0  0  0
 18 20  1  0  0  0  0
  1 21  1  0  0  0  0
 18 21  1  0  0  0  0
 21 22  1  0  0  0  0
 21 23  1  0  0  0  0
 13 24  1  0  0  0  0
 24 25  1  0  0  0  0
M  END
> <VConfSearch Rank>
809

> <Conf_Id>
140

> <Delta U+W>
-1.702

> <U+W>
9.211

> <U>
11.181

> <W>
-1.969

> <W(PB)>
-4.093

> <W(SA)>
2.124

> <Valence>
16.954

> <Coulomb>
-8.661

> <VdW>
2.887

> <VdW6>
-12.561

> <VdW12>
15.448

> <Bond>
0.433

> <Angle>
5.120

> <Pdih>
11.401

> <Idih>
0.000

> <Tether>
0.000

$$$$
VeraChem MOL file


 25 25  0  0  0  0  0  0  0  0999 V2000     
   21.3179   17.7325   23.6906 C   0  0  0  0  0  0  0  0  0  0  0  0
   21.3046   17.7106   24.7887 H   0  0  0  0  0  0  0  0  0  0  0  0
   21.9565   16.8922   23.3855 H   0  0  0  0  0  0  0  0  0  0  0  0
   22.0047   19.0415   23.2225 C   0  0  0  0  0  0  0  0  0  0  0  0
   21.6874   19.8873   23.8428 H   0  0  0  0  0  0  0  0  0  0  0  0
   23.0777   18.9357   23.4335 H   0  0  0  0  0  0  0  0  0  0  0  0
   21.8403   19.3777   21.7176 C   0  0  0  0  0  0  0  0  0  0  0  0
   21.6597   18.4700   21.1274 H   0  0  0  0  0  0  0  0  0  0  0  0
   22.8036   19.7655   21.3589 H   0  0  0  0  0  0  0  0  0  0  0  0
   20.7715   20.4598   21.4054 C   0  0  0  0  0  0  0  0  0  0  0  0
   21.0019   21.3690   21.9759 H   0  0  0  0  0  0  0  0  0  0  0  0
   20.8825   20.7353   20.3481 H   0  0  0  0  0  0  0  0  0  0  0  0
   19.2904   20.0674   21.6362 C   0  0  0  0  0  0  0  0  0  0  0  0
   19.0719   19.1409   21.0886 H   0  0  0  0  0  0  0  0  0  0  0  0
   18.9012   19.8971   23.1276 C   0  0  0  0  0  0  0  0  0  0  0  0
   19.5966   20.4506   23.7668 H   0  0  0  0  0  0  0  0  0  0  0  0
   17.9260   20.3709   23.3036 H   0  0  0  0  0  0  0  0  0  0  0  0
   18.7831   18.4284   23.6116 C   0  0  0  0  0  0  0  0  0  0  0  0
   17.8234   18.0323   23.2521 H   0  0  0  0  0  0  0  0  0  0  0  0
   18.7173   18.4183   24.7080 H   0  0  0  0  0  0  0  0  0  0  0  0
   19.8920   17.4471   23.1561 C   0  0  0  0  0  0  0  0  0  0  0  0
   19.9045   17.3609   22.0636 H   0  0  0  0  0  0  0  0  0  0  0  0
   19.6064   16.4466   23.5086 H   0  0  0  0  0  0  0  0  0  0  0  0
   18.4882   21.1032   21.0832 O   0  0  0  0  0  0  0  0  0  0  0  0
   18.7035   21.9168   21.5838 H   0  0  0  0  0  0  0  0  0  0  0  0
  1  2  1  0  0  0  0
  1  3  1  0  0  0  0
  1  4  1  0  0  0  0
  4  5  1  0  0  0  0
  4  6  1  0  0  0  0
  4  7  1  0  0  0  0
  7  8  1  0  0  0  0
  7  9  1  0  0  0  0
  7 10  1  0  0  0  0
 10 11  1  0  0  0  0
 10 12  1  0  0  0  0
 10 13  1  0  0  0  0
 13 14  1  0  0  0  0
 13 15  1  0  0  0  0
 15 16  1  0  0  0  0
 15 17  1  0  0  0  0
 15 18  1  0  0  0  0
 18 19  1  0  0  0  0
 18 20  1  0  0  0  0
  1 21  1  0  0  0  0
 18 21  1  0  0  0  0
 21 22  1  0  0  0  0
 21 23  1  0  0  0  0
 13 24  1  0  0  0  0
 24 25  1  0  0  0  0
M  END
> <VConfSearch Rank>
810

> <Conf_Id>
68

> <Delta U+W>
-1.765

> <U+W>
9.148

> <U>
11.181

> <W>
-2.032

> <W(PB)>
-4.147

> <W(SA)>
2.114

> <Valence>
16.955

> <Coulomb>
-8.661

> <VdW>
2.887

> <VdW6>
-12.561

> <VdW12>
15.448

> <Bond>
0.433

> <Angle>
5.121

> <Pdih>
11.402

> <Idih>
0.000

> <Tether>
0.000

$$$$
VeraChem MOL file


 25 25  0  0  0  0  0  0  0  0999 V2000     
   21.8583   20.0697   22.3461 C   0  0  0  0  0  0  0  0  0  0  0  0
   22.8021   20.5472   22.0488 H   0  0  0  0  0  0  0  0  0  0  0  0
   21.8845   20.0759   23.4416 H   0  0  0  0  0  0  0  0  0  0  0  0
   21.8651   18.6150   21.8085 C   0  0  0  0  0  0  0  0  0  0  0  0
   21.3528   18.5486   20.8402 H   0  0  0  0  0  0  0  0  0  0  0  0
   22.9093   18.3458   21.5982 H   0  0  0  0  0  0  0  0  0  0  0  0
   21.3146   17.5532   22.7965 C   0  0  0  0  0  0  0  0  0  0  0  0
   21.8750   17.6081   23.7399 H   0  0  0  0  0  0  0  0  0  0  0  0
   21.5376   16.5618   22.3791 H   0  0  0  0  0  0  0  0  0  0  0  0
   19.7935   17.6063   23.1000 C   0  0  0  0  0  0  0  0  0  0  0  0
   19.2161   17.5226   22.1715 H   0  0  0  0  0  0  0  0  0  0  0  0
   19.5535   16.6995   23.6715 H   0  0  0  0  0  0  0  0  0  0  0  0
   19.3448   18.8423   23.9222 C   0  0  0  0  0  0  0  0  0  0  0  0
   20.2167   19.2676   24.4325 H   0  0  0  0  0  0  0  0  0  0  0  0
   18.6478   19.9520   23.0972 C   0  0  0  0  0  0  0  0  0  0  0  0
   17.6171   19.6360   22.8889 H   0  0  0  0  0  0  0  0  0  0  0  0
   18.5660   20.8497   23.7237 H   0  0  0  0  0  0  0  0  0  0  0  0
   19.2952   20.3400   21.7428 C   0  0  0  0  0  0  0  0  0  0  0  0
   18.6356   21.0767   21.2643 H   0  0  0  0  0  0  0  0  0  0  0  0
   19.2955   19.4837   21.0587 H   0  0  0  0  0  0  0  0  0  0  0  0
   20.7093   20.9683   21.8194 C   0  0  0  0  0  0  0  0  0  0  0  0
   20.6677   21.8846   22.4237 H   0  0  0  0  0  0  0  0  0  0  0  0
   20.9781   21.2945   20.8053 H   0  0  0  0  0  0  0  0  0  0  0  0
   18.4283   18.4130   24.9214 O   0  0  0  0  0  0  0  0  0  0  0  0
   17.6661   18.0208   24.4481 H   0  0  0  0  0  0  0  0  0  0  0  0
  1  2  1  0  0  0  0
  1  3  1  0  0  0  0
  1  4  1  0  0  0  0
  4  5  1  0  0  0  0
  4  6  1  0  0  0  0
  4  7  1  0  0  0  0
  7  8  1  0  0  0  0
  7  9  1  0  0  0  0
  7 10  1  0  0  0  0
 10 11  1  0  0  0  0
 10 12  1  0  0  0  0
 10 13  1  0  0  0  0
 13 14  1  0  0  0  0
 13 15  1  0  0  0  0
 15 16  1  0  0  0  0
 15 17  1  0  0  0  0
 15 18  1  0  0  0  0
 18 19  1  0  0  0  0
 18 20  1  0  0  0  0
  1 21  1  0  0  0  0
 18 21  1  0  0  0  0
 21 22  1  0  0  0  0
 21 23  1  0  0  0  0
 13 24  1  0  0  0  0
 24 25  1  0  0  0  0
M  END
> <VConfSearch Rank>
811

> <Conf_Id>
165

> <Delta U+W>
-1.999

> <U+W>
8.915

> <U>
10.935

> <W>
-2.020

> <W(PB)>
-4.135

> <W(SA)>
2.115

> <Valence>
16.757

> <Coulomb>
-8.731

> <VdW>
2.908

> <VdW6>
-12.597

> <VdW12>
15.506

> <Bond>
0.434

> <Angle>
5.069

> <Pdih>
11.254

> <Idih>
0.000

> <Tether>
0.000

$$$$
VeraChem MOL file


 25 25  0  0  0  0  0  0  0  0999 V2000     
   19.0710   18.0853   23.4603 C   0  0  0  0  0  0  0  0  0  0  0  0
   18.3231   17.3875   23.8615 H   0  0  0  0  0  0  0  0  0  0  0  0
   19.4146   18.6473   24.3360 H   0  0  0  0  0  0  0  0  0  0  0  0
   18.3334   19.0172   22.4638 C   0  0  0  0  0  0  0  0  0  0  0  0
   17.6431   18.3975   21.8753 H   0  0  0  0  0  0  0  0  0  0  0  0
   17.6980   19.7124   23.0291 H   0  0  0  0  0  0  0  0  0  0  0  0
   19.2039   19.8168   21.4622 C   0  0  0  0  0  0  0  0  0  0  0  0
   18.5205   20.3394   20.7791 H   0  0  0  0  0  0  0  0  0  0  0  0
   19.7687   19.1330   20.8181 H   0  0  0  0  0  0  0  0  0  0  0  0
   20.1457   20.8834   22.0780 C   0  0  0  0  0  0  0  0  0  0  0  0
   20.6077   21.4332   21.2468 H   0  0  0  0  0  0  0  0  0  0  0  0
   19.5404   21.6165   22.6265 H   0  0  0  0  0  0  0  0  0  0  0  0
   21.2744   20.3766   23.0091 C   0  0  0  0  0  0  0  0  0  0  0  0
   20.8528   20.1402   23.9931 H   0  0  0  0  0  0  0  0  0  0  0  0
   22.0418   19.1378   22.4794 C   0  0  0  0  0  0  0  0  0  0  0  0
   21.9482   19.0570   21.3900 H   0  0  0  0  0  0  0  0  0  0  0  0
   23.1141   19.2892   22.6634 H   0  0  0  0  0  0  0  0  0  0  0  0
   21.6518   17.7982   23.1595 C   0  0  0  0  0  0  0  0  0  0  0  0
   21.7830   17.8914   24.2462 H   0  0  0  0  0  0  0  0  0  0  0  0
   22.3772   17.0377   22.8397 H   0  0  0  0  0  0  0  0  0  0  0  0
   20.2316   17.2516   22.8575 C   0  0  0  0  0  0  0  0  0  0  0  0
   20.1765   16.2450   23.2942 H   0  0  0  0  0  0  0  0  0  0  0  0
   20.0931   17.1026   21.7790 H   0  0  0  0  0  0  0  0  0  0  0  0
   22.2004   21.4444   23.1761 O   0  0  0  0  0  0  0  0  0  0  0  0
   21.6984   22.1971   23.5528 H   0  0  0  0  0  0  0  0  0  0  0  0
  1  2  1  0  0  0  0
  1  3  1  0  0  0  0
  1  4  1  0  0  0  0
  4  5  1  0  0  0  0
  4  6  1  0  0  0  0
  4  7  1  0  0  0  0
  7  8  1  0  0  0  0
  7  9  1  0  0  0  0
  7 10  1  0  0  0  0
 10 11  1  0  0  0  0
 10 12  1  0  0  0  0
 10 13  1  0  0  0  0
 13 14  1  0  0  0  0
 13 15  1  0  0  0  0
 15 16  1  0  0  0  0
 15 17  1  0  0  0  0
 15 18  1  0  0  0  0
 18 19  1  0  0  0  0
 18 20  1  0  0  0  0
  1 21  1  0  0  0  0
 18 21  1  0  0  0  0
 21 22  1  0  0  0  0
 21 23  1  0  0  0  0
 13 24  1  0  0  0  0
 24 25  1  0  0  0  0
M  END
> <VConfSearch Rank>
812

> <Conf_Id>
133

> <Delta U+W>
-2.139

> <U+W>
8.774

> <U>
10.905

> <W>
-2.131

> <W(PB)>
-4.281

> <W(SA)>
2.150

> <Valence>
16.378

> <Coulomb>
-8.448

> <VdW>
2.976

> <VdW6>
-12.570

> <VdW12>
15.545

> <Bond>
0.439

> <Angle>
5.049

> <Pdih>
10.889

> <Idih>
0.000

> <Tether>
0.000

$$$$
VeraChem MOL file


 25 25  0  0  0  0  0  0  0  0999 V2000     
   20.3426   19.7182   20.8899 C   0  0  0  0  0  0  0  0  0  0  0  0
   20.2948   20.0468   19.8426 H   0  0  0  0  0  0  0  0  0  0  0  0
   21.2183   19.0605   20.9278 H   0  0  0  0  0  0  0  0  0  0  0  0
   19.0488   18.9225   21.2037 C   0  0  0  0  0  0  0  0  0  0  0  0
   18.2866   19.5695   21.6565 H   0  0  0  0  0  0  0  0  0  0  0  0
   18.6182   18.6015   20.2453 H   0  0  0  0  0  0  0  0  0  0  0  0
   19.2611   17.6432   22.0553 C   0  0  0  0  0  0  0  0  0  0  0  0
   19.9904   16.9903   21.5565 H   0  0  0  0  0  0  0  0  0  0  0  0
   18.3165   17.0824   22.0563 H   0  0  0  0  0  0  0  0  0  0  0  0
   19.6871   17.8526   23.5329 C   0  0  0  0  0  0  0  0  0  0  0  0
   18.9551   18.4768   24.0589 H   0  0  0  0  0  0  0  0  0  0  0  0
   19.6310   16.8716   24.0238 H   0  0  0  0  0  0  0  0  0  0  0  0
   21.1221   18.4106   23.7169 C   0  0  0  0  0  0  0  0  0  0  0  0
   21.6940   18.2314   22.7990 H   0  0  0  0  0  0  0  0  0  0  0  0
   21.1883   19.9157   24.0745 C   0  0  0  0  0  0  0  0  0  0  0  0
   20.9294   20.0278   25.1361 H   0  0  0  0  0  0  0  0  0  0  0  0
   22.2281   20.2540   23.9792 H   0  0  0  0  0  0  0  0  0  0  0  0
   20.2738   20.8752   23.2701 C   0  0  0  0  0  0  0  0  0  0  0  0
   20.3929   21.8785   23.7013 H   0  0  0  0  0  0  0  0  0  0  0  0
   19.2191   20.6272   23.4349 H   0  0  0  0  0  0  0  0  0  0  0  0
   20.5701   20.9864   21.7534 C   0  0  0  0  0  0  0  0  0  0  0  0
   21.6013   21.3360   21.6089 H   0  0  0  0  0  0  0  0  0  0  0  0
   19.9287   21.7830   21.3523 H   0  0  0  0  0  0  0  0  0  0  0  0
   21.7538   17.6940   24.7718 O   0  0  0  0  0  0  0  0  0  0  0  0
   22.6703   18.0352   24.8355 H   0  0  0  0  0  0  0  0  0  0  0  0
  1  2  1  0  0  0  0
  1  3  1  0  0  0  0
  1  4  1  0  0  0  0
  4  5  1  0  0  0  0
  4  6  1  0  0  0  0
  4  7  1  0  0  0  0
  7  8  1  0  0  0  0
  7  9  1  0  0  0  0
  7 10  1  0  0  0  0
 10 11  1  0  0  0  0
 10 12  1  0  0  0  0
 10 13  1  0  0  0  0
 13 14  1  0  0  0  0
 13 15  1  0  0  0  0
 15 16  1  0  0  0  0
 15 17  1  0  0  0  0
 15 18  1  0  0  0  0
 18 19  1  0  0  0  0
 18 20  1  0  0  0  0
  1 21  1  0  0  0  0
 18 21  1  0  0  0  0
 21 22  1  0  0  0  0
 21 23  1  0  0  0  0
 13 24  1  0  0  0  0
 24 25  1  0  0  0  0
M  END
> <VConfSearch Rank>
813

> <Conf_Id>
95

> <Delta U+W>
-2.190

> <U+W>
8.723

> <U>
10.905

> <W>
-2.182

> <W(PB)>
-4.296

> <W(SA)>
2.114

> <Valence>
16.377

> <Coulomb>
-8.448

> <VdW>
2.976

> <VdW6>
-12.570

> <VdW12>
15.546

> <Bond>
0.439

> <Angle>
5.049

> <Pdih>
10.889

> <Idih>
0.000

> <Tether>
0.000

$$$$
VeraChem MOL file


 25 25  0  0  0  0  0  0  0  0999 V2000     
   20.5390   18.5580   24.3618 C   0  0  0  0  0  0  0  0  0  0  0  0
   20.7450   18.0944   25.3363 H   0  0  0  0  0  0  0  0  0  0  0  0
   19.7163   19.2472   24.5775 H   0  0  0  0  0  0  0  0  0  0  0  0
   20.0765   17.4202   23.4050 C   0  0  0  0  0  0  0  0  0  0  0  0
   20.6381   16.5157   23.6759 H   0  0  0  0  0  0  0  0  0  0  0  0
   19.0244   17.1840   23.6144 H   0  0  0  0  0  0  0  0  0  0  0  0
   20.2615   17.6253   21.8785 C   0  0  0  0  0  0  0  0  0  0  0  0
   19.9936   16.6829   21.3816 H   0  0  0  0  0  0  0  0  0  0  0  0
   21.3271   17.7380   21.6555 H   0  0  0  0  0  0  0  0  0  0  0  0
   19.4301   18.7545   21.2001 C   0  0  0  0  0  0  0  0  0  0  0  0
   19.9095   19.0264   20.2506 H   0  0  0  0  0  0  0  0  0  0  0  0
   18.4593   18.3195   20.9286 H   0  0  0  0  0  0  0  0  0  0  0  0
   19.1450   20.0439   22.0110 C   0  0  0  0  0  0  0  0  0  0  0  0
   18.6265   19.7578   22.9319 H   0  0  0  0  0  0  0  0  0  0  0  0
   20.3667   20.9420   22.3595 C   0  0  0  0  0  0  0  0  0  0  0  0
   20.5429   21.6169   21.5110 H   0  0  0  0  0  0  0  0  0  0  0  0
   20.0888   21.5909   23.1997 H   0  0  0  0  0  0  0  0  0  0  0  0
   21.7228   20.2566   22.6791 C   0  0  0  0  0  0  0  0  0  0  0  0
   22.4763   21.0482   22.7910 H   0  0  0  0  0  0  0  0  0  0  0  0
   22.0638   19.7017   21.7994 H   0  0  0  0  0  0  0  0  0  0  0  0
   21.7975   19.3699   23.9565 C   0  0  0  0  0  0  0  0  0  0  0  0
   22.0382   20.0300   24.8011 H   0  0  0  0  0  0  0  0  0  0  0  0
   22.6535   18.6877   23.8657 H   0  0  0  0  0  0  0  0  0  0  0  0
   18.2426   20.8357   21.2471 O   0  0  0  0  0  0  0  0  0  0  0  0
   17.4482   20.2847   21.0874 H   0  0  0  0  0  0  0  0  0  0  0  0
  1  2  1  0  0  0  0
  1  3  1  0  0  0  0
  1  4  1  0  0  0  0
  4  5  1  0  0  0  0
  4  6  1  0  0  0  0
  4  7  1  0  0  0  0
  7  8  1  0  0  0  0
  7  9  1  0  0  0  0
  7 10  1  0  0  0  0
 10 11  1  0  0  0  0
 10 12  1  0  0  0  0
 10 13  1  0  0  0  0
 13 14  1  0  0  0  0
 13 15  1  0  0  0  0
 15 16  1  0  0  0  0
 15 17  1  0  0  0  0
 15 18  1  0  0  0  0
 18 19  1  0  0  0  0
 18 20  1  0  0  0  0
  1 21  1  0  0  0  0
 18 21  1  0  0  0  0
 21 22  1  0  0  0  0
 21 23  1  0  0  0  0
 13 24  1  0  0  0  0
 24 25  1  0  0  0  0
M  END
> <VConfSearch Rank>
814

> <Conf_Id>
161

> <Delta U+W>
2.120

> <U+W>
13.033

> <U>
15.076

> <W>
-2.043

> <W(PB)>
-4.186

> <W(SA)>
2.143

> <Valence>
18.884

> <Coulomb>
-8.074

> <VdW>
4.266

> <VdW6>
-13.486

> <VdW12>
17.752

> <Bond>
0.713

> <Angle>
8.955

> <Pdih>
9.215

> <Idih>
0.000

> <Tether>
0.000

$$$$
VeraChem MOL file


 25 25  0  0  0  0  0  0  0  0999 V2000     
   19.6205   17.9225   23.9732 C   0  0  0  0  0  0  0  0  0  0  0  0
   19.0823   17.1312   24.5126 H   0  0  0  0  0  0  0  0  0  0  0  0
   20.1362   18.4933   24.7558 H   0  0  0  0  0  0  0  0  0  0  0  0
   18.5722   18.8195   23.2687 C   0  0  0  0  0  0  0  0  0  0  0  0
   18.3083   18.4115   22.2838 H   0  0  0  0  0  0  0  0  0  0  0  0
   17.6508   18.7596   23.8641 H   0  0  0  0  0  0  0  0  0  0  0  0
   18.9478   20.3244   23.1717 C   0  0  0  0  0  0  0  0  0  0  0  0
   19.4720   20.6613   24.0761 H   0  0  0  0  0  0  0  0  0  0  0  0
   18.0038   20.8865   23.1573 H   0  0  0  0  0  0  0  0  0  0  0  0
   19.7313   20.7309   21.8968 C   0  0  0  0  0  0  0  0  0  0  0  0
   19.3987   20.1238   21.0461 H   0  0  0  0  0  0  0  0  0  0  0  0
   19.4418   21.7588   21.6411 H   0  0  0  0  0  0  0  0  0  0  0  0
   21.2768   20.7248   22.0116 C   0  0  0  0  0  0  0  0  0  0  0  0
   21.5700   21.5589   22.6650 H   0  0  0  0  0  0  0  0  0  0  0  0
   21.9193   19.4401   22.5841 C   0  0  0  0  0  0  0  0  0  0  0  0
   23.0003   19.4824   22.3952 H   0  0  0  0  0  0  0  0  0  0  0  0
   21.8325   19.4550   23.6759 H   0  0  0  0  0  0  0  0  0  0  0  0
   21.3608   18.1141   22.0018 C   0  0  0  0  0  0  0  0  0  0  0  0
   22.1922   17.5396   21.5710 H   0  0  0  0  0  0  0  0  0  0  0  0
   20.6839   18.3034   21.1610 H   0  0  0  0  0  0  0  0  0  0  0  0
   20.6454   17.2207   23.0432 C   0  0  0  0  0  0  0  0  0  0  0  0
   21.4040   16.7372   23.6738 H   0  0  0  0  0  0  0  0  0  0  0  0
   20.1391   16.4061   22.5077 H   0  0  0  0  0  0  0  0  0  0  0  0
   21.8134   20.9487   20.7153 O   0  0  0  0  0  0  0  0  0  0  0  0
   21.6494   20.1258   20.2116 H   0  0  0  0  0  0  0  0  0  0  0  0
  1  2  1  0  0  0  0
  1  3  1  0  0  0  0
  1  4  1  0  0  0  0
  4  5  1  0  0  0  0
  4  6  1  0  0  0  0
  4  7  1  0  0  0  0
  7  8  1  0  0  0  0
  7  9  1  0  0  0  0
  7 10  1  0  0  0  0
 10 11  1  0  0  0  0
 10 12  1  0  0  0  0
 10 13  1  0  0  0  0
 13 14  1  0  0  0  0
 13 15  1  0  0  0  0
 15 16  1  0  0  0  0
 15 17  1  0  0  0  0
 15 18  1  0  0  0  0
 18 19  1  0  0  0  0
 18 20  1  0  0  0  0
  1 21  1  0  0  0  0
 18 21  1  0  0  0  0
 21 22  1  0  0  0  0
 21 23  1  0  0  0  0
 13 24  1  0  0  0  0
 24 25  1  0  0  0  0
M  END
> <VConfSearch Rank>
815

> <Conf_Id>
164

> <Delta U+W>
0.008

> <U+W>
10.922

> <U>
12.433

> <W>
-1.511

> <W(PB)>
-3.669

> <W(SA)>
2.157

> <Valence>
19.007

> <Coulomb>
-9.373

> <VdW>
2.799

> <VdW6>
-12.597

> <VdW12>
15.396

> <Bond>
0.425

> <Angle>
4.784

> <Pdih>
13.799

> <Idih>
0.000

> <Tether>
0.000

$$$$
VeraChem MOL file


 25 25  0  0  0  0  0  0  0  0999 V2000     
   21.1457   18.4206   24.0465 C   0  0  0  0  0  0  0  0  0  0  0  0
   21.9213   18.5292   23.2799 H   0  0  0  0  0  0  0  0  0  0  0  0
   21.6584   17.9428   24.8923 H   0  0  0  0  0  0  0  0  0  0  0  0
   20.0435   17.4440   23.5658 C   0  0  0  0  0  0  0  0  0  0  0  0
   20.5237   16.4748   23.3739 H   0  0  0  0  0  0  0  0  0  0  0  0
   19.3336   17.2665   24.3851 H   0  0  0  0  0  0  0  0  0  0  0  0
   19.2532   17.8413   22.2929 C   0  0  0  0  0  0  0  0  0  0  0  0
   18.4392   18.5306   22.5445 H   0  0  0  0  0  0  0  0  0  0  0  0
   18.7452   16.9367   21.9316 H   0  0  0  0  0  0  0  0  0  0  0  0
   20.1105   18.4121   21.1318 C   0  0  0  0  0  0  0  0  0  0  0  0
   21.1481   18.0640   21.2020 H   0  0  0  0  0  0  0  0  0  0  0  0
   19.7228   17.9825   20.1984 H   0  0  0  0  0  0  0  0  0  0  0  0
   20.0559   19.9528   20.9775 C   0  0  0  0  0  0  0  0  0  0  0  0
   19.0003   20.2537   20.9168 H   0  0  0  0  0  0  0  0  0  0  0  0
   20.7314   20.7852   22.0961 C   0  0  0  0  0  0  0  0  0  0  0  0
   21.7895   20.5151   22.1980 H   0  0  0  0  0  0  0  0  0  0  0  0
   20.7298   21.8316   21.7624 H   0  0  0  0  0  0  0  0  0  0  0  0
   20.0113   20.7386   23.4702 C   0  0  0  0  0  0  0  0  0  0  0  0
   18.9518   20.4899   23.3407 H   0  0  0  0  0  0  0  0  0  0  0  0
   20.0057   21.7542   23.8891 H   0  0  0  0  0  0  0  0  0  0  0  0
   20.6629   19.8116   24.5279 C   0  0  0  0  0  0  0  0  0  0  0  0
   19.9660   19.6833   25.3671 H   0  0  0  0  0  0  0  0  0  0  0  0
   21.5341   20.3365   24.9431 H   0  0  0  0  0  0  0  0  0  0  0  0
   20.6902   20.2855   19.7503 O   0  0  0  0  0  0  0  0  0  0  0  0
   21.6244   20.0055   19.8374 H   0  0  0  0  0  0  0  0  0  0  0  0
  1  2  1  0  0  0  0
  1  3  1  0  0  0  0
  1  4  1  0  0  0  0
  4  5  1  0  0  0  0
  4  6  1  0  0  0  0
  4  7  1  0  0  0  0
  7  8  1  0  0  0  0
  7  9  1  0  0  0  0
  7 10  1  0  0  0  0
 10 11  1  0  0  0  0
 10 12  1  0  0  0  0
 10 13  1  0  0  0  0
 13 14  1  0  0  0  0
 13 15  1  0  0  0  0
 15 16  1  0  0  0  0
 15 17  1  0  0  0  0
 15 18  1  0  0  0  0
 18 19  1  0  0  0  0
 18 20  1  0  0  0  0
  1 21  1  0  0  0  0
 18 21  1  0  0  0  0
 21 22  1  0  0  0  0
 21 23  1  0  0  0  0
 13 24  1  0  0  0  0
 24 25  1  0  0  0  0
M  END
> <VConfSearch Rank>
816

> <Conf_Id>
15

> <Delta U+W>
-1.271

> <U+W>
9.643

> <U>
11.413

> <W>
-1.770

> <W(PB)>
-3.908

> <W(SA)>
2.138

> <Valence>
17.496

> <Coulomb>
-8.736

> <VdW>
2.653

> <VdW6>
-12.485

> <VdW12>
15.138

> <Bond>
0.414

> <Angle>
5.295

> <Pdih>
11.787

> <Idih>
0.000

> <Tether>
0.000

$$$$
VeraChem MOL file


 25 25  0  0  0  0  0  0  0  0999 V2000     
   22.1572   18.9552   22.0947 C   0  0  0  0  0  0  0  0  0  0  0  0
   23.1421   18.8971   21.6114 H   0  0  0  0  0  0  0  0  0  0  0  0
   22.1188   18.0812   22.7572 H   0  0  0  0  0  0  0  0  0  0  0  0
   22.1343   20.2686   22.9200 C   0  0  0  0  0  0  0  0  0  0  0  0
   22.8596   20.1692   23.7391 H   0  0  0  0  0  0  0  0  0  0  0  0
   22.5049   21.0898   22.2914 H   0  0  0  0  0  0  0  0  0  0  0  0
   20.7695   20.6910   23.5151 C   0  0  0  0  0  0  0  0  0  0  0  0
   20.1549   21.1513   22.7327 H   0  0  0  0  0  0  0  0  0  0  0  0
   20.9485   21.4959   24.2409 H   0  0  0  0  0  0  0  0  0  0  0  0
   20.0039   19.5428   24.2230 C   0  0  0  0  0  0  0  0  0  0  0  0
   20.6363   18.6536   24.3216 H   0  0  0  0  0  0  0  0  0  0  0  0
   19.7901   19.8526   25.2542 H   0  0  0  0  0  0  0  0  0  0  0  0
   18.6584   19.1659   23.5612 C   0  0  0  0  0  0  0  0  0  0  0  0
   17.9391   19.9645   23.7926 H   0  0  0  0  0  0  0  0  0  0  0  0
   18.6682   18.9933   22.0203 C   0  0  0  0  0  0  0  0  0  0  0  0
   17.6961   18.5662   21.7395 H   0  0  0  0  0  0  0  0  0  0  0  0
   18.6862   19.9755   21.5329 H   0  0  0  0  0  0  0  0  0  0  0  0
   19.7795   18.0907   21.4206 C   0  0  0  0  0  0  0  0  0  0  0  0
   19.3612   17.6351   20.5126 H   0  0  0  0  0  0  0  0  0  0  0  0
   20.0090   17.2487   22.0863 H   0  0  0  0  0  0  0  0  0  0  0  0
   21.0761   18.8320   20.9926 C   0  0  0  0  0  0  0  0  0  0  0  0
   20.8473   19.8145   20.5585 H   0  0  0  0  0  0  0  0  0  0  0  0
   21.5203   18.2490   20.1741 H   0  0  0  0  0  0  0  0  0  0  0  0
   18.1997   17.9557   24.1471 O   0  0  0  0  0  0  0  0  0  0  0  0
   18.8134   17.2592   23.8382 H   0  0  0  0  0  0  0  0  0  0  0  0
  1  2  1  0  0  0  0
  1  3  1  0  0  0  0
  1  4  1  0  0  0  0
  4  5  1  0  0  0  0
  4  6  1  0  0  0  0
  4  7  1  0  0  0  0
  7  8  1  0  0  0  0
  7  9  1  0  0  0  0
  7 10  1  0  0  0  0
 10 11  1  0  0  0  0
 10 12  1  0  0  0  0
 10 13  1  0  0  0  0
 13 14  1  0  0  0  0
 13 15  1  0  0  0  0
 15 16  1  0  0  0  0
 15 17  1  0  0  0  0
 15 18  1  0  0  0  0
 18 19  1  0  0  0  0
 18 20  1  0  0  0  0
  1 21  1  0  0  0  0
 18 21  1  0  0  0  0
 21 22  1  0  0  0  0
 21 23  1  0  0  0  0
 13 24  1  0  0  0  0
 24 25  1  0  0  0  0
M  END
> <VConfSearch Rank>
817

> <Conf_Id>
115

> <Delta U+W>
0.038

> <U+W>
10.952

> <U>
12.526

> <W>
-1.575

> <W(PB)>
-3.698

> <W(SA)>
2.123

> <Valence>
19.016

> <Coulomb>
-9.226

> <VdW>
2.737

> <VdW6>
-12.612

> <VdW12>
15.349

> <Bond>
0.421

> <Angle>
4.883

> <Pdih>
13.711

> <Idih>
0.000

> <Tether>
0.000

$$$$
VeraChem MOL file


 25 25  0  0  0  0  0  0  0  0999 V2000     
   18.8565   18.8421   21.1632 C   0  0  0  0  0  0  0  0  0  0  0  0
   18.5279   18.5031   20.1713 H   0  0  0  0  0  0  0  0  0  0  0  0
   17.9419   18.9149   21.7671 H   0  0  0  0  0  0  0  0  0  0  0  0
   19.4883   20.2424   20.9854 C   0  0  0  0  0  0  0  0  0  0  0  0
   20.3312   20.1894   20.2830 H   0  0  0  0  0  0  0  0  0  0  0  0
   18.7387   20.8814   20.4989 H   0  0  0  0  0  0  0  0  0  0  0  0
   19.9275   20.9367   22.2953 C   0  0  0  0  0  0  0  0  0  0  0  0
   19.1730   20.7852   23.0787 H   0  0  0  0  0  0  0  0  0  0  0  0
   19.9377   22.0190   22.1061 H   0  0  0  0  0  0  0  0  0  0  0  0
   21.3446   20.5362   22.7867 C   0  0  0  0  0  0  0  0  0  0  0  0
   21.9028   20.0064   22.0047 H   0  0  0  0  0  0  0  0  0  0  0  0
   21.9032   21.4647   22.9664 H   0  0  0  0  0  0  0  0  0  0  0  0
   21.3584   19.7137   24.0948 C   0  0  0  0  0  0  0  0  0  0  0  0
   20.5518   20.0731   24.7496 H   0  0  0  0  0  0  0  0  0  0  0  0
   21.2042   18.1891   23.8990 C   0  0  0  0  0  0  0  0  0  0  0  0
   22.0375   17.8027   23.2973 H   0  0  0  0  0  0  0  0  0  0  0  0
   21.3038   17.7170   24.8852 H   0  0  0  0  0  0  0  0  0  0  0  0
   19.8542   17.7301   23.2961 C   0  0  0  0  0  0  0  0  0  0  0  0
   19.0247   18.2973   23.7391 H   0  0  0  0  0  0  0  0  0  0  0  0
   19.6939   16.6890   23.6087 H   0  0  0  0  0  0  0  0  0  0  0  0
   19.7980   17.7622   21.7463 C   0  0  0  0  0  0  0  0  0  0  0  0
   19.4217   16.7859   21.4112 H   0  0  0  0  0  0  0  0  0  0  0  0
   20.8013   17.8519   21.3091 H   0  0  0  0  0  0  0  0  0  0  0  0
   22.6053   19.9373   24.7422 O   0  0  0  0  0  0  0  0  0  0  0  0
   22.5738   19.4520   25.5929 H   0  0  0  0  0  0  0  0  0  0  0  0
  1  2  1  0  0  0  0
  1  3  1  0  0  0  0
  1  4  1  0  0  0  0
  4  5  1  0  0  0  0
  4  6  1  0  0  0  0
  4  7  1  0  0  0  0
  7  8  1  0  0  0  0
  7  9  1  0  0  0  0
  7 10  1  0  0  0  0
 10 11  1  0  0  0  0
 10 12  1  0  0  0  0
 10 13  1  0  0  0  0
 13 14  1  0  0  0  0
 13 15  1  0  0  0  0
 15 16  1  0  0  0  0
 15 17  1  0  0  0  0
 15 18  1  0  0  0  0
 18 19  1  0  0  0  0
 18 20  1  0  0  0  0
  1 21  1  0  0  0  0
 18 21  1  0  0  0  0
 21 22  1  0  0  0  0
 21 23  1  0  0  0  0
 13 24  1  0  0  0  0
 24 25  1  0  0  0  0
M  END
> <VConfSearch Rank>
818

> <Conf_Id>
30

> <Delta U+W>
0.000

> <U+W>
10.913

> <U>
13.140

> <W>
-2.227

> <W(PB)>
-4.367

> <W(SA)>
2.140

> <Valence>
19.155

> <Coulomb>
-8.157

> <VdW>
2.142

> <VdW6>
-11.576

> <VdW12>
13.718

> <Bond>
0.294

> <Angle>
3.547

> <Pdih>
15.314

> <Idih>
0.000

> <Tether>
0.000

$$$$
VeraChem MOL file


 25 25  0  0  0  0  0  0  0  0999 V2000     
   18.7805   17.8511   22.0820 C   0  0  0  0  0  0  0  0  0  0  0  0
   17.8257   17.5536   22.5365 H   0  0  0  0  0  0  0  0  0  0  0  0
   18.9028   17.2071   21.2004 H   0  0  0  0  0  0  0  0  0  0  0  0
   19.9206   17.5293   23.0793 C   0  0  0  0  0  0  0  0  0  0  0  0
   19.7303   16.5327   23.5006 H   0  0  0  0  0  0  0  0  0  0  0  0
   20.8666   17.4238   22.5357 H   0  0  0  0  0  0  0  0  0  0  0  0
   20.0566   18.5414   24.2451 C   0  0  0  0  0  0  0  0  0  0  0  0
   19.9935   17.9949   25.1959 H   0  0  0  0  0  0  0  0  0  0  0  0
   19.2084   19.2355   24.2646 H   0  0  0  0  0  0  0  0  0  0  0  0
   21.3848   19.3398   24.2374 C   0  0  0  0  0  0  0  0  0  0  0  0
   21.3068   20.1496   24.9748 H   0  0  0  0  0  0  0  0  0  0  0  0
   22.1874   18.6821   24.5959 H   0  0  0  0  0  0  0  0  0  0  0  0
   21.8361   19.9344   22.8798 C   0  0  0  0  0  0  0  0  0  0  0  0
   22.1630   19.1202   22.2193 H   0  0  0  0  0  0  0  0  0  0  0  0
   20.7641   20.7715   22.1399 C   0  0  0  0  0  0  0  0  0  0  0  0
   20.1030   21.2682   22.8615 H   0  0  0  0  0  0  0  0  0  0  0  0
   21.2743   21.5847   21.6065 H   0  0  0  0  0  0  0  0  0  0  0  0
   19.9390   19.9897   21.0789 C   0  0  0  0  0  0  0  0  0  0  0  0
   20.5638   19.2580   20.5491 H   0  0  0  0  0  0  0  0  0  0  0  0
   19.6310   20.7170   20.3152 H   0  0  0  0  0  0  0  0  0  0  0  0
   18.6462   19.3242   21.6125 C   0  0  0  0  0  0  0  0  0  0  0  0
   17.9028   19.3350   20.8036 H   0  0  0  0  0  0  0  0  0  0  0  0
   18.2054   19.9431   22.4043 H   0  0  0  0  0  0  0  0  0  0  0  0
   22.9581   20.7698   23.1394 O   0  0  0  0  0  0  0  0  0  0  0  0
   23.2875   21.0785   22.2696 H   0  0  0  0  0  0  0  0  0  0  0  0
  1  2  1  0  0  0  0
  1  3  1  0  0  0  0
  1  4  1  0  0  0  0
  4  5  1  0  0  0  0
  4  6  1  0  0  0  0
  4  7  1  0  0  0  0
  7  8  1  0  0  0  0
  7  9  1  0  0  0  0
  7 10  1  0  0  0  0
 10 11  1  0  0  0  0
 10 12  1  0  0  0  0
 10 13  1  0  0  0  0
 13 14  1  0  0  0  0
 13 15  1  0  0  0  0
 15 16  1  0  0  0  0
 15 17  1  0  0  0  0
 15 18  1  0  0  0  0
 18 19  1  0  0  0  0
 18 20  1  0  0  0  0
  1 21  1  0  0  0  0
 18 21  1  0  0  0  0
 21 22  1  0  0  0  0
 21 23  1  0  0  0  0
 13 24  1  0  0  0  0
 24 25  1  0  0  0  0
M  END
> <VConfSearch Rank>
819

> <Conf_Id>
162

> <Delta U+W>
0.219

> <U+W>
11.132

> <U>
13.296

> <W>
-2.164

> <W(PB)>
-4.311

> <W(SA)>
2.148

> <Valence>
18.607

> <Coulomb>
-8.339

> <VdW>
3.028

> <VdW6>
-12.271

> <VdW12>
15.299

> <Bond>
0.423

> <Angle>
4.488

> <Pdih>
13.696

> <Idih>
0.000

> <Tether>
0.000

$$$$
VeraChem MOL file


 25 25  0  0  0  0  0  0  0  0999 V2000     
   21.7393   17.9695   21.9714 C   0  0  0  0  0  0  0  0  0  0  0  0
   21.1443   17.1528   22.3995 H   0  0  0  0  0  0  0  0  0  0  0  0
   22.5791   17.4701   21.4690 H   0  0  0  0  0  0  0  0  0  0  0  0
   20.9139   18.7165   20.8942 C   0  0  0  0  0  0  0  0  0  0  0  0
   21.3259   19.7183   20.7127 H   0  0  0  0  0  0  0  0  0  0  0  0
   21.0524   18.1701   19.9512 H   0  0  0  0  0  0  0  0  0  0  0  0
   19.3834   18.7781   21.1580 C   0  0  0  0  0  0  0  0  0  0  0  0
   19.0213   17.8464   21.6127 H   0  0  0  0  0  0  0  0  0  0  0  0
   18.8942   18.8310   20.1757 H   0  0  0  0  0  0  0  0  0  0  0  0
   18.9006   20.0105   21.9663 C   0  0  0  0  0  0  0  0  0  0  0  0
   19.5226   20.8819   21.7274 H   0  0  0  0  0  0  0  0  0  0  0  0
   17.8965   20.2736   21.6086 H   0  0  0  0  0  0  0  0  0  0  0  0
   18.7879   19.8259   23.5007 C   0  0  0  0  0  0  0  0  0  0  0  0
   17.9372   19.1577   23.6977 H   0  0  0  0  0  0  0  0  0  0  0  0
   20.0223   19.2202   24.2103 C   0  0  0  0  0  0  0  0  0  0  0  0
   19.8963   19.3404   25.2941 H   0  0  0  0  0  0  0  0  0  0  0  0
   20.0252   18.1360   24.0550 H   0  0  0  0  0  0  0  0  0  0  0  0
   21.3814   19.8425   23.7944 C   0  0  0  0  0  0  0  0  0  0  0  0
   21.8808   20.2320   24.6917 H   0  0  0  0  0  0  0  0  0  0  0  0
   21.2307   20.7208   23.1557 H   0  0  0  0  0  0  0  0  0  0  0  0
   22.3441   18.8527   23.0949 C   0  0  0  0  0  0  0  0  0  0  0  0
   22.7793   18.1887   23.8541 H   0  0  0  0  0  0  0  0  0  0  0  0
   23.1853   19.4258   22.6819 H   0  0  0  0  0  0  0  0  0  0  0  0
   18.5162   21.0999   24.0729 O   0  0  0  0  0  0  0  0  0  0  0  0
   18.4507   20.9658   25.0408 H   0  0  0  0  0  0  0  0  0  0  0  0
  1  2  1  0  0  0  0
  1  3  1  0  0  0  0
  1  4  1  0  0  0  0
  4  5  1  0  0  0  0
  4  6  1  0  0  0  0
  4  7  1  0  0  0  0
  7  8  1  0  0  0  0
  7  9  1  0  0  0  0
  7 10  1  0  0  0  0
 10 11  1  0  0  0  0
 10 12  1  0  0  0  0
 10 13  1  0  0  0  0
 13 14  1  0  0  0  0
 13 15  1  0  0  0  0
 15 16  1  0  0  0  0
 15 17  1  0  0  0  0
 15 18  1  0  0  0  0
 18 19  1  0  0  0  0
 18 20  1  0  0  0  0
  1 21  1  0  0  0  0
 18 21  1  0  0  0  0
 21 22  1  0  0  0  0
 21 23  1  0  0  0  0
 13 24  1  0  0  0  0
 24 25  1  0  0  0  0
M  END
> <VConfSearch Rank>
820

> <Conf_Id>
155

> <Delta U+W>
0.339

> <U+W>
11.252

> <U>
13.420

> <W>
-2.167

> <W(PB)>
-4.325

> <W(SA)>
2.157

> <Valence>
18.609

> <Coulomb>
-8.052

> <VdW>
2.863

> <VdW6>
-12.524

> <VdW12>
15.387

> <Bond>
0.430

> <Angle>
4.724

> <Pdih>
13.455

> <Idih>
0.000

> <Tether>
0.000

$$$$
VeraChem MOL file


 25 25  0  0  0  0  0  0  0  0999 V2000     
   19.9786   19.9359   24.5132 C   0  0  0  0  0  0  0  0  0  0  0  0
   20.6876   19.6033   25.2832 H   0  0  0  0  0  0  0  0  0  0  0  0
   19.2721   20.5976   25.0326 H   0  0  0  0  0  0  0  0  0  0  0  0
   20.7279   20.8062   23.4702 C   0  0  0  0  0  0  0  0  0  0  0  0
   20.0041   21.2338   22.7692 H   0  0  0  0  0  0  0  0  0  0  0  0
   21.1262   21.6847   23.9958 H   0  0  0  0  0  0  0  0  0  0  0  0
   21.9169   20.1520   22.7076 C   0  0  0  0  0  0  0  0  0  0  0  0
   22.8153   20.2804   23.3265 H   0  0  0  0  0  0  0  0  0  0  0  0
   22.1087   20.7236   21.7893 H   0  0  0  0  0  0  0  0  0  0  0  0
   21.8203   18.6424   22.3558 C   0  0  0  0  0  0  0  0  0  0  0  0
   22.7956   18.3358   21.9557 H   0  0  0  0  0  0  0  0  0  0  0  0
   21.7377   18.0628   23.2794 H   0  0  0  0  0  0  0  0  0  0  0  0
   20.7275   18.1979   21.3397 C   0  0  0  0  0  0  0  0  0  0  0  0
   20.5171   17.1337   21.5184 H   0  0  0  0  0  0  0  0  0  0  0  0
   19.3781   18.9590   21.3547 C   0  0  0  0  0  0  0  0  0  0  0  0
   19.5587   20.0111   21.1162 H   0  0  0  0  0  0  0  0  0  0  0  0
   18.7865   18.5983   20.5030 H   0  0  0  0  0  0  0  0  0  0  0  0
   18.4795   18.8239   22.6206 C   0  0  0  0  0  0  0  0  0  0  0  0
   17.8641   17.9230   22.4924 H   0  0  0  0  0  0  0  0  0  0  0  0
   17.7699   19.6620   22.6434 H   0  0  0  0  0  0  0  0  0  0  0  0
   19.1731   18.7050   24.0032 C   0  0  0  0  0  0  0  0  0  0  0  0
   19.7892   17.8006   24.0240 H   0  0  0  0  0  0  0  0  0  0  0  0
   18.3926   18.5000   24.7486 H   0  0  0  0  0  0  0  0  0  0  0  0
   21.2672   18.3381   20.0300 O   0  0  0  0  0  0  0  0  0  0  0  0
   22.0941   17.8137   20.0070 H   0  0  0  0  0  0  0  0  0  0  0  0
  1  2  1  0  0  0  0
  1  3  1  0  0  0  0
  1  4  1  0  0  0  0
  4  5  1  0  0  0  0
  4  6  1  0  0  0  0
  4  7  1  0  0  0  0
  7  8  1  0  0  0  0
  7  9  1  0  0  0  0
  7 10  1  0  0  0  0
 10 11  1  0  0  0  0
 10 12  1  0  0  0  0
 10 13  1  0  0  0  0
 13 14  1  0  0  0  0
 13 15  1  0  0  0  0
 15 16  1  0  0  0  0
 15 17  1  0  0  0  0
 15 18  1  0  0  0  0
 18 19  1  0  0  0  0
 18 20  1  0  0  0  0
  1 21  1  0  0  0  0
 18 21  1  0  0  0  0
 21 22  1  0  0  0  0
 21 23  1  0  0  0  0
 13 24  1  0  0  0  0
 24 25  1  0  0  0  0
M  END
> <VConfSearch Rank>
821

> <Conf_Id>
146

> <Delta U+W>
2.553

> <U+W>
13.466

> <U>
15.643

> <W>
-2.176

> <W(PB)>
-4.307

> <W(SA)>
2.131

> <Valence>
18.916

> <Coulomb>
-7.506

> <VdW>
4.232

> <VdW6>
-13.632

> <VdW12>
17.864

> <Bond>
0.735

> <Angle>
9.140

> <Pdih>
9.042

> <Idih>
0.000

> <Tether>
0.000

$$$$
VeraChem MOL file


 25 25  0  0  0  0  0  0  0  0999 V2000     
   20.9476   20.1563   24.4170 C   0  0  0  0  0  0  0  0  0  0  0  0
   20.4806   21.0675   24.8147 H   0  0  0  0  0  0  0  0  0  0  0  0
   21.7451   19.8981   25.1270 H   0  0  0  0  0  0  0  0  0  0  0  0
   21.6229   20.4782   23.0603 C   0  0  0  0  0  0  0  0  0  0  0  0
   22.3890   21.2421   23.2509 H   0  0  0  0  0  0  0  0  0  0  0  0
   22.1843   19.6094   22.6983 H   0  0  0  0  0  0  0  0  0  0  0  0
   20.6936   21.0270   21.9487 C   0  0  0  0  0  0  0  0  0  0  0  0
   21.3282   21.3150   21.0995 H   0  0  0  0  0  0  0  0  0  0  0  0
   20.2212   21.9558   22.2959 H   0  0  0  0  0  0  0  0  0  0  0  0
   19.5940   20.0713   21.4163 C   0  0  0  0  0  0  0  0  0  0  0  0
   18.7272   20.0790   22.0846 H   0  0  0  0  0  0  0  0  0  0  0  0
   19.2200   20.5013   20.4772 H   0  0  0  0  0  0  0  0  0  0  0  0
   20.0572   18.6145   21.1570 C   0  0  0  0  0  0  0  0  0  0  0  0
   21.1504   18.5883   21.0550 H   0  0  0  0  0  0  0  0  0  0  0  0
   19.6194   17.6063   22.2495 C   0  0  0  0  0  0  0  0  0  0  0  0
   18.5294   17.6586   22.3723 H   0  0  0  0  0  0  0  0  0  0  0  0
   19.8278   16.5939   21.8794 H   0  0  0  0  0  0  0  0  0  0  0  0
   20.2991   17.7383   23.6395 C   0  0  0  0  0  0  0  0  0  0  0  0
   21.3895   17.6499   23.5501 H   0  0  0  0  0  0  0  0  0  0  0  0
   19.9888   16.8667   24.2320 H   0  0  0  0  0  0  0  0  0  0  0  0
   19.9060   19.0078   24.4384 C   0  0  0  0  0  0  0  0  0  0  0  0
   19.7653   18.7200   25.4893 H   0  0  0  0  0  0  0  0  0  0  0  0
   18.9223   19.3725   24.1220 H   0  0  0  0  0  0  0  0  0  0  0  0
   19.4856   18.1812   19.9278 O   0  0  0  0  0  0  0  0  0  0  0  0
   19.8365   17.2831   19.7532 H   0  0  0  0  0  0  0  0  0  0  0  0
  1  2  1  0  0  0  0
  1  3  1  0  0  0  0
  1  4  1  0  0  0  0
  4  5  1  0  0  0  0
  4  6  1  0  0  0  0
  4  7  1  0  0  0  0
  7  8  1  0  0  0  0
  7  9  1  0  0  0  0
  7 10  1  0  0  0  0
 10 11  1  0  0  0  0
 10 12  1  0  0  0  0
 10 13  1  0  0  0  0
 13 14  1  0  0  0  0
 13 15  1  0  0  0  0
 15 16  1  0  0  0  0
 15 17  1  0  0  0  0
 15 18  1  0  0  0  0
 18 19  1  0  0  0  0
 18 20  1  0  0  0  0
  1 21  1  0  0  0  0
 18 21  1  0  0  0  0
 21 22  1  0  0  0  0
 21 23  1  0  0  0  0
 13 24  1  0  0  0  0
 24 25  1  0  0  0  0
M  END
> <VConfSearch Rank>
822

> <Conf_Id>
62

> <Delta U+W>
-1.779

> <U+W>
9.134

> <U>
11.364

> <W>
-2.230

> <W(PB)>
-4.359

> <W(SA)>
2.129

> <Valence>
16.582

> <Coulomb>
-8.150

> <VdW>
2.933

> <VdW6>
-12.531

> <VdW12>
15.464

> <Bond>
0.439

> <Angle>
5.099

> <Pdih>
11.044

> <Idih>
0.000

> <Tether>
0.000

$$$$
VeraChem MOL file


 25 25  0  0  0  0  0  0  0  0999 V2000     
   18.8392   19.0477   23.7321 C   0  0  0  0  0  0  0  0  0  0  0  0
   18.6461   18.3761   22.8879 H   0  0  0  0  0  0  0  0  0  0  0  0
   17.9354   18.9786   24.3527 H   0  0  0  0  0  0  0  0  0  0  0  0
   18.9500   20.5131   23.2422 C   0  0  0  0  0  0  0  0  0  0  0  0
   17.9964   20.7724   22.7624 H   0  0  0  0  0  0  0  0  0  0  0  0
   19.0366   21.1803   24.1105 H   0  0  0  0  0  0  0  0  0  0  0  0
   20.0880   20.8394   22.2416 C   0  0  0  0  0  0  0  0  0  0  0  0
   21.0298   21.0146   22.7739 H   0  0  0  0  0  0  0  0  0  0  0  0
   19.8475   21.8084   21.7830 H   0  0  0  0  0  0  0  0  0  0  0  0
   20.2895   19.8016   21.1051 C   0  0  0  0  0  0  0  0  0  0  0  0
   19.3695   19.2328   20.9225 H   0  0  0  0  0  0  0  0  0  0  0  0
   20.4697   20.3648   20.1801 H   0  0  0  0  0  0  0  0  0  0  0  0
   21.4905   18.8425   21.3027 C   0  0  0  0  0  0  0  0  0  0  0  0
   22.3884   19.4487   21.4902 H   0  0  0  0  0  0  0  0  0  0  0  0
   21.3626   17.8053   22.4463 C   0  0  0  0  0  0  0  0  0  0  0  0
   20.4745   17.1789   22.2998 H   0  0  0  0  0  0  0  0  0  0  0  0
   22.2164   17.1210   22.3541 H   0  0  0  0  0  0  0  0  0  0  0  0
   21.3989   18.4009   23.8793 C   0  0  0  0  0  0  0  0  0  0  0  0
   21.9173   19.3663   23.8812 H   0  0  0  0  0  0  0  0  0  0  0  0
   22.0263   17.7511   24.5048 H   0  0  0  0  0  0  0  0  0  0  0  0
   20.0223   18.5205   24.5819 C   0  0  0  0  0  0  0  0  0  0  0  0
   20.1325   19.1459   25.4782 H   0  0  0  0  0  0  0  0  0  0  0  0
   19.7448   17.5227   24.9483 H   0  0  0  0  0  0  0  0  0  0  0  0
   21.6711   18.1218   20.0901 O   0  0  0  0  0  0  0  0  0  0  0  0
   21.8189   18.7862   19.3852 H   0  0  0  0  0  0  0  0  0  0  0  0
  1  2  1  0  0  0  0
  1  3  1  0  0  0  0
  1  4  1  0  0  0  0
  4  5  1  0  0  0  0
  4  6  1  0  0  0  0
  4  7  1  0  0  0  0
  7  8  1  0  0  0  0
  7  9  1  0  0  0  0
  7 10  1  0  0  0  0
 10 11  1  0  0  0  0
 10 12  1  0  0  0  0
 10 13  1  0  0  0  0
 13 14  1  0  0  0  0
 13 15  1  0  0  0  0
 15 16  1  0  0  0  0
 15 17  1  0  0  0  0
 15 18  1  0  0  0  0
 18 19  1  0  0  0  0
 18 20  1  0  0  0  0
  1 21  1  0  0  0  0
 18 21  1  0  0  0  0
 21 22  1  0  0  0  0
 21 23  1  0  0  0  0
 13 24  1  0  0  0  0
 24 25  1  0  0  0  0
M  END
> <VConfSearch Rank>
823

> <Conf_Id>
121

> <Delta U+W>
-1.283

> <U+W>
9.630

> <U>
11.876

> <W>
-2.246

> <W(PB)>
-4.376

> <W(SA)>
2.130

> <Valence>
17.153

> <Coulomb>
-7.966

> <VdW>
2.689

> <VdW6>
-12.458

> <VdW12>
15.147

> <Bond>
0.421

> <Angle>
5.258

> <Pdih>
11.475

> <Idih>
0.000

> <Tether>
0.000

$$$$
VeraChem MOL file


 25 25  0  0  0  0  0  0  0  0999 V2000     
   20.1341   20.4700   24.0735 C   0  0  0  0  0  0  0  0  0  0  0  0
   19.9730   21.0722   23.1721 H   0  0  0  0  0  0  0  0  0  0  0  0
   19.9934   21.1738   24.9051 H   0  0  0  0  0  0  0  0  0  0  0  0
   21.5996   19.9717   24.1353 C   0  0  0  0  0  0  0  0  0  0  0  0
   22.2478   20.8586   24.1522 H   0  0  0  0  0  0  0  0  0  0  0  0
   21.7695   19.4614   25.0930 H   0  0  0  0  0  0  0  0  0  0  0  0
   22.0831   19.0540   22.9834 C   0  0  0  0  0  0  0  0  0  0  0  0
   21.7939   18.0140   23.1724 H   0  0  0  0  0  0  0  0  0  0  0  0
   23.1812   19.0439   23.0165 H   0  0  0  0  0  0  0  0  0  0  0  0
   21.6455   19.4903   21.5594 C   0  0  0  0  0  0  0  0  0  0  0  0
   21.4363   20.5662   21.5213 H   0  0  0  0  0  0  0  0  0  0  0  0
   22.5045   19.3400   20.8921 H   0  0  0  0  0  0  0  0  0  0  0  0
   20.4641   18.6857   20.9620 C   0  0  0  0  0  0  0  0  0  0  0  0
   20.7136   17.6166   21.0228 H   0  0  0  0  0  0  0  0  0  0  0  0
   19.0798   18.8999   21.6248 C   0  0  0  0  0  0  0  0  0  0  0  0
   18.7974   19.9593   21.5912 H   0  0  0  0  0  0  0  0  0  0  0  0
   18.3366   18.3826   21.0039 H   0  0  0  0  0  0  0  0  0  0  0  0
   18.9494   18.3327   23.0637 C   0  0  0  0  0  0  0  0  0  0  0  0
   19.6747   17.5275   23.2270 H   0  0  0  0  0  0  0  0  0  0  0  0
   17.9703   17.8421   23.1519 H   0  0  0  0  0  0  0  0  0  0  0  0
   19.0375   19.3832   24.2001 C   0  0  0  0  0  0  0  0  0  0  0  0
   19.1530   18.8613   25.1598 H   0  0  0  0  0  0  0  0  0  0  0  0
   18.0689   19.8984   24.2570 H   0  0  0  0  0  0  0  0  0  0  0  0
   20.3477   19.0503   19.5924 O   0  0  0  0  0  0  0  0  0  0  0  0
   19.6439   18.4870   19.2082 H   0  0  0  0  0  0  0  0  0  0  0  0
  1  2  1  0  0  0  0
  1  3  1  0  0  0  0
  1  4  1  0  0  0  0
  4  5  1  0  0  0  0
  4  6  1  0  0  0  0
  4  7  1  0  0  0  0
  7  8  1  0  0  0  0
  7  9  1  0  0  0  0
  7 10  1  0  0  0  0
 10 11  1  0  0  0  0
 10 12  1  0  0  0  0
 10 13  1  0  0  0  0
 13 14  1  0  0  0  0
 13 15  1  0  0  0  0
 15 16  1  0  0  0  0
 15 17  1  0  0  0  0
 15 18  1  0  0  0  0
 18 19  1  0  0  0  0
 18 20  1  0  0  0  0
  1 21  1  0  0  0  0
 18 21  1  0  0  0  0
 21 22  1  0  0  0  0
 21 23  1  0  0  0  0
 13 24  1  0  0  0  0
 24 25  1  0  0  0  0
M  END
> <VConfSearch Rank>
824

> <Conf_Id>
24

> <Delta U+W>
-1.236

> <U+W>
9.678

> <U>
11.876

> <W>
-2.199

> <W(PB)>
-4.335

> <W(SA)>
2.137

> <Valence>
17.153

> <Coulomb>
-7.966

> <VdW>
2.689

> <VdW6>
-12.458

> <VdW12>
15.147

> <Bond>
0.421

> <Angle>
5.258

> <Pdih>
11.475

> <Idih>
0.000

> <Tether>
0.000

$$$$
VeraChem MOL file


 25 25  0  0  0  0  0  0  0  0999 V2000     
   21.3478   19.9170   20.9436 C   0  0  0  0  0  0  0  0  0  0  0  0
   20.9985   19.7856   19.9104 H   0  0  0  0  0  0  0  0  0  0  0  0
   22.3288   20.4053   20.8656 H   0  0  0  0  0  0  0  0  0  0  0  0
   20.3874   20.8898   21.6781 C   0  0  0  0  0  0  0  0  0  0  0  0
   20.8648   21.2984   22.5778 H   0  0  0  0  0  0  0  0  0  0  0  0
   20.2457   21.7573   21.0189 H   0  0  0  0  0  0  0  0  0  0  0  0
   18.9884   20.3266   22.0307 C   0  0  0  0  0  0  0  0  0  0  0  0
   18.6432   19.6272   21.2573 H   0  0  0  0  0  0  0  0  0  0  0  0
   18.2863   21.1710   21.9936 H   0  0  0  0  0  0  0  0  0  0  0  0
   18.8665   19.7009   23.4490 C   0  0  0  0  0  0  0  0  0  0  0  0
   19.4705   20.2595   24.1754 H   0  0  0  0  0  0  0  0  0  0  0  0
   17.8234   19.8403   23.7641 H   0  0  0  0  0  0  0  0  0  0  0  0
   19.1856   18.1879   23.5261 C   0  0  0  0  0  0  0  0  0  0  0  0
   18.9478   17.7313   22.5562 H   0  0  0  0  0  0  0  0  0  0  0  0
   20.6442   17.8357   23.9139 C   0  0  0  0  0  0  0  0  0  0  0  0
   20.8020   18.0572   24.9776 H   0  0  0  0  0  0  0  0  0  0  0  0
   20.7622   16.7489   23.8112 H   0  0  0  0  0  0  0  0  0  0  0  0
   21.7697   18.5271   23.1040 C   0  0  0  0  0  0  0  0  0  0  0  0
   22.7144   18.0120   23.3255 H   0  0  0  0  0  0  0  0  0  0  0  0
   21.9158   19.5492   23.4723 H   0  0  0  0  0  0  0  0  0  0  0  0
   21.5446   18.5151   21.5709 C   0  0  0  0  0  0  0  0  0  0  0  0
   20.7013   17.8691   21.3004 H   0  0  0  0  0  0  0  0  0  0  0  0
   22.4164   18.0489   21.0917 H   0  0  0  0  0  0  0  0  0  0  0  0
   18.3364   17.6011   24.5039 O   0  0  0  0  0  0  0  0  0  0  0  0
   18.5510   18.0365   25.3544 H   0  0  0  0  0  0  0  0  0  0  0  0
  1  2  1  0  0  0  0
  1  3  1  0  0  0  0
  1  4  1  0  0  0  0
  4  5  1  0  0  0  0
  4  6  1  0  0  0  0
  4  7  1  0  0  0  0
  7  8  1  0  0  0  0
  7  9  1  0  0  0  0
  7 10  1  0  0  0  0
 10 11  1  0  0  0  0
 10 12  1  0  0  0  0
 10 13  1  0  0  0  0
 13 14  1  0  0  0  0
 13 15  1  0  0  0  0
 15 16  1  0  0  0  0
 15 17  1  0  0  0  0
 15 18  1  0  0  0  0
 18 19  1  0  0  0  0
 18 20  1  0  0  0  0
  1 21  1  0  0  0  0
 18 21  1  0  0  0  0
 21 22  1  0  0  0  0
 21 23  1  0  0  0  0
 13 24  1  0  0  0  0
 24 25  1  0  0  0  0
M  END
> <VConfSearch Rank>
825

> <Conf_Id>
167

> <Delta U+W>
0.388

> <U+W>
11.301

> <U>
13.202

> <W>
-1.901

> <W(PB)>
-4.065

> <W(SA)>
2.163

> <Valence>
18.957

> <Coulomb>
-8.753

> <VdW>
2.998

> <VdW6>
-12.294

> <VdW12>
15.292

> <Bond>
0.419

> <Angle>
4.543

> <Pdih>
13.996

> <Idih>
0.000

> <Tether>
0.000

$$$$
VeraChem MOL file


 25 25  0  0  0  0  0  0  0  0999 V2000     
   21.9750   20.3569   22.1824 C   0  0  0  0  0  0  0  0  0  0  0  0
   22.2556   20.5510   21.1383 H   0  0  0  0  0  0  0  0  0  0  0  0
   22.7192   20.8872   22.7922 H   0  0  0  0  0  0  0  0  0  0  0  0
   22.1249   18.8401   22.4690 C   0  0  0  0  0  0  0  0  0  0  0  0
   21.7612   18.2487   21.6212 H   0  0  0  0  0  0  0  0  0  0  0  0
   23.2015   18.6250   22.5092 H   0  0  0  0  0  0  0  0  0  0  0  0
   21.4854   18.3450   23.7922 C   0  0  0  0  0  0  0  0  0  0  0  0
   21.4181   19.1581   24.5264 H   0  0  0  0  0  0  0  0  0  0  0  0
   22.1728   17.6129   24.2374 H   0  0  0  0  0  0  0  0  0  0  0  0
   20.1132   17.6362   23.6280 C   0  0  0  0  0  0  0  0  0  0  0  0
   20.2153   16.8025   22.9210 H   0  0  0  0  0  0  0  0  0  0  0  0
   19.8614   17.1766   24.5930 H   0  0  0  0  0  0  0  0  0  0  0  0
   18.9150   18.5210   23.2029 C   0  0  0  0  0  0  0  0  0  0  0  0
   18.8348   19.3723   23.8922 H   0  0  0  0  0  0  0  0  0  0  0  0
   18.9940   19.0343   21.7417 C   0  0  0  0  0  0  0  0  0  0  0  0
   19.6545   18.3908   21.1518 H   0  0  0  0  0  0  0  0  0  0  0  0
   18.0117   18.9276   21.2624 H   0  0  0  0  0  0  0  0  0  0  0  0
   19.4173   20.5184   21.5905 C   0  0  0  0  0  0  0  0  0  0  0  0
   18.5465   21.1440   21.8297 H   0  0  0  0  0  0  0  0  0  0  0  0
   19.6462   20.7180   20.5349 H   0  0  0  0  0  0  0  0  0  0  0  0
   20.5969   21.0039   22.4702 C   0  0  0  0  0  0  0  0  0  0  0  0
   20.3479   20.9122   23.5335 H   0  0  0  0  0  0  0  0  0  0  0  0
   20.7035   22.0846   22.3040 H   0  0  0  0  0  0  0  0  0  0  0  0
   17.7385   17.7320   23.3345 O   0  0  0  0  0  0  0  0  0  0  0  0
   16.9817   18.3203   23.1302 H   0  0  0  0  0  0  0  0  0  0  0  0
  1  2  1  0  0  0  0
  1  3  1  0  0  0  0
  1  4  1  0  0  0  0
  4  5  1  0  0  0  0
  4  6  1  0  0  0  0
  4  7  1  0  0  0  0
  7  8  1  0  0  0  0
  7  9  1  0  0  0  0
  7 10  1  0  0  0  0
 10 11  1  0  0  0  0
 10 12  1  0  0  0  0
 10 13  1  0  0  0  0
 13 14  1  0  0  0  0
 13 15  1  0  0  0  0
 15 16  1  0  0  0  0
 15 17  1  0  0  0  0
 15 18  1  0  0  0  0
 18 19  1  0  0  0  0
 18 20  1  0  0  0  0
  1 21  1  0  0  0  0
 18 21  1  0  0  0  0
 21 22  1  0  0  0  0
 21 23  1  0  0  0  0
 13 24  1  0  0  0  0
 24 25  1  0  0  0  0
M  END
> <VConfSearch Rank>
826

> <Conf_Id>
60

> <Delta U+W>
-1.838

> <U+W>
9.075

> <U>
11.150

> <W>
-2.074

> <W(PB)>
-4.196

> <W(SA)>
2.121

> <Valence>
16.582

> <Coulomb>
-8.361

> <VdW>
2.928

> <VdW6>
-12.539

> <VdW12>
15.467

> <Bond>
0.441

> <Angle>
5.093

> <Pdih>
11.049

> <Idih>
0.000

> <Tether>
0.000

$$$$
VeraChem MOL file


 25 25  0  0  0  0  0  0  0  0999 V2000     
   20.6616   18.4119   24.5367 C   0  0  0  0  0  0  0  0  0  0  0  0
   21.3209   18.9191   25.2540 H   0  0  0  0  0  0  0  0  0  0  0  0
   20.3233   17.4968   25.0417 H   0  0  0  0  0  0  0  0  0  0  0  0
   21.4886   17.9782   23.3004 C   0  0  0  0  0  0  0  0  0  0  0  0
   22.2636   17.2847   23.6542 H   0  0  0  0  0  0  0  0  0  0  0  0
   20.8719   17.3784   22.6212 H   0  0  0  0  0  0  0  0  0  0  0  0
   22.2062   19.1125   22.5264 C   0  0  0  0  0  0  0  0  0  0  0  0
   22.8368   18.6425   21.7594 H   0  0  0  0  0  0  0  0  0  0  0  0
   22.8980   19.6320   23.2032 H   0  0  0  0  0  0  0  0  0  0  0  0
   21.3053   20.1621   21.8252 C   0  0  0  0  0  0  0  0  0  0  0  0
   20.9684   20.9134   22.5465 H   0  0  0  0  0  0  0  0  0  0  0  0
   21.9431   20.7216   21.1279 H   0  0  0  0  0  0  0  0  0  0  0  0
   20.0911   19.5761   21.0590 C   0  0  0  0  0  0  0  0  0  0  0  0
   20.2613   18.5112   20.8511 H   0  0  0  0  0  0  0  0  0  0  0  0
   18.7392   19.7384   21.7975 C   0  0  0  0  0  0  0  0  0  0  0  0
   18.5825   20.7987   22.0353 H   0  0  0  0  0  0  0  0  0  0  0  0
   17.9408   19.4723   21.0921 H   0  0  0  0  0  0  0  0  0  0  0  0
   18.5332   18.8857   23.0792 C   0  0  0  0  0  0  0  0  0  0  0  0
   18.6447   17.8165   22.8576 H   0  0  0  0  0  0  0  0  0  0  0  0
   17.4837   19.0082   23.3800 H   0  0  0  0  0  0  0  0  0  0  0  0
   19.4152   19.3001   24.2855 C   0  0  0  0  0  0  0  0  0  0  0  0
   18.7972   19.2513   25.1926 H   0  0  0  0  0  0  0  0  0  0  0  0
   19.7015   20.3550   24.2083 H   0  0  0  0  0  0  0  0  0  0  0  0
   19.9785   20.2578   19.8153 O   0  0  0  0  0  0  0  0  0  0  0  0
   20.8120   20.0911   19.3274 H   0  0  0  0  0  0  0  0  0  0  0  0
  1  2  1  0  0  0  0
  1  3  1  0  0  0  0
  1  4  1  0  0  0  0
  4  5  1  0  0  0  0
  4  6  1  0  0  0  0
  4  7  1  0  0  0  0
  7  8  1  0  0  0  0
  7  9  1  0  0  0  0
  7 10  1  0  0  0  0
 10 11  1  0  0  0  0
 10 12  1  0  0  0  0
 10 13  1  0  0  0  0
 13 14  1  0  0  0  0
 13 15  1  0  0  0  0
 15 16  1  0  0  0  0
 15 17  1  0  0  0  0
 15 18  1  0  0  0  0
 18 19  1  0  0  0  0
 18 20  1  0  0  0  0
  1 21  1  0  0  0  0
 18 21  1  0  0  0  0
 21 22  1  0  0  0  0
 21 23  1  0  0  0  0
 13 24  1  0  0  0  0
 24 25  1  0  0  0  0
M  END
> <VConfSearch Rank>
827

> <Conf_Id>
129

> <Delta U+W>
-1.846

> <U+W>
9.067

> <U>
11.150

> <W>
-2.083

> <W(PB)>
-4.217

> <W(SA)>
2.134

> <Valence>
16.583

> <Coulomb>
-8.361

> <VdW>
2.928

> <VdW6>
-12.539

> <VdW12>
15.467

> <Bond>
0.441

> <Angle>
5.093

> <Pdih>
11.049

> <Idih>
0.000

> <Tether>
0.000

$$$$
VeraChem MOL file


 25 25  0  0  0  0  0  0  0  0999 V2000     
   21.4130   19.6864   24.2953 C   0  0  0  0  0  0  0  0  0  0  0  0
   21.2016   19.2400   25.2764 H   0  0  0  0  0  0  0  0  0  0  0  0
   22.2840   20.3382   24.4481 H   0  0  0  0  0  0  0  0  0  0  0  0
   20.2264   20.5911   23.8786 C   0  0  0  0  0  0  0  0  0  0  0  0
   20.1354   21.3794   24.6382 H   0  0  0  0  0  0  0  0  0  0  0  0
   20.4625   21.1273   22.9523 H   0  0  0  0  0  0  0  0  0  0  0  0
   18.8452   19.8978   23.7685 C   0  0  0  0  0  0  0  0  0  0  0  0
   18.0967   20.6803   23.5826 H   0  0  0  0  0  0  0  0  0  0  0  0
   18.5813   19.4581   24.7398 H   0  0  0  0  0  0  0  0  0  0  0  0
   18.6860   18.8179   22.6668 C   0  0  0  0  0  0  0  0  0  0  0  0
   19.0924   17.8622   23.0132 H   0  0  0  0  0  0  0  0  0  0  0  0
   17.6090   18.6355   22.5514 H   0  0  0  0  0  0  0  0  0  0  0  0
   19.2915   19.1916   21.2890 C   0  0  0  0  0  0  0  0  0  0  0  0
   19.4135   20.2809   21.2215 H   0  0  0  0  0  0  0  0  0  0  0  0
   20.6467   18.5060   20.9819 C   0  0  0  0  0  0  0  0  0  0  0  0
   20.5359   17.4180   21.0782 H   0  0  0  0  0  0  0  0  0  0  0  0
   20.8810   18.6893   19.9247 H   0  0  0  0  0  0  0  0  0  0  0  0
   21.8717   18.9693   21.8158 C   0  0  0  0  0  0  0  0  0  0  0  0
   22.0331   20.0493   21.7040 H   0  0  0  0  0  0  0  0  0  0  0  0
   22.7592   18.4996   21.3701 H   0  0  0  0  0  0  0  0  0  0  0  0
   21.8310   18.5628   23.3117 C   0  0  0  0  0  0  0  0  0  0  0  0
   22.8385   18.2367   23.6045 H   0  0  0  0  0  0  0  0  0  0  0  0
   21.2057   17.6740   23.4523 H   0  0  0  0  0  0  0  0  0  0  0  0
   18.3762   18.7895   20.2777 O   0  0  0  0  0  0  0  0  0  0  0  0
   18.2877   17.8173   20.3554 H   0  0  0  0  0  0  0  0  0  0  0  0
  1  2  1  0  0  0  0
  1  3  1  0  0  0  0
  1  4  1  0  0  0  0
  4  5  1  0  0  0  0
  4  6  1  0  0  0  0
  4  7  1  0  0  0  0
  7  8  1  0  0  0  0
  7  9  1  0  0  0  0
  7 10  1  0  0  0  0
 10 11  1  0  0  0  0
 10 12  1  0  0  0  0
 10 13  1  0  0  0  0
 13 14  1  0  0  0  0
 13 15  1  0  0  0  0
 15 16  1  0  0  0  0
 15 17  1  0  0  0  0
 15 18  1  0  0  0  0
 18 19  1  0  0  0  0
 18 20  1  0  0  0  0
  1 21  1  0  0  0  0
 18 21  1  0  0  0  0
 21 22  1  0  0  0  0
 21 23  1  0  0  0  0
 13 24  1  0  0  0  0
 24 25  1  0  0  0  0
M  END
> <VConfSearch Rank>
828

> <Conf_Id>
140

> <Delta U+W>
-1.702

> <U+W>
9.211

> <U>
11.181

> <W>
-1.969

> <W(PB)>
-4.093

> <W(SA)>
2.124

> <Valence>
16.954

> <Coulomb>
-8.661

> <VdW>
2.887

> <VdW6>
-12.561

> <VdW12>
15.448

> <Bond>
0.433

> <Angle>
5.120

> <Pdih>
11.401

> <Idih>
0.000

> <Tether>
0.000

$$$$
VeraChem MOL file


 25 25  0  0  0  0  0  0  0  0999 V2000     
   20.0961   19.2918   20.5962 C   0  0  0  0  0  0  0  0  0  0  0  0
   19.9220   20.2551   20.0980 H   0  0  0  0  0  0  0  0  0  0  0  0
   20.1241   18.5435   19.7923 H   0  0  0  0  0  0  0  0  0  0  0  0
   18.8794   18.9670   21.5010 C   0  0  0  0  0  0  0  0  0  0  0  0
   18.5351   19.8670   22.0229 H   0  0  0  0  0  0  0  0  0  0  0  0
   18.0457   18.7010   20.8367 H   0  0  0  0  0  0  0  0  0  0  0  0
   19.0877   17.8022   22.5031 C   0  0  0  0  0  0  0  0  0  0  0  0
   19.8596   17.1078   22.1470 H   0  0  0  0  0  0  0  0  0  0  0  0
   18.1602   17.2136   22.5227 H   0  0  0  0  0  0  0  0  0  0  0  0
   19.3750   18.2437   23.9638 C   0  0  0  0  0  0  0  0  0  0  0  0
   18.5660   18.9016   24.3071 H   0  0  0  0  0  0  0  0  0  0  0  0
   19.3179   17.3468   24.5950 H   0  0  0  0  0  0  0  0  0  0  0  0
   20.7415   18.9225   24.2335 C   0  0  0  0  0  0  0  0  0  0  0  0
   21.5469   18.2754   23.8613 H   0  0  0  0  0  0  0  0  0  0  0  0
   20.8822   20.3387   23.6175 C   0  0  0  0  0  0  0  0  0  0  0  0
   19.8941   20.7769   23.4440 H   0  0  0  0  0  0  0  0  0  0  0  0
   21.3567   21.0063   24.3495 H   0  0  0  0  0  0  0  0  0  0  0  0
   21.7338   20.4100   22.3233 C   0  0  0  0  0  0  0  0  0  0  0  0
   22.7922   20.3643   22.6146 H   0  0  0  0  0  0  0  0  0  0  0  0
   21.5952   21.3957   21.8589 H   0  0  0  0  0  0  0  0  0  0  0  0
   21.4944   19.3061   21.2629 C   0  0  0  0  0  0  0  0  0  0  0  0
   21.7303   18.3186   21.6757 H   0  0  0  0  0  0  0  0  0  0  0  0
   22.2343   19.4554   20.4648 H   0  0  0  0  0  0  0  0  0  0  0  0
   20.8859   19.0351   25.6437 O   0  0  0  0  0  0  0  0  0  0  0  0
   20.1564   19.6115   25.9513 H   0  0  0  0  0  0  0  0  0  0  0  0
  1  2  1  0  0  0  0
  1  3  1  0  0  0  0
  1  4  1  0  0  0  0
  4  5  1  0  0  0  0
  4  6  1  0  0  0  0
  4  7  1  0  0  0  0
  7  8  1  0  0  0  0
  7  9  1  0  0  0  0
  7 10  1  0  0  0  0
 10 11  1  0  0  0  0
 10 12  1  0  0  0  0
 10 13  1  0  0  0  0
 13 14  1  0  0  0  0
 13 15  1  0  0  0  0
 15 16  1  0  0  0  0
 15 17  1  0  0  0  0
 15 18  1  0  0  0  0
 18 19  1  0  0  0  0
 18 20  1  0  0  0  0
  1 21  1  0  0  0  0
 18 21  1  0  0  0  0
 21 22  1  0  0  0  0
 21 23  1  0  0  0  0
 13 24  1  0  0  0  0
 24 25  1  0  0  0  0
M  END
> <VConfSearch Rank>
829

> <Conf_Id>
68

> <Delta U+W>
-1.765

> <U+W>
9.148

> <U>
11.181

> <W>
-2.032

> <W(PB)>
-4.147

> <W(SA)>
2.114

> <Valence>
16.955

> <Coulomb>
-8.661

> <VdW>
2.887

> <VdW6>
-12.561

> <VdW12>
15.448

> <Bond>
0.433

> <Angle>
5.121

> <Pdih>
11.402

> <Idih>
0.000

> <Tether>
0.000

$$$$
VeraChem MOL file


 25 25  0  0  0  0  0  0  0  0999 V2000     
   20.5136   20.0068   24.3166 C   0  0  0  0  0  0  0  0  0  0  0  0
   20.7601   20.5508   25.2388 H   0  0  0  0  0  0  0  0  0  0  0  0
   19.9205   19.1506   24.6571 H   0  0  0  0  0  0  0  0  0  0  0  0
   21.8403   19.5292   23.6707 C   0  0  0  0  0  0  0  0  0  0  0  0
   22.1893   20.2405   22.9113 H   0  0  0  0  0  0  0  0  0  0  0  0
   22.6121   19.5445   24.4524 H   0  0  0  0  0  0  0  0  0  0  0  0
   21.8040   18.0874   23.0992 C   0  0  0  0  0  0  0  0  0  0  0  0
   21.4983   17.3893   23.8906 H   0  0  0  0  0  0  0  0  0  0  0  0
   22.8336   17.8055   22.8398 H   0  0  0  0  0  0  0  0  0  0  0  0
   20.9211   17.8576   21.8437 C   0  0  0  0  0  0  0  0  0  0  0  0
   21.2314   18.5259   21.0315 H   0  0  0  0  0  0  0  0  0  0  0  0
   21.1421   16.8438   21.4833 H   0  0  0  0  0  0  0  0  0  0  0  0
   19.3960   17.9693   22.1012 C   0  0  0  0  0  0  0  0  0  0  0  0
   19.2046   17.8456   23.1734 H   0  0  0  0  0  0  0  0  0  0  0  0
   18.7520   19.2928   21.6198 C   0  0  0  0  0  0  0  0  0  0  0  0
   18.6295   19.2445   20.5298 H   0  0  0  0  0  0  0  0  0  0  0  0
   17.7371   19.3548   22.0337 H   0  0  0  0  0  0  0  0  0  0  0  0
   19.5089   20.6070   21.9424 C   0  0  0  0  0  0  0  0  0  0  0  0
   18.9557   21.4282   21.4666 H   0  0  0  0  0  0  0  0  0  0  0  0
   20.4897   20.6146   21.4532 H   0  0  0  0  0  0  0  0  0  0  0  0
   19.6538   20.9582   23.4444 C   0  0  0  0  0  0  0  0  0  0  0  0
   18.6559   21.0498   23.8942 H   0  0  0  0  0  0  0  0  0  0  0  0
   20.0989   21.9608   23.5048 H   0  0  0  0  0  0  0  0  0  0  0  0
   18.7427   16.9043   21.4217 O   0  0  0  0  0  0  0  0  0  0  0  0
   18.9393   17.0212   20.4696 H   0  0  0  0  0  0  0  0  0  0  0  0
  1  2  1  0  0  0  0
  1  3  1  0  0  0  0
  1  4  1  0  0  0  0
  4  5  1  0  0  0  0
  4  6  1  0  0  0  0
  4  7  1  0  0  0  0
  7  8  1  0  0  0  0
  7  9  1  0  0  0  0
  7 10  1  0  0  0  0
 10 11  1  0  0  0  0
 10 12  1  0  0  0  0
 10 13  1  0  0  0  0
 13 14  1  0  0  0  0
 13 15  1  0  0  0  0
 15 16  1  0  0  0  0
 15 17  1  0  0  0  0
 15 18  1  0  0  0  0
 18 19  1  0  0  0  0
 18 20  1  0  0  0  0
  1 21  1  0  0  0  0
 18 21  1  0  0  0  0
 21 22  1  0  0  0  0
 21 23  1  0  0  0  0
 13 24  1  0  0  0  0
 24 25  1  0  0  0  0
M  END
> <VConfSearch Rank>
830

> <Conf_Id>
165

> <Delta U+W>
-1.999

> <U+W>
8.915

> <U>
10.935

> <W>
-2.020

> <W(PB)>
-4.135

> <W(SA)>
2.115

> <Valence>
16.757

> <Coulomb>
-8.731

> <VdW>
2.908

> <VdW6>
-12.597

> <VdW12>
15.506

> <Bond>
0.434

> <Angle>
5.069

> <Pdih>
11.254

> <Idih>
0.000

> <Tether>
0.000

$$$$
VeraChem MOL file


 25 25  0  0  0  0  0  0  0  0999 V2000     
   19.8904   19.9956   21.0709 C   0  0  0  0  0  0  0  0  0  0  0  0
   19.6799   20.4163   20.0780 H   0  0  0  0  0  0  0  0  0  0  0  0
   19.3392   20.6432   21.7620 H   0  0  0  0  0  0  0  0  0  0  0  0
   21.4190   20.1204   21.3016 C   0  0  0  0  0  0  0  0  0  0  0  0
   21.9217   19.8502   20.3629 H   0  0  0  0  0  0  0  0  0  0  0  0
   21.6682   21.1757   21.4774 H   0  0  0  0  0  0  0  0  0  0  0  0
   22.0408   19.2526   22.4244 C   0  0  0  0  0  0  0  0  0  0  0  0
   23.1295   19.3925   22.3813 H   0  0  0  0  0  0  0  0  0  0  0  0
   21.8905   18.1882   22.2105 H   0  0  0  0  0  0  0  0  0  0  0  0
   21.5899   19.5837   23.8704 C   0  0  0  0  0  0  0  0  0  0  0  0
   22.1915   18.9669   24.5517 H   0  0  0  0  0  0  0  0  0  0  0  0
   21.8525   20.6258   24.0938 H   0  0  0  0  0  0  0  0  0  0  0  0
   20.0956   19.3650   24.2124 C   0  0  0  0  0  0  0  0  0  0  0  0
   19.5065   20.1967   23.8083 H   0  0  0  0  0  0  0  0  0  0  0  0
   19.5026   18.0295   23.6937 C   0  0  0  0  0  0  0  0  0  0  0  0
   20.2945   17.2901   23.5255 H   0  0  0  0  0  0  0  0  0  0  0  0
   18.8734   17.5991   24.4845 H   0  0  0  0  0  0  0  0  0  0  0  0
   18.6102   18.1671   22.4314 C   0  0  0  0  0  0  0  0  0  0  0  0
   17.8060   18.8882   22.6326 H   0  0  0  0  0  0  0  0  0  0  0  0
   18.1079   17.2034   22.2708 H   0  0  0  0  0  0  0  0  0  0  0  0
   19.3270   18.5511   21.1102 C   0  0  0  0  0  0  0  0  0  0  0  0
   18.5838   18.4647   20.3058 H   0  0  0  0  0  0  0  0  0  0  0  0
   20.1037   17.8167   20.8611 H   0  0  0  0  0  0  0  0  0  0  0  0
   19.9746   19.3927   25.6302 O   0  0  0  0  0  0  0  0  0  0  0  0
   20.3145   20.2632   25.9255 H   0  0  0  0  0  0  0  0  0  0  0  0
  1  2  1  0  0  0  0
  1  3  1  0  0  0  0
  1  4  1  0  0  0  0
  4  5  1  0  0  0  0
  4  6  1  0  0  0  0
  4  7  1  0  0  0  0
  7  8  1  0  0  0  0
  7  9  1  0  0  0  0
  7 10  1  0  0  0  0
 10 11  1  0  0  0  0
 10 12  1  0  0  0  0
 10 13  1  0  0  0  0
 13 14  1  0  0  0  0
 13 15  1  0  0  0  0
 15 16  1  0  0  0  0
 15 17  1  0  0  0  0
 15 18  1  0  0  0  0
 18 19  1  0  0  0  0
 18 20  1  0  0  0  0
  1 21  1  0  0  0  0
 18 21  1  0  0  0  0
 21 22  1  0  0  0  0
 21 23  1  0  0  0  0
 13 24  1  0  0  0  0
 24 25  1  0  0  0  0
M  END
> <VConfSearch Rank>
831

> <Conf_Id>
133

> <Delta U+W>
-2.139

> <U+W>
8.774

> <U>
10.905

> <W>
-2.131

> <W(PB)>
-4.281

> <W(SA)>
2.150

> <Valence>
16.378

> <Coulomb>
-8.448

> <VdW>
2.976

> <VdW6>
-12.570

> <VdW12>
15.545

> <Bond>
0.439

> <Angle>
5.049

> <Pdih>
10.889

> <Idih>
0.000

> <Tether>
0.000

$$$$
VeraChem MOL file


 25 25  0  0  0  0  0  0  0  0999 V2000     
   20.3169   17.5012   23.2573 C   0  0  0  0  0  0  0  0  0  0  0  0
   20.2783   16.4885   23.6817 H   0  0  0  0  0  0  0  0  0  0  0  0
   21.0876   17.4404   22.4807 H   0  0  0  0  0  0  0  0  0  0  0  0
   20.7512   18.4774   24.3815 C   0  0  0  0  0  0  0  0  0  0  0  0
   19.8795   18.9358   24.8659 H   0  0  0  0  0  0  0  0  0  0  0  0
   21.2342   17.8812   25.1679 H   0  0  0  0  0  0  0  0  0  0  0  0
   21.7715   19.5614   23.9450 C   0  0  0  0  0  0  0  0  0  0  0  0
   22.6552   19.0756   23.5090 H   0  0  0  0  0  0  0  0  0  0  0  0
   22.1308   20.0663   24.8521 H   0  0  0  0  0  0  0  0  0  0  0  0
   21.2540   20.6532   22.9708 C   0  0  0  0  0  0  0  0  0  0  0  0
   20.3897   21.1731   23.4007 H   0  0  0  0  0  0  0  0  0  0  0  0
   22.0403   21.4169   22.8999 H   0  0  0  0  0  0  0  0  0  0  0  0
   20.9366   20.1433   21.5413 C   0  0  0  0  0  0  0  0  0  0  0  0
   21.4561   19.1915   21.3794 H   0  0  0  0  0  0  0  0  0  0  0  0
   19.4285   19.9596   21.2416 C   0  0  0  0  0  0  0  0  0  0  0  0
   18.9908   20.9513   21.0647 H   0  0  0  0  0  0  0  0  0  0  0  0
   19.3224   19.4091   20.2981 H   0  0  0  0  0  0  0  0  0  0  0  0
   18.5710   19.2611   22.3282 C   0  0  0  0  0  0  0  0  0  0  0  0
   17.5276   19.2831   21.9855 H   0  0  0  0  0  0  0  0  0  0  0  0
   18.5704   19.8497   23.2528 H   0  0  0  0  0  0  0  0  0  0  0  0
   18.9265   17.7838   22.6307 C   0  0  0  0  0  0  0  0  0  0  0  0
   18.8212   17.1891   21.7132 H   0  0  0  0  0  0  0  0  0  0  0  0
   18.1642   17.3987   23.3219 H   0  0  0  0  0  0  0  0  0  0  0  0
   21.4460   21.0838   20.6025 O   0  0  0  0  0  0  0  0  0  0  0  0
   21.2720   20.7154   19.7111 H   0  0  0  0  0  0  0  0  0  0  0  0
  1  2  1  0  0  0  0
  1  3  1  0  0  0  0
  1  4  1  0  0  0  0
  4  5  1  0  0  0  0
  4  6  1  0  0  0  0
  4  7  1  0  0  0  0
  7  8  1  0  0  0  0
  7  9  1  0  0  0  0
  7 10  1  0  0  0  0
 10 11  1  0  0  0  0
 10 12  1  0  0  0  0
 10 13  1  0  0  0  0
 13 14  1  0  0  0  0
 13 15  1  0  0  0  0
 15 16  1  0  0  0  0
 15 17  1  0  0  0  0
 15 18  1  0  0  0  0
 18 19  1  0  0  0  0
 18 20  1  0  0  0  0
  1 21  1  0  0  0  0
 18 21  1  0  0  0  0
 21 22  1  0  0  0  0
 21 23  1  0  0  0  0
 13 24  1  0  0  0  0
 24 25  1  0  0  0  0
M  END
> <VConfSearch Rank>
832

> <Conf_Id>
95

> <Delta U+W>
-2.190

> <U+W>
8.723

> <U>
10.905

> <W>
-2.182

> <W(PB)>
-4.296

> <W(SA)>
2.114

> <Valence>
16.377

> <Coulomb>
-8.448

> <VdW>
2.976

> <VdW6>
-12.570

> <VdW12>
15.546

> <Bond>
0.439

> <Angle>
5.049

> <Pdih>
10.889

> <Idih>
0.000

> <Tether>
0.000

$$$$
VeraChem MOL file


 25 25  0  0  0  0  0  0  0  0999 V2000     
   20.8272   18.1195   21.2679 C   0  0  0  0  0  0  0  0  0  0  0  0
   21.0347   17.4919   20.3904 H   0  0  0  0  0  0  0  0  0  0  0  0
   21.6597   17.8957   21.9426 H   0  0  0  0  0  0  0  0  0  0  0  0
   19.4764   17.6304   21.8682 C   0  0  0  0  0  0  0  0  0  0  0  0
   18.8388   17.3190   21.0296 H   0  0  0  0  0  0  0  0  0  0  0  0
   19.6558   16.7180   22.4528 H   0  0  0  0  0  0  0  0  0  0  0  0
   18.6475   18.6289   22.7182 C   0  0  0  0  0  0  0  0  0  0  0  0
   17.6865   18.1499   22.9503 H   0  0  0  0  0  0  0  0  0  0  0  0
   18.3636   19.4838   22.0965 H   0  0  0  0  0  0  0  0  0  0  0  0
   19.2615   19.1042   24.0686 C   0  0  0  0  0  0  0  0  0  0  0  0
   18.7759   20.0420   24.3685 H   0  0  0  0  0  0  0  0  0  0  0  0
   18.9758   18.3655   24.8288 H   0  0  0  0  0  0  0  0  0  0  0  0
   20.7989   19.2801   24.1540 C   0  0  0  0  0  0  0  0  0  0  0  0
   21.2646   18.3232   23.8964 H   0  0  0  0  0  0  0  0  0  0  0  0
   21.4276   20.4132   23.2930 C   0  0  0  0  0  0  0  0  0  0  0  0
   21.3746   21.3457   23.8709 H   0  0  0  0  0  0  0  0  0  0  0  0
   22.4976   20.2011   23.1727 H   0  0  0  0  0  0  0  0  0  0  0  0
   20.8132   20.7118   21.8986 C   0  0  0  0  0  0  0  0  0  0  0  0
   21.3168   21.6021   21.4980 H   0  0  0  0  0  0  0  0  0  0  0  0
   19.7761   21.0390   22.0230 H   0  0  0  0  0  0  0  0  0  0  0  0
   20.9169   19.6003   20.8135 C   0  0  0  0  0  0  0  0  0  0  0  0
   21.8854   19.7224   20.3096 H   0  0  0  0  0  0  0  0  0  0  0  0
   20.1596   19.7872   20.0402 H   0  0  0  0  0  0  0  0  0  0  0  0
   21.1205   19.5538   25.5128 O   0  0  0  0  0  0  0  0  0  0  0  0
   20.7780   18.8032   26.0413 H   0  0  0  0  0  0  0  0  0  0  0  0
  1  2  1  0  0  0  0
  1  3  1  0  0  0  0
  1  4  1  0  0  0  0
  4  5  1  0  0  0  0
  4  6  1  0  0  0  0
  4  7  1  0  0  0  0
  7  8  1  0  0  0  0
  7  9  1  0  0  0  0
  7 10  1  0  0  0  0
 10 11  1  0  0  0  0
 10 12  1  0  0  0  0
 10 13  1  0  0  0  0
 13 14  1  0  0  0  0
 13 15  1  0  0  0  0
 15 16  1  0  0  0  0
 15 17  1  0  0  0  0
 15 18  1  0  0  0  0
 18 19  1  0  0  0  0
 18 20  1  0  0  0  0
  1 21  1  0  0  0  0
 18 21  1  0  0  0  0
 21 22  1  0  0  0  0
 21 23  1  0  0  0  0
 13 24  1  0  0  0  0
 24 25  1  0  0  0  0
M  END
> <VConfSearch Rank>
833

> <Conf_Id>
161

> <Delta U+W>
2.120

> <U+W>
13.033

> <U>
15.076

> <W>
-2.043

> <W(PB)>
-4.186

> <W(SA)>
2.143

> <Valence>
18.884

> <Coulomb>
-8.074

> <VdW>
4.266

> <VdW6>
-13.486

> <VdW12>
17.752

> <Bond>
0.713

> <Angle>
8.955

> <Pdih>
9.215

> <Idih>
0.000

> <Tether>
0.000

$$$$
VeraChem MOL file


 25 25  0  0  0  0  0  0  0  0999 V2000     
   20.0874   20.6365   21.2903 C   0  0  0  0  0  0  0  0  0  0  0  0
   19.7249   21.4633   20.6641 H   0  0  0  0  0  0  0  0  0  0  0  0
   20.9715   20.2544   20.7642 H   0  0  0  0  0  0  0  0  0  0  0  0
   18.9854   19.5486   21.3312 C   0  0  0  0  0  0  0  0  0  0  0  0
   18.2615   19.7562   22.1305 H   0  0  0  0  0  0  0  0  0  0  0  0
   18.4171   19.6360   20.3950 H   0  0  0  0  0  0  0  0  0  0  0  0
   19.5033   18.0852   21.4077 C   0  0  0  0  0  0  0  0  0  0  0  0
   20.4127   17.9546   20.8059 H   0  0  0  0  0  0  0  0  0  0  0  0
   18.7435   17.4544   20.9260 H   0  0  0  0  0  0  0  0  0  0  0  0
   19.7059   17.5282   22.8406 C   0  0  0  0  0  0  0  0  0  0  0  0
   18.9493   17.9491   23.5140 H   0  0  0  0  0  0  0  0  0  0  0  0
   19.4924   16.4515   22.8130 H   0  0  0  0  0  0  0  0  0  0  0  0
   21.1271   17.6798   23.4398 C   0  0  0  0  0  0  0  0  0  0  0  0
   21.7971   16.9986   22.8959 H   0  0  0  0  0  0  0  0  0  0  0  0
   21.7531   19.0923   23.3779 C   0  0  0  0  0  0  0  0  0  0  0  0
   22.6371   19.1058   24.0292 H   0  0  0  0  0  0  0  0  0  0  0  0
   22.1529   19.2606   22.3721 H   0  0  0  0  0  0  0  0  0  0  0  0
   20.8044   20.2470   23.7974 C   0  0  0  0  0  0  0  0  0  0  0  0
   21.2688   20.8034   24.6230 H   0  0  0  0  0  0  0  0  0  0  0  0
   19.8663   19.8600   24.2113 H   0  0  0  0  0  0  0  0  0  0  0  0
   20.4875   21.2468   22.6596 C   0  0  0  0  0  0  0  0  0  0  0  0
   21.3624   21.8926   22.5036 H   0  0  0  0  0  0  0  0  0  0  0  0
   19.6824   21.9120   23.0006 H   0  0  0  0  0  0  0  0  0  0  0  0
   21.0737   17.2782   24.8015 O   0  0  0  0  0  0  0  0  0  0  0  0
   20.5853   17.9849   25.2703 H   0  0  0  0  0  0  0  0  0  0  0  0
  1  2  1  0  0  0  0
  1  3  1  0  0  0  0
  1  4  1  0  0  0  0
  4  5  1  0  0  0  0
  4  6  1  0  0  0  0
  4  7  1  0  0  0  0
  7  8  1  0  0  0  0
  7  9  1  0  0  0  0
  7 10  1  0  0  0  0
 10 11  1  0  0  0  0
 10 12  1  0  0  0  0
 10 13  1  0  0  0  0
 13 14  1  0  0  0  0
 13 15  1  0  0  0  0
 15 16  1  0  0  0  0
 15 17  1  0  0  0  0
 15 18  1  0  0  0  0
 18 19  1  0  0  0  0
 18 20  1  0  0  0  0
  1 21  1  0  0  0  0
 18 21  1  0  0  0  0
 21 22  1  0  0  0  0
 21 23  1  0  0  0  0
 13 24  1  0  0  0  0
 24 25  1  0  0  0  0
M  END
> <VConfSearch Rank>
834

> <Conf_Id>
164

> <Delta U+W>
0.008

> <U+W>
10.922

> <U>
12.433

> <W>
-1.511

> <W(PB)>
-3.669

> <W(SA)>
2.157

> <Valence>
19.007

> <Coulomb>
-9.373

> <VdW>
2.799

> <VdW6>
-12.597

> <VdW12>
15.396

> <Bond>
0.425

> <Angle>
4.784

> <Pdih>
13.799

> <Idih>
0.000

> <Tether>
0.000

$$$$
VeraChem MOL file


 25 25  0  0  0  0  0  0  0  0999 V2000     
   20.3941   17.4772   23.1782 C   0  0  0  0  0  0  0  0  0  0  0  0
   20.2752   17.4316   22.0897 H   0  0  0  0  0  0  0  0  0  0  0  0
   20.4426   16.4265   23.4950 H   0  0  0  0  0  0  0  0  0  0  0  0
   19.1351   18.0974   23.8339 C   0  0  0  0  0  0  0  0  0  0  0  0
   18.2801   17.4587   23.5734 H   0  0  0  0  0  0  0  0  0  0  0  0
   19.2283   18.0374   24.9268 H   0  0  0  0  0  0  0  0  0  0  0  0
   18.7767   19.5529   23.4390 C   0  0  0  0  0  0  0  0  0  0  0  0
   19.3568   20.2673   24.0342 H   0  0  0  0  0  0  0  0  0  0  0  0
   17.7350   19.7239   23.7433 H   0  0  0  0  0  0  0  0  0  0  0  0
   18.8994   19.8784   21.9264 C   0  0  0  0  0  0  0  0  0  0  0  0
   18.8011   18.9699   21.3201 H   0  0  0  0  0  0  0  0  0  0  0  0
   18.0369   20.5024   21.6562 H   0  0  0  0  0  0  0  0  0  0  0  0
   20.1715   20.6695   21.5309 C   0  0  0  0  0  0  0  0  0  0  0  0
   20.2295   21.5647   22.1664 H   0  0  0  0  0  0  0  0  0  0  0  0
   21.5191   19.9127   21.6390 C   0  0  0  0  0  0  0  0  0  0  0  0
   21.5071   19.0053   21.0231 H   0  0  0  0  0  0  0  0  0  0  0  0
   22.2860   20.5581   21.1899 H   0  0  0  0  0  0  0  0  0  0  0  0
   21.9752   19.5948   23.0880 C   0  0  0  0  0  0  0  0  0  0  0  0
   21.5197   20.2956   23.7968 H   0  0  0  0  0  0  0  0  0  0  0  0
   23.0533   19.7935   23.1597 H   0  0  0  0  0  0  0  0  0  0  0  0
   21.7488   18.1317   23.5471 C   0  0  0  0  0  0  0  0  0  0  0  0
   21.8964   18.0723   24.6340 H   0  0  0  0  0  0  0  0  0  0  0  0
   22.5432   17.5145   23.1056 H   0  0  0  0  0  0  0  0  0  0  0  0
   20.0179   21.0851   20.1808 O   0  0  0  0  0  0  0  0  0  0  0  0
   19.9696   20.2676   19.6440 H   0  0  0  0  0  0  0  0  0  0  0  0
  1  2  1  0  0  0  0
  1  3  1  0  0  0  0
  1  4  1  0  0  0  0
  4  5  1  0  0  0  0
  4  6  1  0  0  0  0
  4  7  1  0  0  0  0
  7  8  1  0  0  0  0
  7  9  1  0  0  0  0
  7 10  1  0  0  0  0
 10 11  1  0  0  0  0
 10 12  1  0  0  0  0
 10 13  1  0  0  0  0
 13 14  1  0  0  0  0
 13 15  1  0  0  0  0
 15 16  1  0  0  0  0
 15 17  1  0  0  0  0
 15 18  1  0  0  0  0
 18 19  1  0  0  0  0
 18 20  1  0  0  0  0
  1 21  1  0  0  0  0
 18 21  1  0  0  0  0
 21 22  1  0  0  0  0
 21 23  1  0  0  0  0
 13 24  1  0  0  0  0
 24 25  1  0  0  0  0
M  END
> <VConfSearch Rank>
835

> <Conf_Id>
15

> <Delta U+W>
-1.271

> <U+W>
9.643

> <U>
11.413

> <W>
-1.770

> <W(PB)>
-3.908

> <W(SA)>
2.138

> <Valence>
17.496

> <Coulomb>
-8.736

> <VdW>
2.653

> <VdW6>
-12.485

> <VdW12>
15.138

> <Bond>
0.414

> <Angle>
5.295

> <Pdih>
11.787

> <Idih>
0.000

> <Tether>
0.000

$$$$
VeraChem MOL file


 25 25  0  0  0  0  0  0  0  0999 V2000     
   20.4759   21.1261   22.4385 C   0  0  0  0  0  0  0  0  0  0  0  0
   20.7321   22.1746   22.2337 H   0  0  0  0  0  0  0  0  0  0  0  0
   19.8336   21.1638   23.3275 H   0  0  0  0  0  0  0  0  0  0  0  0
   19.6817   20.6059   21.2115 C   0  0  0  0  0  0  0  0  0  0  0  0
   18.7236   21.1419   21.1735 H   0  0  0  0  0  0  0  0  0  0  0  0
   20.2181   20.8881   20.2953 H   0  0  0  0  0  0  0  0  0  0  0  0
   19.4010   19.0848   21.1603 C   0  0  0  0  0  0  0  0  0  0  0  0
   20.3009   18.5569   20.8237 H   0  0  0  0  0  0  0  0  0  0  0  0
   18.6574   18.9017   20.3727 H   0  0  0  0  0  0  0  0  0  0  0  0
   18.8719   18.4925   22.4925 C   0  0  0  0  0  0  0  0  0  0  0  0
   18.6334   19.2882   23.2069 H   0  0  0  0  0  0  0  0  0  0  0  0
   17.9137   17.9947   22.2945 H   0  0  0  0  0  0  0  0  0  0  0  0
   19.8097   17.4536   23.1495 C   0  0  0  0  0  0  0  0  0  0  0  0
   19.7448   16.5278   22.5601 H   0  0  0  0  0  0  0  0  0  0  0  0
   21.3105   17.8332   23.2386 C   0  0  0  0  0  0  0  0  0  0  0  0
   21.7948   17.0787   23.8730 H   0  0  0  0  0  0  0  0  0  0  0  0
   21.7869   17.7124   22.2583 H   0  0  0  0  0  0  0  0  0  0  0  0
   21.6488   19.2336   23.8162 C   0  0  0  0  0  0  0  0  0  0  0  0
   22.6241   19.1433   24.3139 H   0  0  0  0  0  0  0  0  0  0  0  0
   20.9451   19.5161   24.6098 H   0  0  0  0  0  0  0  0  0  0  0  0
   21.7868   20.3685   22.7642 C   0  0  0  0  0  0  0  0  0  0  0  0
   22.2651   20.0030   21.8456 H   0  0  0  0  0  0  0  0  0  0  0  0
   22.4858   21.1061   23.1819 H   0  0  0  0  0  0  0  0  0  0  0  0
   19.3324   17.1927   24.4620 O   0  0  0  0  0  0  0  0  0  0  0  0
   19.4965   18.0101   24.9739 H   0  0  0  0  0  0  0  0  0  0  0  0
  1  2  1  0  0  0  0
  1  3  1  0  0  0  0
  1  4  1  0  0  0  0
  4  5  1  0  0  0  0
  4  6  1  0  0  0  0
  4  7  1  0  0  0  0
  7  8  1  0  0  0  0
  7  9  1  0  0  0  0
  7 10  1  0  0  0  0
 10 11  1  0  0  0  0
 10 12  1  0  0  0  0
 10 13  1  0  0  0  0
 13 14  1  0  0  0  0
 13 15  1  0  0  0  0
 15 16  1  0  0  0  0
 15 17  1  0  0  0  0
 15 18  1  0  0  0  0
 18 19  1  0  0  0  0
 18 20  1  0  0  0  0
  1 21  1  0  0  0  0
 18 21  1  0  0  0  0
 21 22  1  0  0  0  0
 21 23  1  0  0  0  0
 13 24  1  0  0  0  0
 24 25  1  0  0  0  0
M  END
> <VConfSearch Rank>
836

> <Conf_Id>
115

> <Delta U+W>
0.038

> <U+W>
10.952

> <U>
12.526

> <W>
-1.575

> <W(PB)>
-3.698

> <W(SA)>
2.123

> <Valence>
19.016

> <Coulomb>
-9.226

> <VdW>
2.737

> <VdW6>
-12.612

> <VdW12>
15.349

> <Bond>
0.421

> <Angle>
4.883

> <Pdih>
13.711

> <Idih>
0.000

> <Tether>
0.000

$$$$
VeraChem MOL file


 25 25  0  0  0  0  0  0  0  0999 V2000     
   19.9284   20.7843   24.0998 C   0  0  0  0  0  0  0  0  0  0  0  0
   19.5373   21.1583   25.0559 H   0  0  0  0  0  0  0  0  0  0  0  0
   20.5418   21.5999   23.6937 H   0  0  0  0  0  0  0  0  0  0  0  0
   18.7154   20.5220   23.1771 C   0  0  0  0  0  0  0  0  0  0  0  0
   18.0379   19.7935   23.6427 H   0  0  0  0  0  0  0  0  0  0  0  0
   18.1433   21.4577   23.1129 H   0  0  0  0  0  0  0  0  0  0  0  0
   19.0677   20.0798   21.7379 C   0  0  0  0  0  0  0  0  0  0  0  0
   19.9147   20.6651   21.3557 H   0  0  0  0  0  0  0  0  0  0  0  0
   18.2169   20.3449   21.0952 H   0  0  0  0  0  0  0  0  0  0  0  0
   19.3137   18.5552   21.5801 C   0  0  0  0  0  0  0  0  0  0  0  0
   18.9682   18.0021   22.4624 H   0  0  0  0  0  0  0  0  0  0  0  0
   18.6833   18.2060   20.7511 H   0  0  0  0  0  0  0  0  0  0  0  0
   20.7760   18.1741   21.2570 C   0  0  0  0  0  0  0  0  0  0  0  0
   21.2083   18.9447   20.6028 H   0  0  0  0  0  0  0  0  0  0  0  0
   21.6844   17.9986   22.4941 C   0  0  0  0  0  0  0  0  0  0  0  0
   21.3007   17.1889   23.1287 H   0  0  0  0  0  0  0  0  0  0  0  0
   22.6662   17.6594   22.1384 H   0  0  0  0  0  0  0  0  0  0  0  0
   21.9102   19.2760   23.3390 C   0  0  0  0  0  0  0  0  0  0  0  0
   22.0617   20.1454   22.6853 H   0  0  0  0  0  0  0  0  0  0  0  0
   22.8595   19.1482   23.8772 H   0  0  0  0  0  0  0  0  0  0  0  0
   20.8103   19.5490   24.3981 C   0  0  0  0  0  0  0  0  0  0  0  0
   21.3157   19.7327   25.3563 H   0  0  0  0  0  0  0  0  0  0  0  0
   20.1842   18.6626   24.5658 H   0  0  0  0  0  0  0  0  0  0  0  0
   20.7637   16.9358   20.5569 O   0  0  0  0  0  0  0  0  0  0  0  0
   21.6924   16.7384   20.3142 H   0  0  0  0  0  0  0  0  0  0  0  0
  1  2  1  0  0  0  0
  1  3  1  0  0  0  0
  1  4  1  0  0  0  0
  4  5  1  0  0  0  0
  4  6  1  0  0  0  0
  4  7  1  0  0  0  0
  7  8  1  0  0  0  0
  7  9  1  0  0  0  0
  7 10  1  0  0  0  0
 10 11  1  0  0  0  0
 10 12  1  0  0  0  0
 10 13  1  0  0  0  0
 13 14  1  0  0  0  0
 13 15  1  0  0  0  0
 15 16  1  0  0  0  0
 15 17  1  0  0  0  0
 15 18  1  0  0  0  0
 18 19  1  0  0  0  0
 18 20  1  0  0  0  0
  1 21  1  0  0  0  0
 18 21  1  0  0  0  0
 21 22  1  0  0  0  0
 21 23  1  0  0  0  0
 13 24  1  0  0  0  0
 24 25  1  0  0  0  0
M  END
> <VConfSearch Rank>
837

> <Conf_Id>
30

> <Delta U+W>
0.000

> <U+W>
10.913

> <U>
13.140

> <W>
-2.227

> <W(PB)>
-4.367

> <W(SA)>
2.140

> <Valence>
19.155

> <Coulomb>
-8.157

> <VdW>
2.142

> <VdW6>
-11.576

> <VdW12>
13.718

> <Bond>
0.294

> <Angle>
3.547

> <Pdih>
15.314

> <Idih>
0.000

> <Tether>
0.000

$$$$
VeraChem MOL file


 25 25  0  0  0  0  0  0  0  0999 V2000     
   22.3994   18.9986   22.9581 C   0  0  0  0  0  0  0  0  0  0  0  0
   23.2754   19.5890   22.6566 H   0  0  0  0  0  0  0  0  0  0  0  0
   22.8006   18.1064   23.4579 H   0  0  0  0  0  0  0  0  0  0  0  0
   21.6508   18.5436   21.6811 C   0  0  0  0  0  0  0  0  0  0  0  0
   22.3994   18.1968   20.9556 H   0  0  0  0  0  0  0  0  0  0  0  0
   21.0491   17.6549   21.9040 H   0  0  0  0  0  0  0  0  0  0  0  0
   20.7907   19.6474   21.0151 C   0  0  0  0  0  0  0  0  0  0  0  0
   21.1051   19.7560   19.9681 H   0  0  0  0  0  0  0  0  0  0  0  0
   20.9863   20.6260   21.4686 H   0  0  0  0  0  0  0  0  0  0  0  0
   19.2682   19.3587   21.0318 C   0  0  0  0  0  0  0  0  0  0  0  0
   18.7395   20.2677   20.7156 H   0  0  0  0  0  0  0  0  0  0  0  0
   19.0499   18.6017   20.2672 H   0  0  0  0  0  0  0  0  0  0  0  0
   18.6646   18.8627   22.3696 C   0  0  0  0  0  0  0  0  0  0  0  0
   19.0001   17.8342   22.5583 H   0  0  0  0  0  0  0  0  0  0  0  0
   19.0064   19.7293   23.6064 C   0  0  0  0  0  0  0  0  0  0  0  0
   19.1237   20.7808   23.3147 H   0  0  0  0  0  0  0  0  0  0  0  0
   18.1431   19.7112   24.2849 H   0  0  0  0  0  0  0  0  0  0  0  0
   20.2322   19.2422   24.4297 C   0  0  0  0  0  0  0  0  0  0  0  0
   20.2765   18.1454   24.4663 H   0  0  0  0  0  0  0  0  0  0  0  0
   20.0665   19.5618   25.4678 H   0  0  0  0  0  0  0  0  0  0  0  0
   21.5949   19.8329   23.9902 C   0  0  0  0  0  0  0  0  0  0  0  0
   22.2254   19.9281   24.8849 H   0  0  0  0  0  0  0  0  0  0  0  0
   21.4598   20.8620   23.6337 H   0  0  0  0  0  0  0  0  0  0  0  0
   17.2509   18.8438   22.2111 O   0  0  0  0  0  0  0  0  0  0  0  0
   16.8801   18.4543   23.0304 H   0  0  0  0  0  0  0  0  0  0  0  0
  1  2  1  0  0  0  0
  1  3  1  0  0  0  0
  1  4  1  0  0  0  0
  4  5  1  0  0  0  0
  4  6  1  0  0  0  0
  4  7  1  0  0  0  0
  7  8  1  0  0  0  0
  7  9  1  0  0  0  0
  7 10  1  0  0  0  0
 10 11  1  0  0  0  0
 10 12  1  0  0  0  0
 10 13  1  0  0  0  0
 13 14  1  0  0  0  0
 13 15  1  0  0  0  0
 15 16  1  0  0  0  0
 15 17  1  0  0  0  0
 15 18  1  0  0  0  0
 18 19  1  0  0  0  0
 18 20  1  0  0  0  0
  1 21  1  0  0  0  0
 18 21  1  0  0  0  0
 21 22  1  0  0  0  0
 21 23  1  0  0  0  0
 13 24  1  0  0  0  0
 24 25  1  0  0  0  0
M  END
> <VConfSearch Rank>
838

> <Conf_Id>
162

> <Delta U+W>
0.219

> <U+W>
11.132

> <U>
13.296

> <W>
-2.164

> <W(PB)>
-4.311

> <W(SA)>
2.148

> <Valence>
18.607

> <Coulomb>
-8.339

> <VdW>
3.028

> <VdW6>
-12.271

> <VdW12>
15.299

> <Bond>
0.423

> <Angle>
4.488

> <Pdih>
13.696

> <Idih>
0.000

> <Tether>
0.000

$$$$
VeraChem MOL file


 25 25  0  0  0  0  0  0  0  0999 V2000     
   20.7143   18.9828   20.7179 C   0  0  0  0  0  0  0  0  0  0  0  0
   21.0968   20.0112   20.7046 H   0  0  0  0  0  0  0  0  0  0  0  0
   20.8664   18.6146   19.6941 H   0  0  0  0  0  0  0  0  0  0  0  0
   21.5708   18.1125   21.6711 C   0  0  0  0  0  0  0  0  0  0  0  0
   21.0217   17.2113   21.9753 H   0  0  0  0  0  0  0  0  0  0  0  0
   22.4267   17.7478   21.0866 H   0  0  0  0  0  0  0  0  0  0  0  0
   22.1531   18.8581   22.9043 C   0  0  0  0  0  0  0  0  0  0  0  0
   22.4482   19.8837   22.6450 H   0  0  0  0  0  0  0  0  0  0  0  0
   23.0875   18.3462   23.1723 H   0  0  0  0  0  0  0  0  0  0  0  0
   21.2560   18.8453   24.1693 C   0  0  0  0  0  0  0  0  0  0  0  0
   20.6986   17.9022   24.2233 H   0  0  0  0  0  0  0  0  0  0  0  0
   21.9149   18.8348   25.0474 H   0  0  0  0  0  0  0  0  0  0  0  0
   20.3018   20.0531   24.3484 C   0  0  0  0  0  0  0  0  0  0  0  0
   20.9146   20.9331   24.5916 H   0  0  0  0  0  0  0  0  0  0  0  0
   19.4293   20.4241   23.1256 C   0  0  0  0  0  0  0  0  0  0  0  0
   18.6635   21.1416   23.4475 H   0  0  0  0  0  0  0  0  0  0  0  0
   20.0410   20.9819   22.4085 H   0  0  0  0  0  0  0  0  0  0  0  0
   18.7288   19.2222   22.4385 C   0  0  0  0  0  0  0  0  0  0  0  0
   17.6450   19.4005   22.4339 H   0  0  0  0  0  0  0  0  0  0  0  0
   18.8581   18.3055   23.0260 H   0  0  0  0  0  0  0  0  0  0  0  0
   19.1849   18.9715   20.9808 C   0  0  0  0  0  0  0  0  0  0  0  0
   18.7214   19.7270   20.3319 H   0  0  0  0  0  0  0  0  0  0  0  0
   18.7757   18.0058   20.6542 H   0  0  0  0  0  0  0  0  0  0  0  0
   19.4442   19.7701   25.4478 O   0  0  0  0  0  0  0  0  0  0  0  0
   18.8475   20.5405   25.5452 H   0  0  0  0  0  0  0  0  0  0  0  0
  1  2  1  0  0  0  0
  1  3  1  0  0  0  0
  1  4  1  0  0  0  0
  4  5  1  0  0  0  0
  4  6  1  0  0  0  0
  4  7  1  0  0  0  0
  7  8  1  0  0  0  0
  7  9  1  0  0  0  0
  7 10  1  0  0  0  0
 10 11  1  0  0  0  0
 10 12  1  0  0  0  0
 10 13  1  0  0  0  0
 13 14  1  0  0  0  0
 13 15  1  0  0  0  0
 15 16  1  0  0  0  0
 15 17  1  0  0  0  0
 15 18  1  0  0  0  0
 18 19  1  0  0  0  0
 18 20  1  0  0  0  0
  1 21  1  0  0  0  0
 18 21  1  0  0  0  0
 21 22  1  0  0  0  0
 21 23  1  0  0  0  0
 13 24  1  0  0  0  0
 24 25  1  0  0  0  0
M  END
> <VConfSearch Rank>
839

> <Conf_Id>
155

> <Delta U+W>
0.339

> <U+W>
11.252

> <U>
13.420

> <W>
-2.167

> <W(PB)>
-4.325

> <W(SA)>
2.157

> <Valence>
18.609

> <Coulomb>
-8.052

> <VdW>
2.863

> <VdW6>
-12.524

> <VdW12>
15.387

> <Bond>
0.430

> <Angle>
4.724

> <Pdih>
13.455

> <Idih>
0.000

> <Tether>
0.000

$$$$
VeraChem MOL file


 25 25  0  0  0  0  0  0  0  0999 V2000     
   22.1874   19.7031   23.3276 C   0  0  0  0  0  0  0  0  0  0  0  0
   22.8379   18.8423   23.5329 H   0  0  0  0  0  0  0  0  0  0  0  0
   22.7983   20.5897   23.5456 H   0  0  0  0  0  0  0  0  0  0  0  0
   21.8575   19.7445   21.8122 C   0  0  0  0  0  0  0  0  0  0  0  0
   21.3080   20.6639   21.5869 H   0  0  0  0  0  0  0  0  0  0  0  0
   22.8043   19.8717   21.2699 H   0  0  0  0  0  0  0  0  0  0  0  0
   21.1413   18.5067   21.1973 C   0  0  0  0  0  0  0  0  0  0  0  0
   21.9184   17.7829   20.9163 H   0  0  0  0  0  0  0  0  0  0  0  0
   20.6625   18.8044   20.2545 H   0  0  0  0  0  0  0  0  0  0  0  0
   20.1090   17.7466   22.0740 C   0  0  0  0  0  0  0  0  0  0  0  0
   19.8231   16.8370   21.5297 H   0  0  0  0  0  0  0  0  0  0  0  0
   20.6112   17.3562   22.9634 H   0  0  0  0  0  0  0  0  0  0  0  0
   18.8022   18.4922   22.4750 C   0  0  0  0  0  0  0  0  0  0  0  0
   18.4109   18.0160   23.3855 H   0  0  0  0  0  0  0  0  0  0  0  0
   18.8944   20.0164   22.7371 C   0  0  0  0  0  0  0  0  0  0  0  0
   19.2224   20.5171   21.8216 H   0  0  0  0  0  0  0  0  0  0  0  0
   17.8717   20.3884   22.8833 H   0  0  0  0  0  0  0  0  0  0  0  0
   19.7308   20.4960   23.9614 C   0  0  0  0  0  0  0  0  0  0  0  0
   19.0694   20.4789   24.8384 H   0  0  0  0  0  0  0  0  0  0  0  0
   19.9981   21.5515   23.8172 H   0  0  0  0  0  0  0  0  0  0  0  0
   21.0040   19.6942   24.3392 C   0  0  0  0  0  0  0  0  0  0  0  0
   20.7234   18.6692   24.6014 H   0  0  0  0  0  0  0  0  0  0  0  0
   21.3854   20.1046   25.2842 H   0  0  0  0  0  0  0  0  0  0  0  0
   17.8565   18.3089   21.4271 O   0  0  0  0  0  0  0  0  0  0  0  0
   17.7609   17.3427   21.2980 H   0  0  0  0  0  0  0  0  0  0  0  0
  1  2  1  0  0  0  0
  1  3  1  0  0  0  0
  1  4  1  0  0  0  0
  4  5  1  0  0  0  0
  4  6  1  0  0  0  0
  4  7  1  0  0  0  0
  7  8  1  0  0  0  0
  7  9  1  0  0  0  0
  7 10  1  0  0  0  0
 10 11  1  0  0  0  0
 10 12  1  0  0  0  0
 10 13  1  0  0  0  0
 13 14  1  0  0  0  0
 13 15  1  0  0  0  0
 15 16  1  0  0  0  0
 15 17  1  0  0  0  0
 15 18  1  0  0  0  0
 18 19  1  0  0  0  0
 18 20  1  0  0  0  0
  1 21  1  0  0  0  0
 18 21  1  0  0  0  0
 21 22  1  0  0  0  0
 21 23  1  0  0  0  0
 13 24  1  0  0  0  0
 24 25  1  0  0  0  0
M  END
> <VConfSearch Rank>
840

> <Conf_Id>
146

> <Delta U+W>
2.553

> <U+W>
13.466

> <U>
15.643

> <W>
-2.176

> <W(PB)>
-4.307

> <W(SA)>
2.131

> <Valence>
18.916

> <Coulomb>
-7.506

> <VdW>
4.232

> <VdW6>
-13.632

> <VdW12>
17.864

> <Bond>
0.735

> <Angle>
9.140

> <Pdih>
9.042

> <Idih>
0.000

> <Tether>
0.000

$$$$
VeraChem MOL file


 25 25  0  0  0  0  0  0  0  0999 V2000     
   20.0081   17.8318   21.1841 C   0  0  0  0  0  0  0  0  0  0  0  0
   19.8443   16.7690   21.4080 H   0  0  0  0  0  0  0  0  0  0  0  0
   19.9678   17.9133   20.0893 H   0  0  0  0  0  0  0  0  0  0  0  0
   21.4380   18.2328   21.6253 C   0  0  0  0  0  0  0  0  0  0  0  0
   22.1415   17.6139   21.0518 H   0  0  0  0  0  0  0  0  0  0  0  0
   21.6586   19.2604   21.3147 H   0  0  0  0  0  0  0  0  0  0  0  0
   21.7698   18.0351   23.1257 C   0  0  0  0  0  0  0  0  0  0  0  0
   22.8393   18.2479   23.2587 H   0  0  0  0  0  0  0  0  0  0  0  0
   21.6418   16.9765   23.3896 H   0  0  0  0  0  0  0  0  0  0  0  0
   20.9833   18.9055   24.1403 C   0  0  0  0  0  0  0  0  0  0  0  0
   20.0035   18.4617   24.3430 H   0  0  0  0  0  0  0  0  0  0  0  0
   21.5158   18.8440   25.0991 H   0  0  0  0  0  0  0  0  0  0  0  0
   20.8242   20.3962   23.7444 C   0  0  0  0  0  0  0  0  0  0  0  0
   21.5863   20.6628   22.9999 H   0  0  0  0  0  0  0  0  0  0  0  0
   19.4212   20.7600   23.1957 C   0  0  0  0  0  0  0  0  0  0  0  0
   18.6593   20.4620   23.9280 H   0  0  0  0  0  0  0  0  0  0  0  0
   19.3566   21.8539   23.1289 H   0  0  0  0  0  0  0  0  0  0  0  0
   19.0433   20.1897   21.8015 C   0  0  0  0  0  0  0  0  0  0  0  0
   19.7691   20.5060   21.0412 H   0  0  0  0  0  0  0  0  0  0  0  0
   18.0964   20.6630   21.5078 H   0  0  0  0  0  0  0  0  0  0  0  0
   18.8280   18.6546   21.7627 C   0  0  0  0  0  0  0  0  0  0  0  0
   17.9519   18.4485   21.1326 H   0  0  0  0  0  0  0  0  0  0  0  0
   18.5450   18.2804   22.7530 H   0  0  0  0  0  0  0  0  0  0  0  0
   21.0422   21.1879   24.9067 O   0  0  0  0  0  0  0  0  0  0  0  0
   20.9958   22.1250   24.6240 H   0  0  0  0  0  0  0  0  0  0  0  0
  1  2  1  0  0  0  0
  1  3  1  0  0  0  0
  1  4  1  0  0  0  0
  4  5  1  0  0  0  0
  4  6  1  0  0  0  0
  4  7  1  0  0  0  0
  7  8  1  0  0  0  0
  7  9  1  0  0  0  0
  7 10  1  0  0  0  0
 10 11  1  0  0  0  0
 10 12  1  0  0  0  0
 10 13  1  0  0  0  0
 13 14  1  0  0  0  0
 13 15  1  0  0  0  0
 15 16  1  0  0  0  0
 15 17  1  0  0  0  0
 15 18  1  0  0  0  0
 18 19  1  0  0  0  0
 18 20  1  0  0  0  0
  1 21  1  0  0  0  0
 18 21  1  0  0  0  0
 21 22  1  0  0  0  0
 21 23  1  0  0  0  0
 13 24  1  0  0  0  0
 24 25  1  0  0  0  0
M  END
> <VConfSearch Rank>
841

> <Conf_Id>
62

> <Delta U+W>
-1.779

> <U+W>
9.134

> <U>
11.364

> <W>
-2.230

> <W(PB)>
-4.359

> <W(SA)>
2.129

> <Valence>
16.582

> <Coulomb>
-8.150

> <VdW>
2.933

> <VdW6>
-12.531

> <VdW12>
15.464

> <Bond>
0.439

> <Angle>
5.099

> <Pdih>
11.044

> <Idih>
0.000

> <Tether>
0.000

$$$$
VeraChem MOL file


 25 25  0  0  0  0  0  0  0  0999 V2000     
   21.0364   18.8963   20.9534 C   0  0  0  0  0  0  0  0  0  0  0  0
   20.0280   19.2902   20.7828 H   0  0  0  0  0  0  0  0  0  0  0  0
   21.4300   18.6989   19.9470 H   0  0  0  0  0  0  0  0  0  0  0  0
   20.9675   17.5381   21.6950 C   0  0  0  0  0  0  0  0  0  0  0  0
   20.3929   16.8471   21.0632 H   0  0  0  0  0  0  0  0  0  0  0  0
   21.9767   17.1096   21.7620 H   0  0  0  0  0  0  0  0  0  0  0  0
   20.3253   17.5352   23.1058 C   0  0  0  0  0  0  0  0  0  0  0  0
   21.0580   17.8374   23.8627 H   0  0  0  0  0  0  0  0  0  0  0  0
   20.0908   16.4906   23.3525 H   0  0  0  0  0  0  0  0  0  0  0  0
   19.0238   18.3698   23.2437 C   0  0  0  0  0  0  0  0  0  0  0  0
   18.5262   18.4880   22.2732 H   0  0  0  0  0  0  0  0  0  0  0  0
   18.3265   17.7840   23.8568 H   0  0  0  0  0  0  0  0  0  0  0  0
   19.2011   19.7458   23.9339 C   0  0  0  0  0  0  0  0  0  0  0  0
   19.7086   19.5859   24.8962 H   0  0  0  0  0  0  0  0  0  0  0  0
   19.9950   20.8157   23.1433 C   0  0  0  0  0  0  0  0  0  0  0  0
   19.5230   21.0045   22.1715 H   0  0  0  0  0  0  0  0  0  0  0  0
   19.9000   21.7588   23.6978 H   0  0  0  0  0  0  0  0  0  0  0  0
   21.5110   20.5229   22.9834 C   0  0  0  0  0  0  0  0  0  0  0  0
   21.8600   19.8575   23.7811 H   0  0  0  0  0  0  0  0  0  0  0  0
   22.0602   21.4601   23.1476 H   0  0  0  0  0  0  0  0  0  0  0  0
   21.9379   19.9800   21.5956 C   0  0  0  0  0  0  0  0  0  0  0  0
   22.9676   19.6033   21.6615 H   0  0  0  0  0  0  0  0  0  0  0  0
   21.9765   20.8297   20.9004 H   0  0  0  0  0  0  0  0  0  0  0  0
   17.9044   20.2735   24.1838 O   0  0  0  0  0  0  0  0  0  0  0  0
   17.4349   19.6188   24.7417 H   0  0  0  0  0  0  0  0  0  0  0  0
  1  2  1  0  0  0  0
  1  3  1  0  0  0  0
  1  4  1  0  0  0  0
  4  5  1  0  0  0  0
  4  6  1  0  0  0  0
  4  7  1  0  0  0  0
  7  8  1  0  0  0  0
  7  9  1  0  0  0  0
  7 10  1  0  0  0  0
 10 11  1  0  0  0  0
 10 12  1  0  0  0  0
 10 13  1  0  0  0  0
 13 14  1  0  0  0  0
 13 15  1  0  0  0  0
 15 16  1  0  0  0  0
 15 17  1  0  0  0  0
 15 18  1  0  0  0  0
 18 19  1  0  0  0  0
 18 20  1  0  0  0  0
  1 21  1  0  0  0  0
 18 21  1  0  0  0  0
 21 22  1  0  0  0  0
 21 23  1  0  0  0  0
 13 24  1  0  0  0  0
 24 25  1  0  0  0  0
M  END
> <VConfSearch Rank>
842

> <Conf_Id>
121

> <Delta U+W>
-1.283

> <U+W>
9.630

> <U>
11.876

> <W>
-2.246

> <W(PB)>
-4.376

> <W(SA)>
2.130

> <Valence>
17.153

> <Coulomb>
-7.966

> <VdW>
2.689

> <VdW6>
-12.458

> <VdW12>
15.147

> <Bond>
0.421

> <Angle>
5.258

> <Pdih>
11.475

> <Idih>
0.000

> <Tether>
0.000

$$$$
VeraChem MOL file


 25 25  0  0  0  0  0  0  0  0999 V2000     
   21.9981   18.6563   22.0478 C   0  0  0  0  0  0  0  0  0  0  0  0
   21.5390   17.7666   22.4938 H   0  0  0  0  0  0  0  0  0  0  0  0
   22.9650   18.3050   21.6627 H   0  0  0  0  0  0  0  0  0  0  0  0
   22.2946   19.7154   23.1388 C   0  0  0  0  0  0  0  0  0  0  0  0
   22.9824   19.2576   23.8628 H   0  0  0  0  0  0  0  0  0  0  0  0
   22.8480   20.5522   22.6915 H   0  0  0  0  0  0  0  0  0  0  0  0
   21.0833   20.2769   23.9263 C   0  0  0  0  0  0  0  0  0  0  0  0
   20.6027   21.0876   23.3671 H   0  0  0  0  0  0  0  0  0  0  0  0
   21.4804   20.7631   24.8279 H   0  0  0  0  0  0  0  0  0  0  0  0
   20.0326   19.2228   24.3675 C   0  0  0  0  0  0  0  0  0  0  0  0
   20.4798   18.2241   24.4408 H   0  0  0  0  0  0  0  0  0  0  0  0
   19.7237   19.4761   25.3903 H   0  0  0  0  0  0  0  0  0  0  0  0
   18.7461   19.1799   23.5054 C   0  0  0  0  0  0  0  0  0  0  0  0
   18.3341   20.1981   23.4559 H   0  0  0  0  0  0  0  0  0  0  0  0
   18.9041   18.6488   22.0582 C   0  0  0  0  0  0  0  0  0  0  0  0
   19.3213   17.6344   22.0645 H   0  0  0  0  0  0  0  0  0  0  0  0
   17.8958   18.5442   21.6366 H   0  0  0  0  0  0  0  0  0  0  0  0
   19.7052   19.5762   21.1055 C   0  0  0  0  0  0  0  0  0  0  0  0
   19.6716   20.6127   21.4596 H   0  0  0  0  0  0  0  0  0  0  0  0
   19.1890   19.6005   20.1360 H   0  0  0  0  0  0  0  0  0  0  0  0
   21.1679   19.1412   20.8332 C   0  0  0  0  0  0  0  0  0  0  0  0
   21.6982   19.9652   20.3369 H   0  0  0  0  0  0  0  0  0  0  0  0
   21.1437   18.3209   20.1028 H   0  0  0  0  0  0  0  0  0  0  0  0
   17.8117   18.3412   24.1732 O   0  0  0  0  0  0  0  0  0  0  0  0
   16.9803   18.3756   23.6559 H   0  0  0  0  0  0  0  0  0  0  0  0
  1  2  1  0  0  0  0
  1  3  1  0  0  0  0
  1  4  1  0  0  0  0
  4  5  1  0  0  0  0
  4  6  1  0  0  0  0
  4  7  1  0  0  0  0
  7  8  1  0  0  0  0
  7  9  1  0  0  0  0
  7 10  1  0  0  0  0
 10 11  1  0  0  0  0
 10 12  1  0  0  0  0
 10 13  1  0  0  0  0
 13 14  1  0  0  0  0
 13 15  1  0  0  0  0
 15 16  1  0  0  0  0
 15 17  1  0  0  0  0
 15 18  1  0  0  0  0
 18 19  1  0  0  0  0
 18 20  1  0  0  0  0
  1 21  1  0  0  0  0
 18 21  1  0  0  0  0
 21 22  1  0  0  0  0
 21 23  1  0  0  0  0
 13 24  1  0  0  0  0
 24 25  1  0  0  0  0
M  END
> <VConfSearch Rank>
843

> <Conf_Id>
24

> <Delta U+W>
-1.236

> <U+W>
9.678

> <U>
11.876

> <W>
-2.199

> <W(PB)>
-4.335

> <W(SA)>
2.137

> <Valence>
17.153

> <Coulomb>
-7.966

> <VdW>
2.689

> <VdW6>
-12.458

> <VdW12>
15.147

> <Bond>
0.421

> <Angle>
5.258

> <Pdih>
11.475

> <Idih>
0.000

> <Tether>
0.000

$$$$
VeraChem MOL file


 25 25  0  0  0  0  0  0  0  0999 V2000     
   21.7678   18.8076   24.1300 C   0  0  0  0  0  0  0  0  0  0  0  0
   22.0785   17.7949   24.4209 H   0  0  0  0  0  0  0  0  0  0  0  0
   22.3267   19.4896   24.7853 H   0  0  0  0  0  0  0  0  0  0  0  0
   22.2204   19.0712   22.6692 C   0  0  0  0  0  0  0  0  0  0  0  0
   22.2276   20.1474   22.4551 H   0  0  0  0  0  0  0  0  0  0  0  0
   23.2737   18.7660   22.6011 H   0  0  0  0  0  0  0  0  0  0  0  0
   21.4346   18.3177   21.5677 C   0  0  0  0  0  0  0  0  0  0  0  0
   21.1240   17.3248   21.9200 H   0  0  0  0  0  0  0  0  0  0  0  0
   22.1395   18.1277   20.7466 H   0  0  0  0  0  0  0  0  0  0  0  0
   20.2351   19.0989   20.9604 C   0  0  0  0  0  0  0  0  0  0  0  0
   20.4645   20.1694   20.8845 H   0  0  0  0  0  0  0  0  0  0  0  0
   20.1242   18.7474   19.9255 H   0  0  0  0  0  0  0  0  0  0  0  0
   18.8817   18.8829   21.6807 C   0  0  0  0  0  0  0  0  0  0  0  0
   18.8847   17.8841   22.1367 H   0  0  0  0  0  0  0  0  0  0  0  0
   18.5281   19.9375   22.7599 C   0  0  0  0  0  0  0  0  0  0  0  0
   18.2666   20.8853   22.2712 H   0  0  0  0  0  0  0  0  0  0  0  0
   17.6162   19.5989   23.2692 H   0  0  0  0  0  0  0  0  0  0  0  0
   19.6067   20.2286   23.8334 C   0  0  0  0  0  0  0  0  0  0  0  0
   19.1352   20.8016   24.6434 H   0  0  0  0  0  0  0  0  0  0  0  0
   20.3668   20.9020   23.4207 H   0  0  0  0  0  0  0  0  0  0  0  0
   20.2576   18.9583   24.4368 C   0  0  0  0  0  0  0  0  0  0  0  0
   19.7256   18.0535   24.1204 H   0  0  0  0  0  0  0  0  0  0  0  0
   20.1347   18.9854   25.5281 H   0  0  0  0  0  0  0  0  0  0  0  0
   17.8467   18.9139   20.7063 O   0  0  0  0  0  0  0  0  0  0  0  0
   17.8758   19.8042   20.2994 H   0  0  0  0  0  0  0  0  0  0  0  0
  1  2  1  0  0  0  0
  1  3  1  0  0  0  0
  1  4  1  0  0  0  0
  4  5  1  0  0  0  0
  4  6  1  0  0  0  0
  4  7  1  0  0  0  0
  7  8  1  0  0  0  0
  7  9  1  0  0  0  0
  7 10  1  0  0  0  0
 10 11  1  0  0  0  0
 10 12  1  0  0  0  0
 10 13  1  0  0  0  0
 13 14  1  0  0  0  0
 13 15  1  0  0  0  0
 15 16  1  0  0  0  0
 15 17  1  0  0  0  0
 15 18  1  0  0  0  0
 18 19  1  0  0  0  0
 18 20  1  0  0  0  0
  1 21  1  0  0  0  0
 18 21  1  0  0  0  0
 21 22  1  0  0  0  0
 21 23  1  0  0  0  0
 13 24  1  0  0  0  0
 24 25  1  0  0  0  0
M  END
> <VConfSearch Rank>
844

> <Conf_Id>
167

> <Delta U+W>
0.388

> <U+W>
11.301

> <U>
13.202

> <W>
-1.901

> <W(PB)>
-4.065

> <W(SA)>
2.163

> <Valence>
18.957

> <Coulomb>
-8.753

> <VdW>
2.998

> <VdW6>
-12.294

> <VdW12>
15.292

> <Bond>
0.419

> <Angle>
4.543

> <Pdih>
13.996

> <Idih>
0.000

> <Tether>
0.000

$$$$
VeraChem MOL file


 25 25  0  0  0  0  0  0  0  0999 V2000     
   20.4343   21.2230   23.2010 C   0  0  0  0  0  0  0  0  0  0  0  0
   19.7018   21.6761   23.8827 H   0  0  0  0  0  0  0  0  0  0  0  0
   21.1537   22.0198   22.9677 H   0  0  0  0  0  0  0  0  0  0  0  0
   19.7182   20.8331   21.8818 C   0  0  0  0  0  0  0  0  0  0  0  0
   18.7325   20.4019   22.0898 H   0  0  0  0  0  0  0  0  0  0  0  0
   19.4994   21.7671   21.3462 H   0  0  0  0  0  0  0  0  0  0  0  0
   20.5260   19.9113   20.9318 C   0  0  0  0  0  0  0  0  0  0  0  0
   21.6054   20.0247   21.0953 H   0  0  0  0  0  0  0  0  0  0  0  0
   20.3531   20.2623   19.9052 H   0  0  0  0  0  0  0  0  0  0  0  0
   20.1170   18.4135   20.9729 C   0  0  0  0  0  0  0  0  0  0  0  0
   19.0426   18.3227   20.7665 H   0  0  0  0  0  0  0  0  0  0  0  0
   20.6224   17.9102   20.1380 H   0  0  0  0  0  0  0  0  0  0  0  0
   20.4554   17.6312   22.2663 C   0  0  0  0  0  0  0  0  0  0  0  0
   21.5242   17.7504   22.4890 H   0  0  0  0  0  0  0  0  0  0  0  0
   19.6124   18.0503   23.4986 C   0  0  0  0  0  0  0  0  0  0  0  0
   18.6840   18.5308   23.1738 H   0  0  0  0  0  0  0  0  0  0  0  0
   19.2800   17.1529   24.0373 H   0  0  0  0  0  0  0  0  0  0  0  0
   20.3514   18.9503   24.5226 C   0  0  0  0  0  0  0  0  0  0  0  0
   21.0169   18.3094   25.1169 H   0  0  0  0  0  0  0  0  0  0  0  0
   19.6190   19.3582   25.2323 H   0  0  0  0  0  0  0  0  0  0  0  0
   21.2071   20.1077   23.9490 C   0  0  0  0  0  0  0  0  0  0  0  0
   22.0136   19.7153   23.3191 H   0  0  0  0  0  0  0  0  0  0  0  0
   21.7236   20.5809   24.7953 H   0  0  0  0  0  0  0  0  0  0  0  0
   20.2081   16.2546   22.0053 O   0  0  0  0  0  0  0  0  0  0  0  0
   20.4902   15.7623   22.8044 H   0  0  0  0  0  0  0  0  0  0  0  0
  1  2  1  0  0  0  0
  1  3  1  0  0  0  0
  1  4  1  0  0  0  0
  4  5  1  0  0  0  0
  4  6  1  0  0  0  0
  4  7  1  0  0  0  0
  7  8  1  0  0  0  0
  7  9  1  0  0  0  0
  7 10  1  0  0  0  0
 10 11  1  0  0  0  0
 10 12  1  0  0  0  0
 10 13  1  0  0  0  0
 13 14  1  0  0  0  0
 13 15  1  0  0  0  0
 15 16  1  0  0  0  0
 15 17  1  0  0  0  0
 15 18  1  0  0  0  0
 18 19  1  0  0  0  0
 18 20  1  0  0  0  0
  1 21  1  0  0  0  0
 18 21  1  0  0  0  0
 21 22  1  0  0  0  0
 21 23  1  0  0  0  0
 13 24  1  0  0  0  0
 24 25  1  0  0  0  0
M  END
> <VConfSearch Rank>
845

> <Conf_Id>
60

> <Delta U+W>
-1.838

> <U+W>
9.075

> <U>
11.150

> <W>
-2.074

> <W(PB)>
-4.196

> <W(SA)>
2.121

> <Valence>
16.582

> <Coulomb>
-8.361

> <VdW>
2.928

> <VdW6>
-12.539

> <VdW12>
15.467

> <Bond>
0.441

> <Angle>
5.093

> <Pdih>
11.049

> <Idih>
0.000

> <Tether>
0.000

$$$$
VeraChem MOL file


 25 25  0  0  0  0  0  0  0  0999 V2000     
   21.7239   18.0089   23.6056 C   0  0  0  0  0  0  0  0  0  0  0  0
   21.6419   16.9135   23.6076 H   0  0  0  0  0  0  0  0  0  0  0  0
   22.6193   18.2395   24.1989 H   0  0  0  0  0  0  0  0  0  0  0  0
   20.5078   18.6139   24.3510 C   0  0  0  0  0  0  0  0  0  0  0  0
   20.5373   18.2364   25.3822 H   0  0  0  0  0  0  0  0  0  0  0  0
   20.6244   19.6990   24.4518 H   0  0  0  0  0  0  0  0  0  0  0  0
   19.1118   18.2671   23.7750 C   0  0  0  0  0  0  0  0  0  0  0  0
   18.3590   18.6650   24.4691 H   0  0  0  0  0  0  0  0  0  0  0  0
   18.9771   17.1770   23.7826 H   0  0  0  0  0  0  0  0  0  0  0  0
   18.7846   18.8046   22.3576 C   0  0  0  0  0  0  0  0  0  0  0  0
   19.2237   18.1529   21.5956 H   0  0  0  0  0  0  0  0  0  0  0  0
   17.7010   18.6991   22.2139 H   0  0  0  0  0  0  0  0  0  0  0  0
   19.1992   20.2770   22.1034 C   0  0  0  0  0  0  0  0  0  0  0  0
   19.3375   20.7952   23.0618 H   0  0  0  0  0  0  0  0  0  0  0  0
   20.4839   20.4344   21.2524 C   0  0  0  0  0  0  0  0  0  0  0  0
   20.3601   19.8896   20.3074 H   0  0  0  0  0  0  0  0  0  0  0  0
   20.5710   21.4931   20.9744 H   0  0  0  0  0  0  0  0  0  0  0  0
   21.8225   20.0148   21.9188 C   0  0  0  0  0  0  0  0  0  0  0  0
   21.9886   20.5771   22.8467 H   0  0  0  0  0  0  0  0  0  0  0  0
   22.6293   20.3312   21.2436 H   0  0  0  0  0  0  0  0  0  0  0  0
   21.9829   18.4904   22.1543 C   0  0  0  0  0  0  0  0  0  0  0  0
   23.0158   18.2133   21.9028 H   0  0  0  0  0  0  0  0  0  0  0  0
   21.3692   17.9249   21.4441 H   0  0  0  0  0  0  0  0  0  0  0  0
   18.1438   20.9215   21.3998 O   0  0  0  0  0  0  0  0  0  0  0  0
   17.3531   20.8767   21.9772 H   0  0  0  0  0  0  0  0  0  0  0  0
  1  2  1  0  0  0  0
  1  3  1  0  0  0  0
  1  4  1  0  0  0  0
  4  5  1  0  0  0  0
  4  6  1  0  0  0  0
  4  7  1  0  0  0  0
  7  8  1  0  0  0  0
  7  9  1  0  0  0  0
  7 10  1  0  0  0  0
 10 11  1  0  0  0  0
 10 12  1  0  0  0  0
 10 13  1  0  0  0  0
 13 14  1  0  0  0  0
 13 15  1  0  0  0  0
 15 16  1  0  0  0  0
 15 17  1  0  0  0  0
 15 18  1  0  0  0  0
 18 19  1  0  0  0  0
 18 20  1  0  0  0  0
  1 21  1  0  0  0  0
 18 21  1  0  0  0  0
 21 22  1  0  0  0  0
 21 23  1  0  0  0  0
 13 24  1  0  0  0  0
 24 25  1  0  0  0  0
M  END
> <VConfSearch Rank>
846

> <Conf_Id>
129

> <Delta U+W>
-1.846

> <U+W>
9.067

> <U>
11.150

> <W>
-2.083

> <W(PB)>
-4.217

> <W(SA)>
2.134

> <Valence>
16.583

> <Coulomb>
-8.361

> <VdW>
2.928

> <VdW6>
-12.539

> <VdW12>
15.467

> <Bond>
0.441

> <Angle>
5.093

> <Pdih>
11.049

> <Idih>
0.000

> <Tether>
0.000

$$$$
VeraChem MOL file


 25 25  0  0  0  0  0  0  0  0999 V2000     
   18.2912   19.5092   22.1227 C   0  0  0  0  0  0  0  0  0  0  0  0
   17.6208   18.6564   21.9497 H   0  0  0  0  0  0  0  0  0  0  0  0
   17.6766   20.4058   21.9638 H   0  0  0  0  0  0  0  0  0  0  0  0
   19.4024   19.5135   21.0431 C   0  0  0  0  0  0  0  0  0  0  0  0
   18.9081   19.6160   20.0674 H   0  0  0  0  0  0  0  0  0  0  0  0
   20.0198   20.4143   21.1349 H   0  0  0  0  0  0  0  0  0  0  0  0
   20.2936   18.2480   20.9757 C   0  0  0  0  0  0  0  0  0  0  0  0
   20.9468   18.3504   20.0982 H   0  0  0  0  0  0  0  0  0  0  0  0
   19.6636   17.3704   20.7770 H   0  0  0  0  0  0  0  0  0  0  0  0
   21.1928   17.9546   22.2047 C   0  0  0  0  0  0  0  0  0  0  0  0
   20.6123   17.4543   22.9865 H   0  0  0  0  0  0  0  0  0  0  0  0
   21.9329   17.2073   21.8881 H   0  0  0  0  0  0  0  0  0  0  0  0
   21.9294   19.1880   22.7884 C   0  0  0  0  0  0  0  0  0  0  0  0
   21.9744   19.9839   22.0331 H   0  0  0  0  0  0  0  0  0  0  0  0
   21.2983   19.7511   24.0867 C   0  0  0  0  0  0  0  0  0  0  0  0
   21.2239   18.9504   24.8341 H   0  0  0  0  0  0  0  0  0  0  0  0
   21.9984   20.4861   24.5062 H   0  0  0  0  0  0  0  0  0  0  0  0
   19.9187   20.4503   23.9496 C   0  0  0  0  0  0  0  0  0  0  0  0
   19.9738   21.2850   23.2389 H   0  0  0  0  0  0  0  0  0  0  0  0
   19.6968   20.9148   24.9202 H   0  0  0  0  0  0  0  0  0  0  0  0
   18.7407   19.5019   23.6067 C   0  0  0  0  0  0  0  0  0  0  0  0
   17.8724   19.8048   24.2078 H   0  0  0  0  0  0  0  0  0  0  0  0
   18.9591   18.4809   23.9391 H   0  0  0  0  0  0  0  0  0  0  0  0
   23.2625   18.8031   23.0996 O   0  0  0  0  0  0  0  0  0  0  0  0
   23.1961   18.0979   23.7758 H   0  0  0  0  0  0  0  0  0  0  0  0
  1  2  1  0  0  0  0
  1  3  1  0  0  0  0
  1  4  1  0  0  0  0
  4  5  1  0  0  0  0
  4  6  1  0  0  0  0
  4  7  1  0  0  0  0
  7  8  1  0  0  0  0
  7  9  1  0  0  0  0
  7 10  1  0  0  0  0
 10 11  1  0  0  0  0
 10 12  1  0  0  0  0
 10 13  1  0  0  0  0
 13 14  1  0  0  0  0
 13 15  1  0  0  0  0
 15 16  1  0  0  0  0
 15 17  1  0  0  0  0
 15 18  1  0  0  0  0
 18 19  1  0  0  0  0
 18 20  1  0  0  0  0
  1 21  1  0  0  0  0
 18 21  1  0  0  0  0
 21 22  1  0  0  0  0
 21 23  1  0  0  0  0
 13 24  1  0  0  0  0
 24 25  1  0  0  0  0
M  END
> <VConfSearch Rank>
847

> <Conf_Id>
140

> <Delta U+W>
-1.702

> <U+W>
9.211

> <U>
11.181

> <W>
-1.969

> <W(PB)>
-4.093

> <W(SA)>
2.124

> <Valence>
16.954

> <Coulomb>
-8.661

> <VdW>
2.887

> <VdW6>
-12.561

> <VdW12>
15.448

> <Bond>
0.433

> <Angle>
5.120

> <Pdih>
11.401

> <Idih>
0.000

> <Tether>
0.000

$$$$
VeraChem MOL file


 25 25  0  0  0  0  0  0  0  0999 V2000     
   18.3858   18.5368   22.1442 C   0  0  0  0  0  0  0  0  0  0  0  0
   17.5000   19.1272   22.4150 H   0  0  0  0  0  0  0  0  0  0  0  0
   18.0020   17.6496   21.6223 H   0  0  0  0  0  0  0  0  0  0  0  0
   19.0847   18.0555   23.4420 C   0  0  0  0  0  0  0  0  0  0  0  0
   19.0927   18.8519   24.1946 H   0  0  0  0  0  0  0  0  0  0  0  0
   18.4490   17.2733   23.8793 H   0  0  0  0  0  0  0  0  0  0  0  0
   20.5081   17.4699   23.2532 C   0  0  0  0  0  0  0  0  0  0  0  0
   20.6422   17.0770   22.2371 H   0  0  0  0  0  0  0  0  0  0  0  0
   20.5953   16.5952   23.9122 H   0  0  0  0  0  0  0  0  0  0  0  0
   21.6643   18.4363   23.6275 C   0  0  0  0  0  0  0  0  0  0  0  0
   21.5273   18.7787   24.6615 H   0  0  0  0  0  0  0  0  0  0  0  0
   22.5938   17.8513   23.6280 H   0  0  0  0  0  0  0  0  0  0  0  0
   21.8797   19.6608   22.7028 C   0  0  0  0  0  0  0  0  0  0  0  0
   21.9860   19.3167   21.6654 H   0  0  0  0  0  0  0  0  0  0  0  0
   20.7580   20.7282   22.7871 C   0  0  0  0  0  0  0  0  0  0  0  0
   20.2238   20.6429   23.7389 H   0  0  0  0  0  0  0  0  0  0  0  0
   21.2113   21.7284   22.8124 H   0  0  0  0  0  0  0  0  0  0  0  0
   19.7524   20.7183   21.6064 C   0  0  0  0  0  0  0  0  0  0  0  0
   20.2364   21.2054   20.7488 H   0  0  0  0  0  0  0  0  0  0  0  0
   18.8938   21.3531   21.8638 H   0  0  0  0  0  0  0  0  0  0  0  0
   19.2420   19.3354   21.1297 C   0  0  0  0  0  0  0  0  0  0  0  0
   20.0749   18.7220   20.7674 H   0  0  0  0  0  0  0  0  0  0  0  0
   18.6189   19.5068   20.2414 H   0  0  0  0  0  0  0  0  0  0  0  0
   23.1042   20.2716   23.0897 O   0  0  0  0  0  0  0  0  0  0  0  0
   22.9861   20.5654   24.0163 H   0  0  0  0  0  0  0  0  0  0  0  0
  1  2  1  0  0  0  0
  1  3  1  0  0  0  0
  1  4  1  0  0  0  0
  4  5  1  0  0  0  0
  4  6  1  0  0  0  0
  4  7  1  0  0  0  0
  7  8  1  0  0  0  0
  7  9  1  0  0  0  0
  7 10  1  0  0  0  0
 10 11  1  0  0  0  0
 10 12  1  0  0  0  0
 10 13  1  0  0  0  0
 13 14  1  0  0  0  0
 13 15  1  0  0  0  0
 15 16  1  0  0  0  0
 15 17  1  0  0  0  0
 15 18  1  0  0  0  0
 18 19  1  0  0  0  0
 18 20  1  0  0  0  0
  1 21  1  0  0  0  0
 18 21  1  0  0  0  0
 21 22  1  0  0  0  0
 21 23  1  0  0  0  0
 13 24  1  0  0  0  0
 24 25  1  0  0  0  0
M  END
> <VConfSearch Rank>
848

> <Conf_Id>
68

> <Delta U+W>
-1.765

> <U+W>
9.148

> <U>
11.181

> <W>
-2.032

> <W(PB)>
-4.147

> <W(SA)>
2.114

> <Valence>
16.955

> <Coulomb>
-8.661

> <VdW>
2.887

> <VdW6>
-12.561

> <VdW12>
15.448

> <Bond>
0.433

> <Angle>
5.121

> <Pdih>
11.402

> <Idih>
0.000

> <Tether>
0.000

$$$$
VeraChem MOL file


 25 25  0  0  0  0  0  0  0  0999 V2000     
   19.2367   17.6202   22.7460 C   0  0  0  0  0  0  0  0  0  0  0  0
   18.6754   16.6779   22.6823 H   0  0  0  0  0  0  0  0  0  0  0  0
   18.8574   18.1009   23.6549 H   0  0  0  0  0  0  0  0  0  0  0  0
   18.8929   18.4703   21.4953 C   0  0  0  0  0  0  0  0  0  0  0  0
   19.6353   18.3231   20.7005 H   0  0  0  0  0  0  0  0  0  0  0  0
   17.9514   18.0833   21.0818 H   0  0  0  0  0  0  0  0  0  0  0  0
   18.6771   19.9811   21.7740 C   0  0  0  0  0  0  0  0  0  0  0  0
   17.8966   20.1028   22.5376 H   0  0  0  0  0  0  0  0  0  0  0  0
   18.2681   20.4338   20.8605 H   0  0  0  0  0  0  0  0  0  0  0  0
   19.9298   20.7993   22.1863 C   0  0  0  0  0  0  0  0  0  0  0  0
   20.7101   20.7141   21.4206 H   0  0  0  0  0  0  0  0  0  0  0  0
   19.6329   21.8569   22.1790 H   0  0  0  0  0  0  0  0  0  0  0  0
   20.4905   20.4529   23.5901 C   0  0  0  0  0  0  0  0  0  0  0  0
   19.7096   19.9509   24.1729 H   0  0  0  0  0  0  0  0  0  0  0  0
   21.7633   19.5709   23.5807 C   0  0  0  0  0  0  0  0  0  0  0  0
   22.6232   20.2029   23.3224 H   0  0  0  0  0  0  0  0  0  0  0  0
   21.9470   19.2170   24.6035 H   0  0  0  0  0  0  0  0  0  0  0  0
   21.7760   18.3562   22.6172 C   0  0  0  0  0  0  0  0  0  0  0  0
   22.7709   17.8954   22.6852 H   0  0  0  0  0  0  0  0  0  0  0  0
   21.6972   18.6913   21.5766 H   0  0  0  0  0  0  0  0  0  0  0  0
   20.7334   17.2472   22.9060 C   0  0  0  0  0  0  0  0  0  0  0  0
   20.8958   16.8501   23.9172 H   0  0  0  0  0  0  0  0  0  0  0  0
   20.9449   16.4130   22.2230 H   0  0  0  0  0  0  0  0  0  0  0  0
   20.8153   21.6648   24.2597 O   0  0  0  0  0  0  0  0  0  0  0  0
   21.4997   22.1067   23.7165 H   0  0  0  0  0  0  0  0  0  0  0  0
  1  2  1  0  0  0  0
  1  3  1  0  0  0  0
  1  4  1  0  0  0  0
  4  5  1  0  0  0  0
  4  6  1  0  0  0  0
  4  7  1  0  0  0  0
  7  8  1  0  0  0  0
  7  9  1  0  0  0  0
  7 10  1  0  0  0  0
 10 11  1  0  0  0  0
 10 12  1  0  0  0  0
 10 13  1  0  0  0  0
 13 14  1  0  0  0  0
 13 15  1  0  0  0  0
 15 16  1  0  0  0  0
 15 17  1  0  0  0  0
 15 18  1  0  0  0  0
 18 19  1  0  0  0  0
 18 20  1  0  0  0  0
  1 21  1  0  0  0  0
 18 21  1  0  0  0  0
 21 22  1  0  0  0  0
 21 23  1  0  0  0  0
 13 24  1  0  0  0  0
 24 25  1  0  0  0  0
M  END
> <VConfSearch Rank>
849

> <Conf_Id>
165

> <Delta U+W>
-1.999

> <U+W>
8.915

> <U>
10.935

> <W>
-2.020

> <W(PB)>
-4.135

> <W(SA)>
2.115

> <Valence>
16.757

> <Coulomb>
-8.731

> <VdW>
2.908

> <VdW6>
-12.597

> <VdW12>
15.506

> <Bond>
0.434

> <Angle>
5.069

> <Pdih>
11.254

> <Idih>
0.000

> <Tether>
0.000

$$$$
VeraChem MOL file


 25 25  0  0  0  0  0  0  0  0999 V2000     
   21.9625   18.4181   22.4262 C   0  0  0  0  0  0  0  0  0  0  0  0
   22.9532   17.9459   22.3752 H   0  0  0  0  0  0  0  0  0  0  0  0
   21.6888   18.5875   21.3788 H   0  0  0  0  0  0  0  0  0  0  0  0
   22.1402   19.7660   23.1727 C   0  0  0  0  0  0  0  0  0  0  0  0
   22.8202   19.5926   24.0179 H   0  0  0  0  0  0  0  0  0  0  0  0
   22.6620   20.4728   22.5134 H   0  0  0  0  0  0  0  0  0  0  0  0
   20.8638   20.4383   23.7378 C   0  0  0  0  0  0  0  0  0  0  0  0
   21.1842   21.3187   24.3113 H   0  0  0  0  0  0  0  0  0  0  0  0
   20.3854   19.7860   24.4774 H   0  0  0  0  0  0  0  0  0  0  0  0
   19.8276   20.9216   22.6907 C   0  0  0  0  0  0  0  0  0  0  0  0
   19.0428   21.4669   23.2323 H   0  0  0  0  0  0  0  0  0  0  0  0
   20.3066   21.6565   22.0309 H   0  0  0  0  0  0  0  0  0  0  0  0
   19.1486   19.8390   21.8163 C   0  0  0  0  0  0  0  0  0  0  0  0
   19.8414   19.5246   21.0269 H   0  0  0  0  0  0  0  0  0  0  0  0
   18.6702   18.5861   22.5946 C   0  0  0  0  0  0  0  0  0  0  0  0
   18.5221   18.8187   23.6557 H   0  0  0  0  0  0  0  0  0  0  0  0
   17.6757   18.3053   22.2222 H   0  0  0  0  0  0  0  0  0  0  0  0
   19.5812   17.3398   22.4332 C   0  0  0  0  0  0  0  0  0  0  0  0
   19.6903   17.1061   21.3653 H   0  0  0  0  0  0  0  0  0  0  0  0
   19.0530   16.4813   22.8699 H   0  0  0  0  0  0  0  0  0  0  0  0
   20.9848   17.4135   23.0898 C   0  0  0  0  0  0  0  0  0  0  0  0
   21.4311   16.4132   23.0046 H   0  0  0  0  0  0  0  0  0  0  0  0
   20.9007   17.5973   24.1686 H   0  0  0  0  0  0  0  0  0  0  0  0
   18.0202   20.4414   21.1923 O   0  0  0  0  0  0  0  0  0  0  0  0
   18.3570   21.2012   20.6730 H   0  0  0  0  0  0  0  0  0  0  0  0
  1  2  1  0  0  0  0
  1  3  1  0  0  0  0
  1  4  1  0  0  0  0
  4  5  1  0  0  0  0
  4  6  1  0  0  0  0
  4  7  1  0  0  0  0
  7  8  1  0  0  0  0
  7  9  1  0  0  0  0
  7 10  1  0  0  0  0
 10 11  1  0  0  0  0
 10 12  1  0  0  0  0
 10 13  1  0  0  0  0
 13 14  1  0  0  0  0
 13 15  1  0  0  0  0
 15 16  1  0  0  0  0
 15 17  1  0  0  0  0
 15 18  1  0  0  0  0
 18 19  1  0  0  0  0
 18 20  1  0  0  0  0
  1 21  1  0  0  0  0
 18 21  1  0  0  0  0
 21 22  1  0  0  0  0
 21 23  1  0  0  0  0
 13 24  1  0  0  0  0
 24 25  1  0  0  0  0
M  END
> <VConfSearch Rank>
850

> <Conf_Id>
133

> <Delta U+W>
-2.139

> <U+W>
8.774

> <U>
10.905

> <W>
-2.131

> <W(PB)>
-4.281

> <W(SA)>
2.150

> <Valence>
16.378

> <Coulomb>
-8.448

> <VdW>
2.976

> <VdW6>
-12.570

> <VdW12>
15.545

> <Bond>
0.439

> <Angle>
5.049

> <Pdih>
10.889

> <Idih>
0.000

> <Tether>
0.000

$$$$
VeraChem MOL file


 25 25  0  0  0  0  0  0  0  0999 V2000     
   20.9366   20.7610   23.4469 C   0  0  0  0  0  0  0  0  0  0  0  0
   21.3664   21.6923   23.8407 H   0  0  0  0  0  0  0  0  0  0  0  0
   20.4779   20.2837   24.3202 H   0  0  0  0  0  0  0  0  0  0  0  0
   22.0968   19.8912   22.8966 C   0  0  0  0  0  0  0  0  0  0  0  0
   22.2290   20.0446   21.8179 H   0  0  0  0  0  0  0  0  0  0  0  0
   23.0275   20.2553   23.3530 H   0  0  0  0  0  0  0  0  0  0  0  0
   21.9919   18.3793   23.2285 C   0  0  0  0  0  0  0  0  0  0  0  0
   21.9104   18.2499   24.3164 H   0  0  0  0  0  0  0  0  0  0  0  0
   22.9436   17.9088   22.9466 H   0  0  0  0  0  0  0  0  0  0  0  0
   20.8510   17.5907   22.5318 C   0  0  0  0  0  0  0  0  0  0  0  0
   20.9319   17.6806   21.4420 H   0  0  0  0  0  0  0  0  0  0  0  0
   21.0222   16.5267   22.7440 H   0  0  0  0  0  0  0  0  0  0  0  0
   19.4243   17.9623   23.0119 C   0  0  0  0  0  0  0  0  0  0  0  0
   19.4947   18.4567   23.9879 H   0  0  0  0  0  0  0  0  0  0  0  0
   18.6303   18.8664   22.0373 C   0  0  0  0  0  0  0  0  0  0  0  0
   18.2687   18.2428   21.2085 H   0  0  0  0  0  0  0  0  0  0  0  0
   17.7338   19.2356   22.5518 H   0  0  0  0  0  0  0  0  0  0  0  0
   19.3836   20.0713   21.4169 C   0  0  0  0  0  0  0  0  0  0  0  0
   18.7006   20.5514   20.7029 H   0  0  0  0  0  0  0  0  0  0  0  0
   20.2236   19.7239   20.8047 H   0  0  0  0  0  0  0  0  0  0  0  0
   19.8561   21.1631   22.4095 C   0  0  0  0  0  0  0  0  0  0  0  0
   18.9863   21.5726   22.9408 H   0  0  0  0  0  0  0  0  0  0  0  0
   20.2576   21.9947   21.8143 H   0  0  0  0  0  0  0  0  0  0  0  0
   18.6783   16.7624   23.1833 O   0  0  0  0  0  0  0  0  0  0  0  0
   17.7992   17.0235   23.5290 H   0  0  0  0  0  0  0  0  0  0  0  0
  1  2  1  0  0  0  0
  1  3  1  0  0  0  0
  1  4  1  0  0  0  0
  4  5  1  0  0  0  0
  4  6  1  0  0  0  0
  4  7  1  0  0  0  0
  7  8  1  0  0  0  0
  7  9  1  0  0  0  0
  7 10  1  0  0  0  0
 10 11  1  0  0  0  0
 10 12  1  0  0  0  0
 10 13  1  0  0  0  0
 13 14  1  0  0  0  0
 13 15  1  0  0  0  0
 15 16  1  0  0  0  0
 15 17  1  0  0  0  0
 15 18  1  0  0  0  0
 18 19  1  0  0  0  0
 18 20  1  0  0  0  0
  1 21  1  0  0  0  0
 18 21  1  0  0  0  0
 21 22  1  0  0  0  0
 21 23  1  0  0  0  0
 13 24  1  0  0  0  0
 24 25  1  0  0  0  0
M  END
> <VConfSearch Rank>
851

> <Conf_Id>
95

> <Delta U+W>
-2.190

> <U+W>
8.723

> <U>
10.905

> <W>
-2.182

> <W(PB)>
-4.296

> <W(SA)>
2.114

> <Valence>
16.377

> <Coulomb>
-8.448

> <VdW>
2.976

> <VdW6>
-12.570

> <VdW12>
15.546

> <Bond>
0.439

> <Angle>
5.049

> <Pdih>
10.889

> <Idih>
0.000

> <Tether>
0.000

$$$$
VeraChem MOL file


 25 25  0  0  0  0  0  0  0  0999 V2000     
   19.5589   17.5452   23.0402 C   0  0  0  0  0  0  0  0  0  0  0  0
   19.2048   16.5178   23.2013 H   0  0  0  0  0  0  0  0  0  0  0  0
   18.6869   18.1568   23.2929 H   0  0  0  0  0  0  0  0  0  0  0  0
   19.9106   17.6737   21.5289 C   0  0  0  0  0  0  0  0  0  0  0  0
   20.3149   16.7056   21.2031 H   0  0  0  0  0  0  0  0  0  0  0  0
   18.9825   17.8096   20.9573 H   0  0  0  0  0  0  0  0  0  0  0  0
   20.9370   18.7567   21.1044 C   0  0  0  0  0  0  0  0  0  0  0  0
   21.1441   18.6173   20.0346 H   0  0  0  0  0  0  0  0  0  0  0  0
   21.9002   18.5482   21.5807 H   0  0  0  0  0  0  0  0  0  0  0  0
   20.5309   20.2474   21.3029 C   0  0  0  0  0  0  0  0  0  0  0  0
   21.4394   20.8637   21.3170 H   0  0  0  0  0  0  0  0  0  0  0  0
   19.9793   20.5523   20.4040 H   0  0  0  0  0  0  0  0  0  0  0  0
   19.6526   20.6120   22.5265 C   0  0  0  0  0  0  0  0  0  0  0  0
   18.7319   20.0220   22.4710 H   0  0  0  0  0  0  0  0  0  0  0  0
   20.2965   20.4405   23.9324 C   0  0  0  0  0  0  0  0  0  0  0  0
   20.8510   21.3597   24.1645 H   0  0  0  0  0  0  0  0  0  0  0  0
   19.4911   20.3863   24.6758 H   0  0  0  0  0  0  0  0  0  0  0  0
   21.2733   19.2552   24.1604 C   0  0  0  0  0  0  0  0  0  0  0  0
   21.7001   19.3660   25.1665 H   0  0  0  0  0  0  0  0  0  0  0  0
   22.1397   19.3688   23.5012 H   0  0  0  0  0  0  0  0  0  0  0  0
   20.6910   17.8145   24.0664 C   0  0  0  0  0  0  0  0  0  0  0  0
   20.2932   17.5556   25.0571 H   0  0  0  0  0  0  0  0  0  0  0  0
   21.5144   17.1096   23.8889 H   0  0  0  0  0  0  0  0  0  0  0  0
   19.2857   21.9803   22.3937 O   0  0  0  0  0  0  0  0  0  0  0  0
   18.8229   22.0671   21.5344 H   0  0  0  0  0  0  0  0  0  0  0  0
  1  2  1  0  0  0  0
  1  3  1  0  0  0  0
  1  4  1  0  0  0  0
  4  5  1  0  0  0  0
  4  6  1  0  0  0  0
  4  7  1  0  0  0  0
  7  8  1  0  0  0  0
  7  9  1  0  0  0  0
  7 10  1  0  0  0  0
 10 11  1  0  0  0  0
 10 12  1  0  0  0  0
 10 13  1  0  0  0  0
 13 14  1  0  0  0  0
 13 15  1  0  0  0  0
 15 16  1  0  0  0  0
 15 17  1  0  0  0  0
 15 18  1  0  0  0  0
 18 19  1  0  0  0  0
 18 20  1  0  0  0  0
  1 21  1  0  0  0  0
 18 21  1  0  0  0  0
 21 22  1  0  0  0  0
 21 23  1  0  0  0  0
 13 24  1  0  0  0  0
 24 25  1  0  0  0  0
M  END
> <VConfSearch Rank>
852

> <Conf_Id>
161

> <Delta U+W>
2.120

> <U+W>
13.033

> <U>
15.076

> <W>
-2.043

> <W(PB)>
-4.186

> <W(SA)>
2.143

> <Valence>
18.884

> <Coulomb>
-8.074

> <VdW>
4.266

> <VdW6>
-13.486

> <VdW12>
17.752

> <Bond>
0.713

> <Angle>
8.955

> <Pdih>
9.215

> <Idih>
0.000

> <Tether>
0.000

$$$$
VeraChem MOL file


 25 25  0  0  0  0  0  0  0  0999 V2000     
   21.0826   17.4171   22.9982 C   0  0  0  0  0  0  0  0  0  0  0  0
   21.5763   16.5374   23.4333 H   0  0  0  0  0  0  0  0  0  0  0  0
   20.9481   17.1664   21.9383 H   0  0  0  0  0  0  0  0  0  0  0  0
   22.0444   18.6234   23.1379 C   0  0  0  0  0  0  0  0  0  0  0  0
   21.9194   19.1114   24.1138 H   0  0  0  0  0  0  0  0  0  0  0  0
   23.0653   18.2172   23.1453 H   0  0  0  0  0  0  0  0  0  0  0  0
   21.9806   19.6578   21.9797 C   0  0  0  0  0  0  0  0  0  0  0  0
   21.8244   19.1610   21.0127 H   0  0  0  0  0  0  0  0  0  0  0  0
   22.9754   20.1192   21.9115 H   0  0  0  0  0  0  0  0  0  0  0  0
   20.9636   20.8116   22.1772 C   0  0  0  0  0  0  0  0  0  0  0  0
   20.8999   21.0737   23.2403 H   0  0  0  0  0  0  0  0  0  0  0  0
   21.3747   21.7054   21.6897 H   0  0  0  0  0  0  0  0  0  0  0  0
   19.5526   20.5916   21.5751 C   0  0  0  0  0  0  0  0  0  0  0  0
   19.6433   20.6300   20.4801 H   0  0  0  0  0  0  0  0  0  0  0  0
   18.8503   19.2620   21.9353 C   0  0  0  0  0  0  0  0  0  0  0  0
   17.7949   19.3398   21.6416 H   0  0  0  0  0  0  0  0  0  0  0  0
   19.2517   18.4643   21.3009 H   0  0  0  0  0  0  0  0  0  0  0  0
   18.9250   18.8682   23.4348 C   0  0  0  0  0  0  0  0  0  0  0  0
   17.9034   18.7404   23.8178 H   0  0  0  0  0  0  0  0  0  0  0  0
   19.3524   19.6777   24.0374 H   0  0  0  0  0  0  0  0  0  0  0  0
   19.7086   17.5614   23.7046 C   0  0  0  0  0  0  0  0  0  0  0  0
   19.0824   16.7077   23.4117 H   0  0  0  0  0  0  0  0  0  0  0  0
   19.8553   17.4659   24.7891 H   0  0  0  0  0  0  0  0  0  0  0  0
   18.7218   21.6617   22.0030 O   0  0  0  0  0  0  0  0  0  0  0  0
   18.5564   21.5081   22.9553 H   0  0  0  0  0  0  0  0  0  0  0  0
  1  2  1  0  0  0  0
  1  3  1  0  0  0  0
  1  4  1  0  0  0  0
  4  5  1  0  0  0  0
  4  6  1  0  0  0  0
  4  7  1  0  0  0  0
  7  8  1  0  0  0  0
  7  9  1  0  0  0  0
  7 10  1  0  0  0  0
 10 11  1  0  0  0  0
 10 12  1  0  0  0  0
 10 13  1  0  0  0  0
 13 14  1  0  0  0  0
 13 15  1  0  0  0  0
 15 16  1  0  0  0  0
 15 17  1  0  0  0  0
 15 18  1  0  0  0  0
 18 19  1  0  0  0  0
 18 20  1  0  0  0  0
  1 21  1  0  0  0  0
 18 21  1  0  0  0  0
 21 22  1  0  0  0  0
 21 23  1  0  0  0  0
 13 24  1  0  0  0  0
 24 25  1  0  0  0  0
M  END
> <VConfSearch Rank>
853

> <Conf_Id>
164

> <Delta U+W>
0.008

> <U+W>
10.922

> <U>
12.433

> <W>
-1.511

> <W(PB)>
-3.669

> <W(SA)>
2.157

> <Valence>
19.007

> <Coulomb>
-9.373

> <VdW>
2.799

> <VdW6>
-12.597

> <VdW12>
15.396

> <Bond>
0.425

> <Angle>
4.784

> <Pdih>
13.799

> <Idih>
0.000

> <Tether>
0.000

$$$$
VeraChem MOL file


 25 25  0  0  0  0  0  0  0  0999 V2000     
   20.8411   20.9058   22.2404 C   0  0  0  0  0  0  0  0  0  0  0  0
   20.8236   20.3796   21.2793 H   0  0  0  0  0  0  0  0  0  0  0  0
   21.1614   21.9265   21.9907 H   0  0  0  0  0  0  0  0  0  0  0  0
   21.9222   20.2991   23.1693 C   0  0  0  0  0  0  0  0  0  0  0  0
   22.8904   20.4070   22.6614 H   0  0  0  0  0  0  0  0  0  0  0  0
   21.9971   20.9045   24.0827 H   0  0  0  0  0  0  0  0  0  0  0  0
   21.7586   18.8094   23.5654 C   0  0  0  0  0  0  0  0  0  0  0  0
   21.0703   18.7096   24.4123 H   0  0  0  0  0  0  0  0  0  0  0  0
   22.7273   18.4702   23.9574 H   0  0  0  0  0  0  0  0  0  0  0  0
   21.3431   17.8586   22.4112 C   0  0  0  0  0  0  0  0  0  0  0  0
   21.6360   18.2710   21.4381 H   0  0  0  0  0  0  0  0  0  0  0  0
   21.9274   16.9353   22.5229 H   0  0  0  0  0  0  0  0  0  0  0  0
   19.8485   17.4504   22.4089 C   0  0  0  0  0  0  0  0  0  0  0  0
   19.6015   17.0495   23.4023 H   0  0  0  0  0  0  0  0  0  0  0  0
   18.8268   18.5648   22.0705 C   0  0  0  0  0  0  0  0  0  0  0  0
   19.0369   19.0004   21.0862 H   0  0  0  0  0  0  0  0  0  0  0  0
   17.8460   18.0808   21.9703 H   0  0  0  0  0  0  0  0  0  0  0  0
   18.6864   19.6717   23.1494 C   0  0  0  0  0  0  0  0  0  0  0  0
   18.9927   19.2927   24.1310 H   0  0  0  0  0  0  0  0  0  0  0  0
   17.6189   19.9040   23.2656 H   0  0  0  0  0  0  0  0  0  0  0  0
   19.4117   21.0037   22.8294 C   0  0  0  0  0  0  0  0  0  0  0  0
   19.4344   21.6238   23.7357 H   0  0  0  0  0  0  0  0  0  0  0  0
   18.7955   21.5563   22.1070 H   0  0  0  0  0  0  0  0  0  0  0  0
   19.6869   16.4127   21.4517 O   0  0  0  0  0  0  0  0  0  0  0  0
   19.9138   16.8013   20.5821 H   0  0  0  0  0  0  0  0  0  0  0  0
  1  2  1  0  0  0  0
  1  3  1  0  0  0  0
  1  4  1  0  0  0  0
  4  5  1  0  0  0  0
  4  6  1  0  0  0  0
  4  7  1  0  0  0  0
  7  8  1  0  0  0  0
  7  9  1  0  0  0  0
  7 10  1  0  0  0  0
 10 11  1  0  0  0  0
 10 12  1  0  0  0  0
 10 13  1  0  0  0  0
 13 14  1  0  0  0  0
 13 15  1  0  0  0  0
 15 16  1  0  0  0  0
 15 17  1  0  0  0  0
 15 18  1  0  0  0  0
 18 19  1  0  0  0  0
 18 20  1  0  0  0  0
  1 21  1  0  0  0  0
 18 21  1  0  0  0  0
 21 22  1  0  0  0  0
 21 23  1  0  0  0  0
 13 24  1  0  0  0  0
 24 25  1  0  0  0  0
M  END
> <VConfSearch Rank>
854

> <Conf_Id>
15

> <Delta U+W>
-1.271

> <U+W>
9.643

> <U>
11.413

> <W>
-1.770

> <W(PB)>
-3.908

> <W(SA)>
2.138

> <Valence>
17.496

> <Coulomb>
-8.736

> <VdW>
2.653

> <VdW6>
-12.485

> <VdW12>
15.138

> <Bond>
0.414

> <Angle>
5.295

> <Pdih>
11.787

> <Idih>
0.000

> <Tether>
0.000

$$$$
VeraChem MOL file


 25 25  0  0  0  0  0  0  0  0999 V2000     
   21.2525   20.3837   23.8676 C   0  0  0  0  0  0  0  0  0  0  0  0
   21.8782   21.1091   24.4054 H   0  0  0  0  0  0  0  0  0  0  0  0
   21.0114   19.6154   24.6132 H   0  0  0  0  0  0  0  0  0  0  0  0
   19.9703   21.1344   23.4214 C   0  0  0  0  0  0  0  0  0  0  0  0
   19.4021   21.4037   24.3221 H   0  0  0  0  0  0  0  0  0  0  0  0
   20.2597   22.0862   22.9554 H   0  0  0  0  0  0  0  0  0  0  0  0
   19.0298   20.3839   22.4479 C   0  0  0  0  0  0  0  0  0  0  0  0
   19.4360   20.4373   21.4311 H   0  0  0  0  0  0  0  0  0  0  0  0
   18.0800   20.9339   22.3997 H   0  0  0  0  0  0  0  0  0  0  0  0
   18.7357   18.9166   22.8552 C   0  0  0  0  0  0  0  0  0  0  0  0
   19.1210   18.7045   23.8587 H   0  0  0  0  0  0  0  0  0  0  0  0
   17.6483   18.7909   22.9382 H   0  0  0  0  0  0  0  0  0  0  0  0
   19.2521   17.8576   21.8542 C   0  0  0  0  0  0  0  0  0  0  0  0
   18.5936   17.8833   20.9741 H   0  0  0  0  0  0  0  0  0  0  0  0
   20.7047   18.0379   21.3423 C   0  0  0  0  0  0  0  0  0  0  0  0
   20.9646   17.1260   20.7880 H   0  0  0  0  0  0  0  0  0  0  0  0
   20.7411   18.8348   20.5898 H   0  0  0  0  0  0  0  0  0  0  0  0
   21.8029   18.2777   22.4125 C   0  0  0  0  0  0  0  0  0  0  0  0
   22.7314   17.8448   22.0154 H   0  0  0  0  0  0  0  0  0  0  0  0
   21.5919   17.7146   23.3308 H   0  0  0  0  0  0  0  0  0  0  0  0
   22.1045   19.7684   22.7300 C   0  0  0  0  0  0  0  0  0  0  0  0
   22.0507   20.3865   21.8238 H   0  0  0  0  0  0  0  0  0  0  0  0
   23.1531   19.8188   23.0541 H   0  0  0  0  0  0  0  0  0  0  0  0
   19.1455   16.5798   22.4660 O   0  0  0  0  0  0  0  0  0  0  0  0
   19.8134   16.5687   23.1807 H   0  0  0  0  0  0  0  0  0  0  0  0
  1  2  1  0  0  0  0
  1  3  1  0  0  0  0
  1  4  1  0  0  0  0
  4  5  1  0  0  0  0
  4  6  1  0  0  0  0
  4  7  1  0  0  0  0
  7  8  1  0  0  0  0
  7  9  1  0  0  0  0
  7 10  1  0  0  0  0
 10 11  1  0  0  0  0
 10 12  1  0  0  0  0
 10 13  1  0  0  0  0
 13 14  1  0  0  0  0
 13 15  1  0  0  0  0
 15 16  1  0  0  0  0
 15 17  1  0  0  0  0
 15 18  1  0  0  0  0
 18 19  1  0  0  0  0
 18 20  1  0  0  0  0
  1 21  1  0  0  0  0
 18 21  1  0  0  0  0
 21 22  1  0  0  0  0
 21 23  1  0  0  0  0
 13 24  1  0  0  0  0
 24 25  1  0  0  0  0
M  END
> <VConfSearch Rank>
855

> <Conf_Id>
115

> <Delta U+W>
0.038

> <U+W>
10.952

> <U>
12.526

> <W>
-1.575

> <W(PB)>
-3.698

> <W(SA)>
2.123

> <Valence>
19.016

> <Coulomb>
-9.226

> <VdW>
2.737

> <VdW6>
-12.612

> <VdW12>
15.349

> <Bond>
0.421

> <Angle>
4.883

> <Pdih>
13.711

> <Idih>
0.000

> <Tether>
0.000

$$$$
VeraChem MOL file


 25 25  0  0  0  0  0  0  0  0999 V2000     
   21.7836   18.7157   21.1799 C   0  0  0  0  0  0  0  0  0  0  0  0
   22.5366   18.9402   20.4121 H   0  0  0  0  0  0  0  0  0  0  0  0
   21.8954   17.6448   21.3971 H   0  0  0  0  0  0  0  0  0  0  0  0
   20.3948   18.9890   20.5570 C   0  0  0  0  0  0  0  0  0  0  0  0
   20.3284   20.0349   20.2277 H   0  0  0  0  0  0  0  0  0  0  0  0
   20.3212   18.3863   19.6414 H   0  0  0  0  0  0  0  0  0  0  0  0
   19.1890   18.6351   21.4579 C   0  0  0  0  0  0  0  0  0  0  0  0
   19.3659   17.6826   21.9750 H   0  0  0  0  0  0  0  0  0  0  0  0
   18.3287   18.4535   20.7991 H   0  0  0  0  0  0  0  0  0  0  0  0
   18.7849   19.7554   22.4538 C   0  0  0  0  0  0  0  0  0  0  0  0
   19.2666   20.7078   22.1994 H   0  0  0  0  0  0  0  0  0  0  0  0
   17.7077   19.9305   22.3299 H   0  0  0  0  0  0  0  0  0  0  0  0
   19.0421   19.4134   23.9387 C   0  0  0  0  0  0  0  0  0  0  0  0
   18.8493   18.3426   24.0958 H   0  0  0  0  0  0  0  0  0  0  0  0
   20.4653   19.7459   24.4392 C   0  0  0  0  0  0  0  0  0  0  0  0
   20.6525   20.8239   24.3468 H   0  0  0  0  0  0  0  0  0  0  0  0
   20.4971   19.5284   25.5149 H   0  0  0  0  0  0  0  0  0  0  0  0
   21.6090   18.9473   23.7678 C   0  0  0  0  0  0  0  0  0  0  0  0
   21.3196   17.8951   23.6440 H   0  0  0  0  0  0  0  0  0  0  0  0
   22.4547   18.9354   24.4691 H   0  0  0  0  0  0  0  0  0  0  0  0
   22.1208   19.5542   22.4352 C   0  0  0  0  0  0  0  0  0  0  0  0
   23.2158   19.6159   22.5019 H   0  0  0  0  0  0  0  0  0  0  0  0
   21.7792   20.5899   22.3074 H   0  0  0  0  0  0  0  0  0  0  0  0
   18.1258   20.1625   24.7279 O   0  0  0  0  0  0  0  0  0  0  0  0
   18.2676   19.8925   25.6592 H   0  0  0  0  0  0  0  0  0  0  0  0
  1  2  1  0  0  0  0
  1  3  1  0  0  0  0
  1  4  1  0  0  0  0
  4  5  1  0  0  0  0
  4  6  1  0  0  0  0
  4  7  1  0  0  0  0
  7  8  1  0  0  0  0
  7  9  1  0  0  0  0
  7 10  1  0  0  0  0
 10 11  1  0  0  0  0
 10 12  1  0  0  0  0
 10 13  1  0  0  0  0
 13 14  1  0  0  0  0
 13 15  1  0  0  0  0
 15 16  1  0  0  0  0
 15 17  1  0  0  0  0
 15 18  1  0  0  0  0
 18 19  1  0  0  0  0
 18 20  1  0  0  0  0
  1 21  1  0  0  0  0
 18 21  1  0  0  0  0
 21 22  1  0  0  0  0
 21 23  1  0  0  0  0
 13 24  1  0  0  0  0
 24 25  1  0  0  0  0
M  END
> <VConfSearch Rank>
856

> <Conf_Id>
30

> <Delta U+W>
0.000

> <U+W>
10.913

> <U>
13.140

> <W>
-2.227

> <W(PB)>
-4.367

> <W(SA)>
2.140

> <Valence>
19.155

> <Coulomb>
-8.157

> <VdW>
2.142

> <VdW6>
-11.576

> <VdW12>
13.718

> <Bond>
0.294

> <Angle>
3.547

> <Pdih>
15.314

> <Idih>
0.000

> <Tether>
0.000

$$$$
VeraChem MOL file


 25 25  0  0  0  0  0  0  0  0999 V2000     
   19.1953   17.8125   23.7948 C   0  0  0  0  0  0  0  0  0  0  0  0
   18.6065   17.8831   24.7195 H   0  0  0  0  0  0  0  0  0  0  0  0
   19.1944   16.7481   23.5230 H   0  0  0  0  0  0  0  0  0  0  0  0
   20.6528   18.2318   24.1075 C   0  0  0  0  0  0  0  0  0  0  0  0
   20.9456   17.7576   25.0542 H   0  0  0  0  0  0  0  0  0  0  0  0
   21.3287   17.7991   23.3608 H   0  0  0  0  0  0  0  0  0  0  0  0
   20.8663   19.7616   24.2336 C   0  0  0  0  0  0  0  0  0  0  0  0
   21.3167   19.9755   25.2125 H   0  0  0  0  0  0  0  0  0  0  0  0
   19.9076   20.2931   24.2448 H   0  0  0  0  0  0  0  0  0  0  0  0
   21.7849   20.3640   23.1405 C   0  0  0  0  0  0  0  0  0  0  0  0
   21.7221   21.4587   23.1995 H   0  0  0  0  0  0  0  0  0  0  0  0
   22.8250   20.1085   23.3814 H   0  0  0  0  0  0  0  0  0  0  0  0
   21.5185   19.9207   21.6802 C   0  0  0  0  0  0  0  0  0  0  0  0
   21.8292   18.8745   21.5576 H   0  0  0  0  0  0  0  0  0  0  0  0
   20.0502   20.0591   21.2085 C   0  0  0  0  0  0  0  0  0  0  0  0
   19.5657   20.9048   21.7130 H   0  0  0  0  0  0  0  0  0  0  0  0
   20.0576   20.3229   20.1425 H   0  0  0  0  0  0  0  0  0  0  0  0
   19.1938   18.7684   21.3437 C   0  0  0  0  0  0  0  0  0  0  0  0
   19.7874   17.8718   21.1198 H   0  0  0  0  0  0  0  0  0  0  0  0
   18.4253   18.8121   20.5596 H   0  0  0  0  0  0  0  0  0  0  0  0
   18.4500   18.6122   22.6932 C   0  0  0  0  0  0  0  0  0  0  0  0
   17.5061   18.0847   22.4989 H   0  0  0  0  0  0  0  0  0  0  0  0
   18.1462   19.5972   23.0699 H   0  0  0  0  0  0  0  0  0  0  0  0
   22.3378   20.7258   20.8407 O   0  0  0  0  0  0  0  0  0  0  0  0
   22.2252   20.3875   19.9279 H   0  0  0  0  0  0  0  0  0  0  0  0
  1  2  1  0  0  0  0
  1  3  1  0  0  0  0
  1  4  1  0  0  0  0
  4  5  1  0  0  0  0
  4  6  1  0  0  0  0
  4  7  1  0  0  0  0
  7  8  1  0  0  0  0
  7  9  1  0  0  0  0
  7 10  1  0  0  0  0
 10 11  1  0  0  0  0
 10 12  1  0  0  0  0
 10 13  1  0  0  0  0
 13 14  1  0  0  0  0
 13 15  1  0  0  0  0
 15 16  1  0  0  0  0
 15 17  1  0  0  0  0
 15 18  1  0  0  0  0
 18 19  1  0  0  0  0
 18 20  1  0  0  0  0
  1 21  1  0  0  0  0
 18 21  1  0  0  0  0
 21 22  1  0  0  0  0
 21 23  1  0  0  0  0
 13 24  1  0  0  0  0
 24 25  1  0  0  0  0
M  END
> <VConfSearch Rank>
857

> <Conf_Id>
162

> <Delta U+W>
0.219

> <U+W>
11.132

> <U>
13.296

> <W>
-2.164

> <W(PB)>
-4.311

> <W(SA)>
2.148

> <Valence>
18.607

> <Coulomb>
-8.339

> <VdW>
3.028

> <VdW6>
-12.271

> <VdW12>
15.299

> <Bond>
0.423

> <Angle>
4.488

> <Pdih>
13.696

> <Idih>
0.000

> <Tether>
0.000

$$$$
VeraChem MOL file


 25 25  0  0  0  0  0  0  0  0999 V2000     
   21.9965   18.1305   22.3685 C   0  0  0  0  0  0  0  0  0  0  0  0
   22.0059   17.9322   23.4477 H   0  0  0  0  0  0  0  0  0  0  0  0
   22.8406   17.5509   21.9703 H   0  0  0  0  0  0  0  0  0  0  0  0
   20.6950   17.5730   21.7400 C   0  0  0  0  0  0  0  0  0  0  0  0
   20.4929   18.0522   20.7726 H   0  0  0  0  0  0  0  0  0  0  0  0
   20.8813   16.5156   21.5071 H   0  0  0  0  0  0  0  0  0  0  0  0
   19.4437   17.6172   22.6607 C   0  0  0  0  0  0  0  0  0  0  0  0
   19.7114   17.4060   23.7047 H   0  0  0  0  0  0  0  0  0  0  0  0
   18.7944   16.7858   22.3537 H   0  0  0  0  0  0  0  0  0  0  0  0
   18.5936   18.9105   22.5601 C   0  0  0  0  0  0  0  0  0  0  0  0
   18.6203   19.2970   21.5338 H   0  0  0  0  0  0  0  0  0  0  0  0
   17.5445   18.6363   22.7315 H   0  0  0  0  0  0  0  0  0  0  0  0
   18.9273   20.0339   23.5740 C   0  0  0  0  0  0  0  0  0  0  0  0
   18.5978   19.6987   24.5681 H   0  0  0  0  0  0  0  0  0  0  0  0
   20.4186   20.4287   23.6929 C   0  0  0  0  0  0  0  0  0  0  0  0
   20.4888   21.3588   24.2715 H   0  0  0  0  0  0  0  0  0  0  0  0
   20.9353   19.6850   24.3089 H   0  0  0  0  0  0  0  0  0  0  0  0
   21.1480   20.6283   22.3380 C   0  0  0  0  0  0  0  0  0  0  0  0
   21.5636   21.6445   22.3070 H   0  0  0  0  0  0  0  0  0  0  0  0
   20.4390   20.5913   21.5025 H   0  0  0  0  0  0  0  0  0  0  0  0
   22.2996   19.6256   22.0845 C   0  0  0  0  0  0  0  0  0  0  0  0
   23.1641   19.9206   22.6948 H   0  0  0  0  0  0  0  0  0  0  0  0
   22.6222   19.7302   21.0397 H   0  0  0  0  0  0  0  0  0  0  0  0
   18.1811   21.1877   23.2053 O   0  0  0  0  0  0  0  0  0  0  0  0
   18.4051   21.8870   23.8533 H   0  0  0  0  0  0  0  0  0  0  0  0
  1  2  1  0  0  0  0
  1  3  1  0  0  0  0
  1  4  1  0  0  0  0
  4  5  1  0  0  0  0
  4  6  1  0  0  0  0
  4  7  1  0  0  0  0
  7  8  1  0  0  0  0
  7  9  1  0  0  0  0
  7 10  1  0  0  0  0
 10 11  1  0  0  0  0
 10 12  1  0  0  0  0
 10 13  1  0  0  0  0
 13 14  1  0  0  0  0
 13 15  1  0  0  0  0
 15 16  1  0  0  0  0
 15 17  1  0  0  0  0
 15 18  1  0  0  0  0
 18 19  1  0  0  0  0
 18 20  1  0  0  0  0
  1 21  1  0  0  0  0
 18 21  1  0  0  0  0
 21 22  1  0  0  0  0
 21 23  1  0  0  0  0
 13 24  1  0  0  0  0
 24 25  1  0  0  0  0
M  END
> <VConfSearch Rank>
858

> <Conf_Id>
155

> <Delta U+W>
0.339

> <U+W>
11.252

> <U>
13.420

> <W>
-2.167

> <W(PB)>
-4.325

> <W(SA)>
2.157

> <Valence>
18.609

> <Coulomb>
-8.052

> <VdW>
2.863

> <VdW6>
-12.524

> <VdW12>
15.387

> <Bond>
0.430

> <Angle>
4.724

> <Pdih>
13.455

> <Idih>
0.000

> <Tether>
0.000

$$$$
VeraChem MOL file


 25 25  0  0  0  0  0  0  0  0999 V2000     
   22.1684   18.3999   22.4445 C   0  0  0  0  0  0  0  0  0  0  0  0
   23.0031   19.0548   22.7289 H   0  0  0  0  0  0  0  0  0  0  0  0
   22.6325   17.4566   22.1257 H   0  0  0  0  0  0  0  0  0  0  0  0
   21.3175   18.0813   23.7020 C   0  0  0  0  0  0  0  0  0  0  0  0
   20.5566   17.3377   23.4448 H   0  0  0  0  0  0  0  0  0  0  0  0
   21.9641   17.5511   24.4145 H   0  0  0  0  0  0  0  0  0  0  0  0
   20.6836   19.2808   24.4652 C   0  0  0  0  0  0  0  0  0  0  0  0
   21.4335   19.6509   25.1774 H   0  0  0  0  0  0  0  0  0  0  0  0
   19.8515   18.9118   25.0803 H   0  0  0  0  0  0  0  0  0  0  0  0
   20.2011   20.5034   23.6379 C   0  0  0  0  0  0  0  0  0  0  0  0
   19.9219   21.2913   24.3496 H   0  0  0  0  0  0  0  0  0  0  0  0
   21.0535   20.9379   23.1084 H   0  0  0  0  0  0  0  0  0  0  0  0
   19.0059   20.2984   22.6613 C   0  0  0  0  0  0  0  0  0  0  0  0
   19.0661   21.0793   21.8898 H   0  0  0  0  0  0  0  0  0  0  0  0
   18.8881   18.9296   21.9449 C   0  0  0  0  0  0  0  0  0  0  0  0
   18.7635   18.1433   22.6951 H   0  0  0  0  0  0  0  0  0  0  0  0
   17.9339   18.9227   21.4018 H   0  0  0  0  0  0  0  0  0  0  0  0
   19.9966   18.5464   20.9190 C   0  0  0  0  0  0  0  0  0  0  0  0
   19.7090   18.9745   19.9490 H   0  0  0  0  0  0  0  0  0  0  0  0
   19.9846   17.4579   20.7734 H   0  0  0  0  0  0  0  0  0  0  0  0
   21.4504   19.0071   21.2037 C   0  0  0  0  0  0  0  0  0  0  0  0
   21.4866   20.1007   21.2292 H   0  0  0  0  0  0  0  0  0  0  0  0
   22.0569   18.7516   20.3240 H   0  0  0  0  0  0  0  0  0  0  0  0
   17.8030   20.4841   23.3994 O   0  0  0  0  0  0  0  0  0  0  0  0
   17.8569   21.3718   23.8097 H   0  0  0  0  0  0  0  0  0  0  0  0
  1  2  1  0  0  0  0
  1  3  1  0  0  0  0
  1  4  1  0  0  0  0
  4  5  1  0  0  0  0
  4  6  1  0  0  0  0
  4  7  1  0  0  0  0
  7  8  1  0  0  0  0
  7  9  1  0  0  0  0
  7 10  1  0  0  0  0
 10 11  1  0  0  0  0
 10 12  1  0  0  0  0
 10 13  1  0  0  0  0
 13 14  1  0  0  0  0
 13 15  1  0  0  0  0
 15 16  1  0  0  0  0
 15 17  1  0  0  0  0
 15 18  1  0  0  0  0
 18 19  1  0  0  0  0
 18 20  1  0  0  0  0
  1 21  1  0  0  0  0
 18 21  1  0  0  0  0
 21 22  1  0  0  0  0
 21 23  1  0  0  0  0
 13 24  1  0  0  0  0
 24 25  1  0  0  0  0
M  END
> <VConfSearch Rank>
859

> <Conf_Id>
146

> <Delta U+W>
2.553

> <U+W>
13.466

> <U>
15.643

> <W>
-2.176

> <W(PB)>
-4.307

> <W(SA)>
2.131

> <Valence>
18.916

> <Coulomb>
-7.506

> <VdW>
4.232

> <VdW6>
-13.632

> <VdW12>
17.864

> <Bond>
0.735

> <Angle>
9.140

> <Pdih>
9.042

> <Idih>
0.000

> <Tether>
0.000

$$$$
VeraChem MOL file


 25 25  0  0  0  0  0  0  0  0999 V2000     
   20.3845   17.7142   21.2736 C   0  0  0  0  0  0  0  0  0  0  0  0
   20.2353   17.8801   20.1981 H   0  0  0  0  0  0  0  0  0  0  0  0
   20.5557   16.6348   21.3858 H   0  0  0  0  0  0  0  0  0  0  0  0
   19.0763   18.0558   22.0301 C   0  0  0  0  0  0  0  0  0  0  0  0
   18.2951   17.3837   21.6497 H   0  0  0  0  0  0  0  0  0  0  0  0
   19.1705   17.7964   23.0907 H   0  0  0  0  0  0  0  0  0  0  0  0
   18.5537   19.5054   21.8690 C   0  0  0  0  0  0  0  0  0  0  0  0
   17.5720   19.5593   22.3591 H   0  0  0  0  0  0  0  0  0  0  0  0
   18.3673   19.7082   20.8057 H   0  0  0  0  0  0  0  0  0  0  0  0
   19.4370   20.6399   22.4507 C   0  0  0  0  0  0  0  0  0  0  0  0
   20.2371   20.8966   21.7493 H   0  0  0  0  0  0  0  0  0  0  0  0
   18.8132   21.5428   22.4972 H   0  0  0  0  0  0  0  0  0  0  0  0
   20.0273   20.3594   23.8568 C   0  0  0  0  0  0  0  0  0  0  0  0
   19.4433   19.5712   24.3507 H   0  0  0  0  0  0  0  0  0  0  0  0
   21.5245   19.9594   23.8474 C   0  0  0  0  0  0  0  0  0  0  0  0
   22.1011   20.7335   23.3239 H   0  0  0  0  0  0  0  0  0  0  0  0
   21.8850   19.9715   24.8843 H   0  0  0  0  0  0  0  0  0  0  0  0
   21.8757   18.5683   23.2532 C   0  0  0  0  0  0  0  0  0  0  0  0
   21.3414   17.7709   23.7856 H   0  0  0  0  0  0  0  0  0  0  0  0
   22.9393   18.3897   23.4626 H   0  0  0  0  0  0  0  0  0  0  0  0
   21.6765   18.4461   21.7202 C   0  0  0  0  0  0  0  0  0  0  0  0
   22.5249   17.8817   21.3095 H   0  0  0  0  0  0  0  0  0  0  0  0
   21.7476   19.4301   21.2432 H   0  0  0  0  0  0  0  0  0  0  0  0
   19.9119   21.5487   24.6298 O   0  0  0  0  0  0  0  0  0  0  0  0
   20.2350   21.3341   25.5297 H   0  0  0  0  0  0  0  0  0  0  0  0
  1  2  1  0  0  0  0
  1  3  1  0  0  0  0
  1  4  1  0  0  0  0
  4  5  1  0  0  0  0
  4  6  1  0  0  0  0
  4  7  1  0  0  0  0
  7  8  1  0  0  0  0
  7  9  1  0  0  0  0
  7 10  1  0  0  0  0
 10 11  1  0  0  0  0
 10 12  1  0  0  0  0
 10 13  1  0  0  0  0
 13 14  1  0  0  0  0
 13 15  1  0  0  0  0
 15 16  1  0  0  0  0
 15 17  1  0  0  0  0
 15 18  1  0  0  0  0
 18 19  1  0  0  0  0
 18 20  1  0  0  0  0
  1 21  1  0  0  0  0
 18 21  1  0  0  0  0
 21 22  1  0  0  0  0
 21 23  1  0  0  0  0
 13 24  1  0  0  0  0
 24 25  1  0  0  0  0
M  END
> <VConfSearch Rank>
860

> <Conf_Id>
62

> <Delta U+W>
-1.779

> <U+W>
9.134

> <U>
11.364

> <W>
-2.230

> <W(PB)>
-4.359

> <W(SA)>
2.129

> <Valence>
16.582

> <Coulomb>
-8.150

> <VdW>
2.933

> <VdW6>
-12.531

> <VdW12>
15.464

> <Bond>
0.439

> <Angle>
5.099

> <Pdih>
11.044

> <Idih>
0.000

> <Tether>
0.000

$$$$
VeraChem MOL file


 25 25  0  0  0  0  0  0  0  0999 V2000     
   18.8725   20.3164   22.6974 C   0  0  0  0  0  0  0  0  0  0  0  0
   18.5345   19.4305   22.1479 H   0  0  0  0  0  0  0  0  0  0  0  0
   18.0030   20.9877   22.7014 H   0  0  0  0  0  0  0  0  0  0  0  0
   20.0044   21.0344   21.9210 C   0  0  0  0  0  0  0  0  0  0  0  0
   19.5980   21.3274   20.9433 H   0  0  0  0  0  0  0  0  0  0  0  0
   20.2554   21.9739   22.4318 H   0  0  0  0  0  0  0  0  0  0  0  0
   21.3080   20.2338   21.6715 C   0  0  0  0  0  0  0  0  0  0  0  0
   21.9648   20.2852   22.5473 H   0  0  0  0  0  0  0  0  0  0  0  0
   21.8631   20.7574   20.8810 H   0  0  0  0  0  0  0  0  0  0  0  0
   21.1064   18.7601   21.2276 C   0  0  0  0  0  0  0  0  0  0  0  0
   20.1253   18.6203   20.7575 H   0  0  0  0  0  0  0  0  0  0  0  0
   21.8385   18.5573   20.4349 H   0  0  0  0  0  0  0  0  0  0  0  0
   21.3294   17.7067   22.3420 C   0  0  0  0  0  0  0  0  0  0  0  0
   22.3167   17.8848   22.7921 H   0  0  0  0  0  0  0  0  0  0  0  0
   20.2797   17.6763   23.4810 C   0  0  0  0  0  0  0  0  0  0  0  0
   19.2760   17.5033   23.0743 H   0  0  0  0  0  0  0  0  0  0  0  0
   20.4987   16.7919   24.0940 H   0  0  0  0  0  0  0  0  0  0  0  0
   20.2983   18.9095   24.4235 C   0  0  0  0  0  0  0  0  0  0  0  0
   21.2833   19.3897   24.4085 H   0  0  0  0  0  0  0  0  0  0  0  0
   20.1823   18.5533   25.4563 H   0  0  0  0  0  0  0  0  0  0  0  0
   19.1798   19.9527   24.1715 C   0  0  0  0  0  0  0  0  0  0  0  0
   19.4143   20.8689   24.7302 H   0  0  0  0  0  0  0  0  0  0  0  0
   18.2526   19.5641   24.6143 H   0  0  0  0  0  0  0  0  0  0  0  0
   21.3320   16.4236   21.7286 O   0  0  0  0  0  0  0  0  0  0  0  0
   22.0452   16.4324   21.0568 H   0  0  0  0  0  0  0  0  0  0  0  0
  1  2  1  0  0  0  0
  1  3  1  0  0  0  0
  1  4  1  0  0  0  0
  4  5  1  0  0  0  0
  4  6  1  0  0  0  0
  4  7  1  0  0  0  0
  7  8  1  0  0  0  0
  7  9  1  0  0  0  0
  7 10  1  0  0  0  0
 10 11  1  0  0  0  0
 10 12  1  0  0  0  0
 10 13  1  0  0  0  0
 13 14  1  0  0  0  0
 13 15  1  0  0  0  0
 15 16  1  0  0  0  0
 15 17  1  0  0  0  0
 15 18  1  0  0  0  0
 18 19  1  0  0  0  0
 18 20  1  0  0  0  0
  1 21  1  0  0  0  0
 18 21  1  0  0  0  0
 21 22  1  0  0  0  0
 21 23  1  0  0  0  0
 13 24  1  0  0  0  0
 24 25  1  0  0  0  0
M  END
> <VConfSearch Rank>
861

> <Conf_Id>
121

> <Delta U+W>
-1.283

> <U+W>
9.630

> <U>
11.876

> <W>
-2.246

> <W(PB)>
-4.376

> <W(SA)>
2.130

> <Valence>
17.153

> <Coulomb>
-7.966

> <VdW>
2.689

> <VdW6>
-12.458

> <VdW12>
15.147

> <Bond>
0.421

> <Angle>
5.258

> <Pdih>
11.475

> <Idih>
0.000

> <Tether>
0.000

$$$$
VeraChem MOL file


 25 25  0  0  0  0  0  0  0  0999 V2000     
   21.8083   19.6698   21.5878 C   0  0  0  0  0  0  0  0  0  0  0  0
   22.0166   20.1879   22.5308 H   0  0  0  0  0  0  0  0  0  0  0  0
   22.6759   19.8928   20.9521 H   0  0  0  0  0  0  0  0  0  0  0  0
   20.5634   20.2824   20.8987 C   0  0  0  0  0  0  0  0  0  0  0  0
   20.7817   21.3420   20.7077 H   0  0  0  0  0  0  0  0  0  0  0  0
   20.4332   19.8232   19.9094 H   0  0  0  0  0  0  0  0  0  0  0  0
   19.2205   20.2072   21.6692 C   0  0  0  0  0  0  0  0  0  0  0  0
   18.7418   19.2336   21.5144 H   0  0  0  0  0  0  0  0  0  0  0  0
   18.5366   20.9271   21.1991 H   0  0  0  0  0  0  0  0  0  0  0  0
   19.3052   20.5374   23.1836 C   0  0  0  0  0  0  0  0  0  0  0  0
   20.1737   21.1699   23.4033 H   0  0  0  0  0  0  0  0  0  0  0  0
   18.4303   21.1517   23.4344 H   0  0  0  0  0  0  0  0  0  0  0  0
   19.2772   19.3071   24.1247 C   0  0  0  0  0  0  0  0  0  0  0  0
   18.3960   18.7013   23.8688 H   0  0  0  0  0  0  0  0  0  0  0  0
   20.5242   18.3878   24.0939 C   0  0  0  0  0  0  0  0  0  0  0  0
   21.4287   18.9587   24.3373 H   0  0  0  0  0  0  0  0  0  0  0  0
   20.4139   17.6599   24.9083 H   0  0  0  0  0  0  0  0  0  0  0  0
   20.7095   17.5814   22.7806 C   0  0  0  0  0  0  0  0  0  0  0  0
   19.7498   17.4588   22.2659 H   0  0  0  0  0  0  0  0  0  0  0  0
   21.0116   16.5589   23.0454 H   0  0  0  0  0  0  0  0  0  0  0  0
   21.7814   18.1367   21.8082 C   0  0  0  0  0  0  0  0  0  0  0  0
   21.6779   17.6324   20.8380 H   0  0  0  0  0  0  0  0  0  0  0  0
   22.7677   17.8424   22.1922 H   0  0  0  0  0  0  0  0  0  0  0  0
   19.1293   19.7893   25.4544 O   0  0  0  0  0  0  0  0  0  0  0  0
   19.0442   19.0029   26.0328 H   0  0  0  0  0  0  0  0  0  0  0  0
  1  2  1  0  0  0  0
  1  3  1  0  0  0  0
  1  4  1  0  0  0  0
  4  5  1  0  0  0  0
  4  6  1  0  0  0  0
  4  7  1  0  0  0  0
  7  8  1  0  0  0  0
  7  9  1  0  0  0  0
  7 10  1  0  0  0  0
 10 11  1  0  0  0  0
 10 12  1  0  0  0  0
 10 13  1  0  0  0  0
 13 14  1  0  0  0  0
 13 15  1  0  0  0  0
 15 16  1  0  0  0  0
 15 17  1  0  0  0  0
 15 18  1  0  0  0  0
 18 19  1  0  0  0  0
 18 20  1  0  0  0  0
  1 21  1  0  0  0  0
 18 21  1  0  0  0  0
 21 22  1  0  0  0  0
 21 23  1  0  0  0  0
 13 24  1  0  0  0  0
 24 25  1  0  0  0  0
M  END
> <VConfSearch Rank>
862

> <Conf_Id>
24

> <Delta U+W>
-1.236

> <U+W>
9.678

> <U>
11.876

> <W>
-2.199

> <W(PB)>
-4.335

> <W(SA)>
2.137

> <Valence>
17.153

> <Coulomb>
-7.966

> <VdW>
2.689

> <VdW6>
-12.458

> <VdW12>
15.147

> <Bond>
0.421

> <Angle>
5.258

> <Pdih>
11.475

> <Idih>
0.000

> <Tether>
0.000

$$$$
VeraChem MOL file


 25 25  0  0  0  0  0  0  0  0999 V2000     
   19.7293   20.1091   20.7813 C   0  0  0  0  0  0  0  0  0  0  0  0
   20.3535   20.8671   20.2888 H   0  0  0  0  0  0  0  0  0  0  0  0
   18.8274   20.0181   20.1606 H   0  0  0  0  0  0  0  0  0  0  0  0
   20.4723   18.7472   20.7464 C   0  0  0  0  0  0  0  0  0  0  0  0
   19.7723   17.9204   20.9217 H   0  0  0  0  0  0  0  0  0  0  0  0
   20.8238   18.6013   19.7157 H   0  0  0  0  0  0  0  0  0  0  0  0
   21.6941   18.6151   21.6889 C   0  0  0  0  0  0  0  0  0  0  0  0
   22.2220   19.5740   21.7800 H   0  0  0  0  0  0  0  0  0  0  0  0
   22.4049   17.9374   21.1963 H   0  0  0  0  0  0  0  0  0  0  0  0
   21.3871   18.0079   23.0871 C   0  0  0  0  0  0  0  0  0  0  0  0
   20.6201   17.2264   23.0135 H   0  0  0  0  0  0  0  0  0  0  0  0
   22.3015   17.4932   23.4126 H   0  0  0  0  0  0  0  0  0  0  0  0
   21.0101   19.0383   24.1794 C   0  0  0  0  0  0  0  0  0  0  0  0
   21.4989   19.9925   23.9424 H   0  0  0  0  0  0  0  0  0  0  0  0
   19.4908   19.2754   24.3726 C   0  0  0  0  0  0  0  0  0  0  0  0
   19.0443   18.3987   24.8599 H   0  0  0  0  0  0  0  0  0  0  0  0
   19.3715   20.1070   25.0796 H   0  0  0  0  0  0  0  0  0  0  0  0
   18.6653   19.5943   23.1008 C   0  0  0  0  0  0  0  0  0  0  0  0
   17.6804   19.9633   23.4178 H   0  0  0  0  0  0  0  0  0  0  0  0
   18.4539   18.6673   22.5552 H   0  0  0  0  0  0  0  0  0  0  0  0
   19.3166   20.6501   22.1722 C   0  0  0  0  0  0  0  0  0  0  0  0
   20.1805   21.1216   22.6550 H   0  0  0  0  0  0  0  0  0  0  0  0
   18.6024   21.4705   22.0183 H   0  0  0  0  0  0  0  0  0  0  0  0
   21.5266   18.5810   25.4227 O   0  0  0  0  0  0  0  0  0  0  0  0
   21.0933   17.7217   25.6035 H   0  0  0  0  0  0  0  0  0  0  0  0
  1  2  1  0  0  0  0
  1  3  1  0  0  0  0
  1  4  1  0  0  0  0
  4  5  1  0  0  0  0
  4  6  1  0  0  0  0
  4  7  1  0  0  0  0
  7  8  1  0  0  0  0
  7  9  1  0  0  0  0
  7 10  1  0  0  0  0
 10 11  1  0  0  0  0
 10 12  1  0  0  0  0
 10 13  1  0  0  0  0
 13 14  1  0  0  0  0
 13 15  1  0  0  0  0
 15 16  1  0  0  0  0
 15 17  1  0  0  0  0
 15 18  1  0  0  0  0
 18 19  1  0  0  0  0
 18 20  1  0  0  0  0
  1 21  1  0  0  0  0
 18 21  1  0  0  0  0
 21 22  1  0  0  0  0
 21 23  1  0  0  0  0
 13 24  1  0  0  0  0
 24 25  1  0  0  0  0
M  END
> <VConfSearch Rank>
863

> <Conf_Id>
167

> <Delta U+W>
0.388

> <U+W>
11.301

> <U>
13.202

> <W>
-1.901

> <W(PB)>
-4.065

> <W(SA)>
2.163

> <Valence>
18.957

> <Coulomb>
-8.753

> <VdW>
2.998

> <VdW6>
-12.294

> <VdW12>
15.292

> <Bond>
0.419

> <Angle>
4.543

> <Pdih>
13.996

> <Idih>
0.000

> <Tether>
0.000

$$$$
VeraChem MOL file


 25 25  0  0  0  0  0  0  0  0999 V2000     
   18.7180   20.0556   21.6255 C   0  0  0  0  0  0  0  0  0  0  0  0
   18.1269   19.4583   20.9181 H   0  0  0  0  0  0  0  0  0  0  0  0
   18.2520   21.0504   21.6342 H   0  0  0  0  0  0  0  0  0  0  0  0
   20.1570   20.2139   21.0690 C   0  0  0  0  0  0  0  0  0  0  0  0
   20.5057   19.2741   20.6262 H   0  0  0  0  0  0  0  0  0  0  0  0
   20.0993   20.9098   20.2209 H   0  0  0  0  0  0  0  0  0  0  0  0
   21.2034   20.7639   22.0727 C   0  0  0  0  0  0  0  0  0  0  0  0
   20.7220   21.3647   22.8551 H   0  0  0  0  0  0  0  0  0  0  0  0
   21.8469   21.4671   21.5266 H   0  0  0  0  0  0  0  0  0  0  0  0
   22.1348   19.6898   22.6978 C   0  0  0  0  0  0  0  0  0  0  0  0
   22.6353   19.1299   21.8970 H   0  0  0  0  0  0  0  0  0  0  0  0
   22.9345   20.2178   23.2341 H   0  0  0  0  0  0  0  0  0  0  0  0
   21.4855   18.6915   23.6884 C   0  0  0  0  0  0  0  0  0  0  0  0
   20.9577   19.2536   24.4705 H   0  0  0  0  0  0  0  0  0  0  0  0
   20.5159   17.6802   23.0237 C   0  0  0  0  0  0  0  0  0  0  0  0
   20.7434   17.5858   21.9572 H   0  0  0  0  0  0  0  0  0  0  0  0
   20.6982   16.6765   23.4304 H   0  0  0  0  0  0  0  0  0  0  0  0
   19.0093   17.9878   23.2247 C   0  0  0  0  0  0  0  0  0  0  0  0
   18.7344   17.6786   24.2424 H   0  0  0  0  0  0  0  0  0  0  0  0
   18.4223   17.3492   22.5508 H   0  0  0  0  0  0  0  0  0  0  0  0
   18.5654   19.4618   23.0484 C   0  0  0  0  0  0  0  0  0  0  0  0
   19.0617   20.1045   23.7844 H   0  0  0  0  0  0  0  0  0  0  0  0
   17.4998   19.5143   23.3105 H   0  0  0  0  0  0  0  0  0  0  0  0
   22.5392   17.9596   24.3034 O   0  0  0  0  0  0  0  0  0  0  0  0
   22.1235   17.3812   24.9766 H   0  0  0  0  0  0  0  0  0  0  0  0
  1  2  1  0  0  0  0
  1  3  1  0  0  0  0
  1  4  1  0  0  0  0
  4  5  1  0  0  0  0
  4  6  1  0  0  0  0
  4  7  1  0  0  0  0
  7  8  1  0  0  0  0
  7  9  1  0  0  0  0
  7 10  1  0  0  0  0
 10 11  1  0  0  0  0
 10 12  1  0  0  0  0
 10 13  1  0  0  0  0
 13 14  1  0  0  0  0
 13 15  1  0  0  0  0
 15 16  1  0  0  0  0
 15 17  1  0  0  0  0
 15 18  1  0  0  0  0
 18 19  1  0  0  0  0
 18 20  1  0  0  0  0
  1 21  1  0  0  0  0
 18 21  1  0  0  0  0
 21 22  1  0  0  0  0
 21 23  1  0  0  0  0
 13 24  1  0  0  0  0
 24 25  1  0  0  0  0
M  END
> <VConfSearch Rank>
864

> <Conf_Id>
60

> <Delta U+W>
-1.838

> <U+W>
9.075

> <U>
11.150

> <W>
-2.074

> <W(PB)>
-4.196

> <W(SA)>
2.121

> <Valence>
16.582

> <Coulomb>
-8.361

> <VdW>
2.928

> <VdW6>
-12.539

> <VdW12>
15.467

> <Bond>
0.441

> <Angle>
5.093

> <Pdih>
11.049

> <Idih>
0.000

> <Tether>
0.000

$$$$
VeraChem MOL file


 25 25  0  0  0  0  0  0  0  0999 V2000     
   22.3722   19.3556   22.4807 C   0  0  0  0  0  0  0  0  0  0  0  0
   22.8529   20.3262   22.2979 H   0  0  0  0  0  0  0  0  0  0  0  0
   23.1886   18.6208   22.5037 H   0  0  0  0  0  0  0  0  0  0  0  0
   21.4647   18.9997   21.2764 C   0  0  0  0  0  0  0  0  0  0  0  0
   22.1099   18.9386   20.3894 H   0  0  0  0  0  0  0  0  0  0  0  0
   21.0587   17.9882   21.3914 H   0  0  0  0  0  0  0  0  0  0  0  0
   20.3331   20.0074   20.9524 C   0  0  0  0  0  0  0  0  0  0  0  0
   19.8582   19.6824   20.0166 H   0  0  0  0  0  0  0  0  0  0  0  0
   20.7736   20.9903   20.7369 H   0  0  0  0  0  0  0  0  0  0  0  0
   19.2194   20.1779   22.0180 C   0  0  0  0  0  0  0  0  0  0  0  0
   19.5531   20.8583   22.8079 H   0  0  0  0  0  0  0  0  0  0  0  0
   18.3883   20.7090   21.5351 H   0  0  0  0  0  0  0  0  0  0  0  0
   18.6979   18.8557   22.6380 C   0  0  0  0  0  0  0  0  0  0  0  0
   18.9516   18.0120   21.9823 H   0  0  0  0  0  0  0  0  0  0  0  0
   19.2354   18.5699   24.0623 C   0  0  0  0  0  0  0  0  0  0  0  0
   19.0115   19.4265   24.7115 H   0  0  0  0  0  0  0  0  0  0  0  0
   18.6600   17.7294   24.4725 H   0  0  0  0  0  0  0  0  0  0  0  0
   20.7410   18.2089   24.1846 C   0  0  0  0  0  0  0  0  0  0  0  0
   20.9811   17.3284   23.5747 H   0  0  0  0  0  0  0  0  0  0  0  0
   20.9114   17.8935   25.2230 H   0  0  0  0  0  0  0  0  0  0  0  0
   21.7169   19.3767   23.8862 C   0  0  0  0  0  0  0  0  0  0  0  0
   22.5318   19.3366   24.6219 H   0  0  0  0  0  0  0  0  0  0  0  0
   21.2307   20.3411   24.0716 H   0  0  0  0  0  0  0  0  0  0  0  0
   17.2803   18.9355   22.7287 O   0  0  0  0  0  0  0  0  0  0  0  0
   16.9463   19.0471   21.8140 H   0  0  0  0  0  0  0  0  0  0  0  0
  1  2  1  0  0  0  0
  1  3  1  0  0  0  0
  1  4  1  0  0  0  0
  4  5  1  0  0  0  0
  4  6  1  0  0  0  0
  4  7  1  0  0  0  0
  7  8  1  0  0  0  0
  7  9  1  0  0  0  0
  7 10  1  0  0  0  0
 10 11  1  0  0  0  0
 10 12  1  0  0  0  0
 10 13  1  0  0  0  0
 13 14  1  0  0  0  0
 13 15  1  0  0  0  0
 15 16  1  0  0  0  0
 15 17  1  0  0  0  0
 15 18  1  0  0  0  0
 18 19  1  0  0  0  0
 18 20  1  0  0  0  0
  1 21  1  0  0  0  0
 18 21  1  0  0  0  0
 21 22  1  0  0  0  0
 21 23  1  0  0  0  0
 13 24  1  0  0  0  0
 24 25  1  0  0  0  0
M  END
> <VConfSearch Rank>
865

> <Conf_Id>
129

> <Delta U+W>
-1.846

> <U+W>
9.067

> <U>
11.150

> <W>
-2.083

> <W(PB)>
-4.217

> <W(SA)>
2.134

> <Valence>
16.583

> <Coulomb>
-8.361

> <VdW>
2.928

> <VdW6>
-12.539

> <VdW12>
15.467

> <Bond>
0.441

> <Angle>
5.093

> <Pdih>
11.049

> <Idih>
0.000

> <Tether>
0.000

$$$$
VeraChem MOL file


 25 25  0  0  0  0  0  0  0  0999 V2000     
   20.2572   17.1656   22.4226 C   0  0  0  0  0  0  0  0  0  0  0  0
   20.4106   16.5029   23.2850 H   0  0  0  0  0  0  0  0  0  0  0  0
   20.1142   16.5005   21.5600 H   0  0  0  0  0  0  0  0  0  0  0  0
   21.5495   17.9812   22.1680 C   0  0  0  0  0  0  0  0  0  0  0  0
   22.3511   17.2620   21.9512 H   0  0  0  0  0  0  0  0  0  0  0  0
   21.4533   18.5713   21.2494 H   0  0  0  0  0  0  0  0  0  0  0  0
   22.0361   18.8723   23.3382 C   0  0  0  0  0  0  0  0  0  0  0  0
   23.0114   19.2895   23.0523 H   0  0  0  0  0  0  0  0  0  0  0  0
   22.2278   18.2433   24.2181 H   0  0  0  0  0  0  0  0  0  0  0  0
   21.1186   20.0520   23.7527 C   0  0  0  0  0  0  0  0  0  0  0  0
   20.3192   19.6957   24.4103 H   0  0  0  0  0  0  0  0  0  0  0  0
   21.7210   20.7185   24.3848 H   0  0  0  0  0  0  0  0  0  0  0  0
   20.5230   20.8655   22.5745 C   0  0  0  0  0  0  0  0  0  0  0  0
   21.1221   20.6988   21.6694 H   0  0  0  0  0  0  0  0  0  0  0  0
   19.0373   20.5490   22.2690 C   0  0  0  0  0  0  0  0  0  0  0  0
   18.4397   20.6852   23.1798 H   0  0  0  0  0  0  0  0  0  0  0  0
   18.6746   21.3043   21.5589 H   0  0  0  0  0  0  0  0  0  0  0  0
   18.7283   19.1541   21.6607 C   0  0  0  0  0  0  0  0  0  0  0  0
   19.2805   19.0068   20.7236 H   0  0  0  0  0  0  0  0  0  0  0  0
   17.6686   19.1583   21.3710 H   0  0  0  0  0  0  0  0  0  0  0  0
   18.9423   17.9613   22.6282 C   0  0  0  0  0  0  0  0  0  0  0  0
   18.1128   17.2547   22.4877 H   0  0  0  0  0  0  0  0  0  0  0  0
   18.8476   18.2885   23.6697 H   0  0  0  0  0  0  0  0  0  0  0  0
   20.6012   22.2466   22.9039 O   0  0  0  0  0  0  0  0  0  0  0  0
   20.0575   22.3702   23.7089 H   0  0  0  0  0  0  0  0  0  0  0  0
  1  2  1  0  0  0  0
  1  3  1  0  0  0  0
  1  4  1  0  0  0  0
  4  5  1  0  0  0  0
  4  6  1  0  0  0  0
  4  7  1  0  0  0  0
  7  8  1  0  0  0  0
  7  9  1  0  0  0  0
  7 10  1  0  0  0  0
 10 11  1  0  0  0  0
 10 12  1  0  0  0  0
 10 13  1  0  0  0  0
 13 14  1  0  0  0  0
 13 15  1  0  0  0  0
 15 16  1  0  0  0  0
 15 17  1  0  0  0  0
 15 18  1  0  0  0  0
 18 19  1  0  0  0  0
 18 20  1  0  0  0  0
  1 21  1  0  0  0  0
 18 21  1  0  0  0  0
 21 22  1  0  0  0  0
 21 23  1  0  0  0  0
 13 24  1  0  0  0  0
 24 25  1  0  0  0  0
M  END
> <VConfSearch Rank>
866

> <Conf_Id>
140

> <Delta U+W>
-1.702

> <U+W>
9.211

> <U>
11.181

> <W>
-1.969

> <W(PB)>
-4.093

> <W(SA)>
2.124

> <Valence>
16.954

> <Coulomb>
-8.661

> <VdW>
2.887

> <VdW6>
-12.561

> <VdW12>
15.448

> <Bond>
0.433

> <Angle>
5.120

> <Pdih>
11.401

> <Idih>
0.000

> <Tether>
0.000

$$$$
VeraChem MOL file


 25 25  0  0  0  0  0  0  0  0999 V2000     
   20.2700   17.1166   22.7124 C   0  0  0  0  0  0  0  0  0  0  0  0
   20.4195   16.5814   23.6599 H   0  0  0  0  0  0  0  0  0  0  0  0
   20.1462   16.3370   21.9484 H   0  0  0  0  0  0  0  0  0  0  0  0
   21.5594   17.9087   22.3740 C   0  0  0  0  0  0  0  0  0  0  0  0
   21.9746   18.3739   23.2751 H   0  0  0  0  0  0  0  0  0  0  0  0
   22.3185   17.1744   22.0715 H   0  0  0  0  0  0  0  0  0  0  0  0
   21.4192   18.9534   21.2367 C   0  0  0  0  0  0  0  0  0  0  0  0
   20.5995   18.6891   20.5562 H   0  0  0  0  0  0  0  0  0  0  0  0
   22.3293   18.8983   20.6238 H   0  0  0  0  0  0  0  0  0  0  0  0
   21.2845   20.4240   21.7167 C   0  0  0  0  0  0  0  0  0  0  0  0
   22.1390   20.6729   22.3595 H   0  0  0  0  0  0  0  0  0  0  0  0
   21.3795   21.0679   20.8321 H   0  0  0  0  0  0  0  0  0  0  0  0
   19.9676   20.8067   22.4380 C   0  0  0  0  0  0  0  0  0  0  0  0
   19.1143   20.5284   21.8052 H   0  0  0  0  0  0  0  0  0  0  0  0
   19.8039   20.1736   23.8440 C   0  0  0  0  0  0  0  0  0  0  0  0
   20.7814   19.8963   24.2515 H   0  0  0  0  0  0  0  0  0  0  0  0
   19.4186   20.9315   24.5396 H   0  0  0  0  0  0  0  0  0  0  0  0
   18.8340   18.9652   23.9110 C   0  0  0  0  0  0  0  0  0  0  0  0
   17.8077   19.3571   23.9002 H   0  0  0  0  0  0  0  0  0  0  0  0
   18.9521   18.4665   24.8825 H   0  0  0  0  0  0  0  0  0  0  0  0
   18.9429   17.9133   22.7789 C   0  0  0  0  0  0  0  0  0  0  0  0
   18.7231   18.3699   21.8071 H   0  0  0  0  0  0  0  0  0  0  0  0
   18.1338   17.1860   22.9313 H   0  0  0  0  0  0  0  0  0  0  0  0
   19.9621   22.2211   22.5842 O   0  0  0  0  0  0  0  0  0  0  0  0
   20.7320   22.4440   23.1469 H   0  0  0  0  0  0  0  0  0  0  0  0
  1  2  1  0  0  0  0
  1  3  1  0  0  0  0
  1  4  1  0  0  0  0
  4  5  1  0  0  0  0
  4  6  1  0  0  0  0
  4  7  1  0  0  0  0
  7  8  1  0  0  0  0
  7  9  1  0  0  0  0
  7 10  1  0  0  0  0
 10 11  1  0  0  0  0
 10 12  1  0  0  0  0
 10 13  1  0  0  0  0
 13 14  1  0  0  0  0
 13 15  1  0  0  0  0
 15 16  1  0  0  0  0
 15 17  1  0  0  0  0
 15 18  1  0  0  0  0
 18 19  1  0  0  0  0
 18 20  1  0  0  0  0
  1 21  1  0  0  0  0
 18 21  1  0  0  0  0
 21 22  1  0  0  0  0
 21 23  1  0  0  0  0
 13 24  1  0  0  0  0
 24 25  1  0  0  0  0
M  END
> <VConfSearch Rank>
867

> <Conf_Id>
68

> <Delta U+W>
-1.765

> <U+W>
9.148

> <U>
11.181

> <W>
-2.032

> <W(PB)>
-4.147

> <W(SA)>
2.114

> <Valence>
16.955

> <Coulomb>
-8.661

> <VdW>
2.887

> <VdW6>
-12.561

> <VdW12>
15.448

> <Bond>
0.433

> <Angle>
5.121

> <Pdih>
11.402

> <Idih>
0.000

> <Tether>
0.000

$$$$
VeraChem MOL file


 25 25  0  0  0  0  0  0  0  0999 V2000     
   21.4140   17.7424   22.5591 C   0  0  0  0  0  0  0  0  0  0  0  0
   22.0285   16.8318   22.5723 H   0  0  0  0  0  0  0  0  0  0  0  0
   22.0837   18.5158   22.1663 H   0  0  0  0  0  0  0  0  0  0  0  0
   21.0033   18.0668   24.0190 C   0  0  0  0  0  0  0  0  0  0  0  0
   20.0143   17.6525   24.2532 H   0  0  0  0  0  0  0  0  0  0  0  0
   21.6995   17.5366   24.6832 H   0  0  0  0  0  0  0  0  0  0  0  0
   21.0741   19.5697   24.3967 C   0  0  0  0  0  0  0  0  0  0  0  0
   22.0862   19.9481   24.1979 H   0  0  0  0  0  0  0  0  0  0  0  0
   20.9394   19.6471   25.4842 H   0  0  0  0  0  0  0  0  0  0  0  0
   20.0353   20.5066   23.7246 C   0  0  0  0  0  0  0  0  0  0  0  0
   19.0163   20.1615   23.9372 H   0  0  0  0  0  0  0  0  0  0  0  0
   20.1195   21.4815   24.2237 H   0  0  0  0  0  0  0  0  0  0  0  0
   20.2446   20.7111   22.2017 C   0  0  0  0  0  0  0  0  0  0  0  0
   21.2757   20.4431   21.9435 H   0  0  0  0  0  0  0  0  0  0  0  0
   19.2714   19.9125   21.3000 C   0  0  0  0  0  0  0  0  0  0  0  0
   18.2988   20.4221   21.2999 H   0  0  0  0  0  0  0  0  0  0  0  0
   19.6369   19.9627   20.2661 H   0  0  0  0  0  0  0  0  0  0  0  0
   19.0163   18.4293   21.6728 C   0  0  0  0  0  0  0  0  0  0  0  0
   18.2529   18.0453   20.9825 H   0  0  0  0  0  0  0  0  0  0  0  0
   18.5540   18.3571   22.6640 H   0  0  0  0  0  0  0  0  0  0  0  0
   20.2399   17.4837   21.5796 C   0  0  0  0  0  0  0  0  0  0  0  0
   20.6259   17.4891   20.5512 H   0  0  0  0  0  0  0  0  0  0  0  0
   19.8778   16.4613   21.7544 H   0  0  0  0  0  0  0  0  0  0  0  0
   20.0706   22.0904   21.9018 O   0  0  0  0  0  0  0  0  0  0  0  0
   19.1518   22.3152   22.1550 H   0  0  0  0  0  0  0  0  0  0  0  0
  1  2  1  0  0  0  0
  1  3  1  0  0  0  0
  1  4  1  0  0  0  0
  4  5  1  0  0  0  0
  4  6  1  0  0  0  0
  4  7  1  0  0  0  0
  7  8  1  0  0  0  0
  7  9  1  0  0  0  0
  7 10  1  0  0  0  0
 10 11  1  0  0  0  0
 10 12  1  0  0  0  0
 10 13  1  0  0  0  0
 13 14  1  0  0  0  0
 13 15  1  0  0  0  0
 15 16  1  0  0  0  0
 15 17  1  0  0  0  0
 15 18  1  0  0  0  0
 18 19  1  0  0  0  0
 18 20  1  0  0  0  0
  1 21  1  0  0  0  0
 18 21  1  0  0  0  0
 21 22  1  0  0  0  0
 21 23  1  0  0  0  0
 13 24  1  0  0  0  0
 24 25  1  0  0  0  0
M  END
> <VConfSearch Rank>
868

> <Conf_Id>
165

> <Delta U+W>
-1.999

> <U+W>
8.915

> <U>
10.935

> <W>
-2.020

> <W(PB)>
-4.135

> <W(SA)>
2.115

> <Valence>
16.757

> <Coulomb>
-8.731

> <VdW>
2.908

> <VdW6>
-12.597

> <VdW12>
15.506

> <Bond>
0.434

> <Angle>
5.069

> <Pdih>
11.254

> <Idih>
0.000

> <Tether>
0.000

$$$$
VeraChem MOL file


 25 25  0  0  0  0  0  0  0  0999 V2000     
   21.5880   20.4805   22.4808 C   0  0  0  0  0  0  0  0  0  0  0  0
   22.3973   21.2227   22.4434 H   0  0  0  0  0  0  0  0  0  0  0  0
   20.9923   20.6837   21.5838 H   0  0  0  0  0  0  0  0  0  0  0  0
   20.7659   20.7699   23.7637 C   0  0  0  0  0  0  0  0  0  0  0  0
   21.4755   20.9968   24.5711 H   0  0  0  0  0  0  0  0  0  0  0  0
   20.1838   21.6894   23.6145 H   0  0  0  0  0  0  0  0  0  0  0  0
   19.8290   19.6469   24.2750 C   0  0  0  0  0  0  0  0  0  0  0  0
   19.4074   19.9827   25.2322 H   0  0  0  0  0  0  0  0  0  0  0  0
   20.4094   18.7522   24.5276 H   0  0  0  0  0  0  0  0  0  0  0  0
   18.6396   19.2783   23.3510 C   0  0  0  0  0  0  0  0  0  0  0  0
   18.0143   18.5557   23.8926 H   0  0  0  0  0  0  0  0  0  0  0  0
   18.0153   20.1691   23.2045 H   0  0  0  0  0  0  0  0  0  0  0  0
   18.9810   18.6788   21.9647 C   0  0  0  0  0  0  0  0  0  0  0  0
   19.2926   19.4841   21.2892 H   0  0  0  0  0  0  0  0  0  0  0  0
   20.0806   17.5859   21.9862 C   0  0  0  0  0  0  0  0  0  0  0  0
   20.1596   17.1311   22.9807 H   0  0  0  0  0  0  0  0  0  0  0  0
   19.7698   16.7680   21.3221 H   0  0  0  0  0  0  0  0  0  0  0  0
   21.4734   18.0625   21.4941 C   0  0  0  0  0  0  0  0  0  0  0  0
   21.3763   18.4852   20.4847 H   0  0  0  0  0  0  0  0  0  0  0  0
   22.1096   17.1741   21.3811 H   0  0  0  0  0  0  0  0  0  0  0  0
   22.2262   19.0691   22.4034 C   0  0  0  0  0  0  0  0  0  0  0  0
   23.2354   19.1856   21.9851 H   0  0  0  0  0  0  0  0  0  0  0  0
   22.3797   18.6488   23.4057 H   0  0  0  0  0  0  0  0  0  0  0  0
   17.7867   18.1080   21.4418 O   0  0  0  0  0  0  0  0  0  0  0  0
   17.1248   18.8294   21.3977 H   0  0  0  0  0  0  0  0  0  0  0  0
  1  2  1  0  0  0  0
  1  3  1  0  0  0  0
  1  4  1  0  0  0  0
  4  5  1  0  0  0  0
  4  6  1  0  0  0  0
  4  7  1  0  0  0  0
  7  8  1  0  0  0  0
  7  9  1  0  0  0  0
  7 10  1  0  0  0  0
 10 11  1  0  0  0  0
 10 12  1  0  0  0  0
 10 13  1  0  0  0  0
 13 14  1  0  0  0  0
 13 15  1  0  0  0  0
 15 16  1  0  0  0  0
 15 17  1  0  0  0  0
 15 18  1  0  0  0  0
 18 19  1  0  0  0  0
 18 20  1  0  0  0  0
  1 21  1  0  0  0  0
 18 21  1  0  0  0  0
 21 22  1  0  0  0  0
 21 23  1  0  0  0  0
 13 24  1  0  0  0  0
 24 25  1  0  0  0  0
M  END
> <VConfSearch Rank>
869

> <Conf_Id>
133

> <Delta U+W>
-2.139

> <U+W>
8.774

> <U>
10.905

> <W>
-2.131

> <W(PB)>
-4.281

> <W(SA)>
2.150

> <Valence>
16.378

> <Coulomb>
-8.448

> <VdW>
2.976

> <VdW6>
-12.570

> <VdW12>
15.545

> <Bond>
0.439

> <Angle>
5.049

> <Pdih>
10.889

> <Idih>
0.000

> <Tether>
0.000

$$$$
VeraChem MOL file


 25 25  0  0  0  0  0  0  0  0999 V2000     
   21.2038   20.3037   23.8378 C   0  0  0  0  0  0  0  0  0  0  0  0
   21.6854   21.0037   24.5343 H   0  0  0  0  0  0  0  0  0  0  0  0
   21.9503   19.5161   23.6857 H   0  0  0  0  0  0  0  0  0  0  0  0
   20.9293   21.0584   22.5109 C   0  0  0  0  0  0  0  0  0  0  0  0
   19.9085   21.4611   22.4888 H   0  0  0  0  0  0  0  0  0  0  0  0
   21.5845   21.9401   22.4911 H   0  0  0  0  0  0  0  0  0  0  0  0
   21.2276   20.2443   21.2245 C   0  0  0  0  0  0  0  0  0  0  0  0
   22.2688   19.8946   21.2477 H   0  0  0  0  0  0  0  0  0  0  0  0
   21.1677   20.9340   20.3715 H   0  0  0  0  0  0  0  0  0  0  0  0
   20.2903   19.0434   20.9270 C   0  0  0  0  0  0  0  0  0  0  0  0
   19.2471   19.3758   20.8681 H   0  0  0  0  0  0  0  0  0  0  0  0
   20.5348   18.6900   19.9161 H   0  0  0  0  0  0  0  0  0  0  0  0
   20.4358   17.8534   21.9102 C   0  0  0  0  0  0  0  0  0  0  0  0
   21.4028   17.9300   22.4210 H   0  0  0  0  0  0  0  0  0  0  0  0
   19.3077   17.7464   22.9655 C   0  0  0  0  0  0  0  0  0  0  0  0
   18.4181   17.3283   22.4754 H   0  0  0  0  0  0  0  0  0  0  0  0
   19.6066   17.0140   23.7263 H   0  0  0  0  0  0  0  0  0  0  0  0
   18.8747   19.0559   23.6739 C   0  0  0  0  0  0  0  0  0  0  0  0
   18.0252   18.8097   24.3254 H   0  0  0  0  0  0  0  0  0  0  0  0
   18.4679   19.7682   22.9470 H   0  0  0  0  0  0  0  0  0  0  0  0
   19.9493   19.7407   24.5552 C   0  0  0  0  0  0  0  0  0  0  0  0
   20.2706   19.0457   25.3428 H   0  0  0  0  0  0  0  0  0  0  0  0
   19.4610   20.5746   25.0778 H   0  0  0  0  0  0  0  0  0  0  0  0
   20.4331   16.6442   21.1598 O   0  0  0  0  0  0  0  0  0  0  0  0
   20.5713   15.9147   21.7994 H   0  0  0  0  0  0  0  0  0  0  0  0
  1  2  1  0  0  0  0
  1  3  1  0  0  0  0
  1  4  1  0  0  0  0
  4  5  1  0  0  0  0
  4  6  1  0  0  0  0
  4  7  1  0  0  0  0
  7  8  1  0  0  0  0
  7  9  1  0  0  0  0
  7 10  1  0  0  0  0
 10 11  1  0  0  0  0
 10 12  1  0  0  0  0
 10 13  1  0  0  0  0
 13 14  1  0  0  0  0
 13 15  1  0  0  0  0
 15 16  1  0  0  0  0
 15 17  1  0  0  0  0
 15 18  1  0  0  0  0
 18 19  1  0  0  0  0
 18 20  1  0  0  0  0
  1 21  1  0  0  0  0
 18 21  1  0  0  0  0
 21 22  1  0  0  0  0
 21 23  1  0  0  0  0
 13 24  1  0  0  0  0
 24 25  1  0  0  0  0
M  END
> <VConfSearch Rank>
870

> <Conf_Id>
95

> <Delta U+W>
-2.190

> <U+W>
8.723

> <U>
10.905

> <W>
-2.182

> <W(PB)>
-4.296

> <W(SA)>
2.114

> <Valence>
16.377

> <Coulomb>
-8.448

> <VdW>
2.976

> <VdW6>
-12.570

> <VdW12>
15.546

> <Bond>
0.439

> <Angle>
5.049

> <Pdih>
10.889

> <Idih>
0.000

> <Tether>
0.000

$$$$
VeraChem MOL file


 25 25  0  0  0  0  0  0  0  0999 V2000     
   18.7210   19.0002   23.5725 C   0  0  0  0  0  0  0  0  0  0  0  0
   17.7365   18.9926   24.0600 H   0  0  0  0  0  0  0  0  0  0  0  0
   19.3430   18.4034   24.2471 H   0  0  0  0  0  0  0  0  0  0  0  0
   19.2000   20.4813   23.5370 C   0  0  0  0  0  0  0  0  0  0  0  0
   18.3109   21.1098   23.3905 H   0  0  0  0  0  0  0  0  0  0  0  0
   19.5898   20.7536   24.5272 H   0  0  0  0  0  0  0  0  0  0  0  0
   20.2276   20.8938   22.4506 C   0  0  0  0  0  0  0  0  0  0  0  0
   20.3510   21.9840   22.5066 H   0  0  0  0  0  0  0  0  0  0  0  0
   19.7892   20.7366   21.4601 H   0  0  0  0  0  0  0  0  0  0  0  0
   21.6508   20.2659   22.5336 C   0  0  0  0  0  0  0  0  0  0  0  0
   22.1302   20.3422   21.5488 H   0  0  0  0  0  0  0  0  0  0  0  0
   22.2442   20.9027   23.2027 H   0  0  0  0  0  0  0  0  0  0  0  0
   21.7817   18.8104   23.0493 C   0  0  0  0  0  0  0  0  0  0  0  0
   21.3398   18.7640   24.0500 H   0  0  0  0  0  0  0  0  0  0  0  0
   21.1719   17.6897   22.1589 C   0  0  0  0  0  0  0  0  0  0  0  0
   21.9257   17.4027   21.4134 H   0  0  0  0  0  0  0  0  0  0  0  0
   21.0195   16.7993   22.7820 H   0  0  0  0  0  0  0  0  0  0  0  0
   19.8618   17.9913   21.3819 C   0  0  0  0  0  0  0  0  0  0  0  0
   19.6530   17.1277   20.7359 H   0  0  0  0  0  0  0  0  0  0  0  0
   20.0418   18.8043   20.6714 H   0  0  0  0  0  0  0  0  0  0  0  0
   18.5756   18.2599   22.2167 C   0  0  0  0  0  0  0  0  0  0  0  0
   18.1141   17.2864   22.4316 H   0  0  0  0  0  0  0  0  0  0  0  0
   17.8502   18.7950   21.5891 H   0  0  0  0  0  0  0  0  0  0  0  0
   23.1701   18.5317   23.1876 O   0  0  0  0  0  0  0  0  0  0  0  0
   23.5337   19.2033   23.8015 H   0  0  0  0  0  0  0  0  0  0  0  0
  1  2  1  0  0  0  0
  1  3  1  0  0  0  0
  1  4  1  0  0  0  0
  4  5  1  0  0  0  0
  4  6  1  0  0  0  0
  4  7  1  0  0  0  0
  7  8  1  0  0  0  0
  7  9  1  0  0  0  0
  7 10  1  0  0  0  0
 10 11  1  0  0  0  0
 10 12  1  0  0  0  0
 10 13  1  0  0  0  0
 13 14  1  0  0  0  0
 13 15  1  0  0  0  0
 15 16  1  0  0  0  0
 15 17  1  0  0  0  0
 15 18  1  0  0  0  0
 18 19  1  0  0  0  0
 18 20  1  0  0  0  0
  1 21  1  0  0  0  0
 18 21  1  0  0  0  0
 21 22  1  0  0  0  0
 21 23  1  0  0  0  0
 13 24  1  0  0  0  0
 24 25  1  0  0  0  0
M  END
> <VConfSearch Rank>
871

> <Conf_Id>
161

> <Delta U+W>
2.120

> <U+W>
13.033

> <U>
15.076

> <W>
-2.043

> <W(PB)>
-4.186

> <W(SA)>
2.143

> <Valence>
18.884

> <Coulomb>
-8.074

> <VdW>
4.266

> <VdW6>
-13.486

> <VdW12>
17.752

> <Bond>
0.713

> <Angle>
8.955

> <Pdih>
9.215

> <Idih>
0.000

> <Tether>
0.000

$$$$
VeraChem MOL file


 25 25  0  0  0  0  0  0  0  0999 V2000     
   19.0963   19.6626   21.1450 C   0  0  0  0  0  0  0  0  0  0  0  0
   18.2370   19.9244   20.5125 H   0  0  0  0  0  0  0  0  0  0  0  0
   19.8880   19.3822   20.4387 H   0  0  0  0  0  0  0  0  0  0  0  0
   18.6999   18.4385   22.0077 C   0  0  0  0  0  0  0  0  0  0  0  0
   18.1957   18.7576   22.9298 H   0  0  0  0  0  0  0  0  0  0  0  0
   17.9417   17.8814   21.4403 H   0  0  0  0  0  0  0  0  0  0  0  0
   19.8538   17.4433   22.3133 C   0  0  0  0  0  0  0  0  0  0  0  0
   20.5274   17.3407   21.4519 H   0  0  0  0  0  0  0  0  0  0  0  0
   19.3935   16.4538   22.4411 H   0  0  0  0  0  0  0  0  0  0  0  0
   20.6554   17.7356   23.6081 C   0  0  0  0  0  0  0  0  0  0  0  0
   19.9899   18.1588   24.3703 H   0  0  0  0  0  0  0  0  0  0  0  0
   20.9832   16.7729   24.0218 H   0  0  0  0  0  0  0  0  0  0  0  0
   21.9306   18.6009   23.4436 C   0  0  0  0  0  0  0  0  0  0  0  0
   22.6806   17.9987   22.9111 H   0  0  0  0  0  0  0  0  0  0  0  0
   21.7663   19.9281   22.6673 C   0  0  0  0  0  0  0  0  0  0  0  0
   22.6691   20.5331   22.8251 H   0  0  0  0  0  0  0  0  0  0  0  0
   21.7658   19.7142   21.5930 H   0  0  0  0  0  0  0  0  0  0  0  0
   20.5241   20.7692   23.0655 C   0  0  0  0  0  0  0  0  0  0  0  0
   20.8591   21.7671   23.3797 H   0  0  0  0  0  0  0  0  0  0  0  0
   20.0257   20.3492   23.9466 H   0  0  0  0  0  0  0  0  0  0  0  0
   19.4900   20.9433   21.9275 C   0  0  0  0  0  0  0  0  0  0  0  0
   19.8774   21.6778   21.2083 H   0  0  0  0  0  0  0  0  0  0  0  0
   18.5823   21.3923   22.3533 H   0  0  0  0  0  0  0  0  0  0  0  0
   22.4246   18.9045   24.7405 O   0  0  0  0  0  0  0  0  0  0  0  0
   21.7958   19.5499   25.1224 H   0  0  0  0  0  0  0  0  0  0  0  0
  1  2  1  0  0  0  0
  1  3  1  0  0  0  0
  1  4  1  0  0  0  0
  4  5  1  0  0  0  0
  4  6  1  0  0  0  0
  4  7  1  0  0  0  0
  7  8  1  0  0  0  0
  7  9  1  0  0  0  0
  7 10  1  0  0  0  0
 10 11  1  0  0  0  0
 10 12  1  0  0  0  0
 10 13  1  0  0  0  0
 13 14  1  0  0  0  0
 13 15  1  0  0  0  0
 15 16  1  0  0  0  0
 15 17  1  0  0  0  0
 15 18  1  0  0  0  0
 18 19  1  0  0  0  0
 18 20  1  0  0  0  0
  1 21  1  0  0  0  0
 18 21  1  0  0  0  0
 21 22  1  0  0  0  0
 21 23  1  0  0  0  0
 13 24  1  0  0  0  0
 24 25  1  0  0  0  0
M  END
> <VConfSearch Rank>
872

> <Conf_Id>
164

> <Delta U+W>
0.008

> <U+W>
10.922

> <U>
12.433

> <W>
-1.511

> <W(PB)>
-3.669

> <W(SA)>
2.157

> <Valence>
19.007

> <Coulomb>
-9.373

> <VdW>
2.799

> <VdW6>
-12.597

> <VdW12>
15.396

> <Bond>
0.425

> <Angle>
4.784

> <Pdih>
13.799

> <Idih>
0.000

> <Tether>
0.000

$$$$
VeraChem MOL file


 25 25  0  0  0  0  0  0  0  0999 V2000     
   19.1631   18.9824   24.0281 C   0  0  0  0  0  0  0  0  0  0  0  0
   20.1111   19.2851   24.4871 H   0  0  0  0  0  0  0  0  0  0  0  0
   18.4770   18.8466   24.8751 H   0  0  0  0  0  0  0  0  0  0  0  0
   19.3140   17.6060   23.3335 C   0  0  0  0  0  0  0  0  0  0  0  0
   19.6103   16.8801   24.1031 H   0  0  0  0  0  0  0  0  0  0  0  0
   18.3317   17.2719   22.9729 H   0  0  0  0  0  0  0  0  0  0  0  0
   20.3359   17.5086   22.1721 C   0  0  0  0  0  0  0  0  0  0  0  0
   19.8878   17.8575   21.2347 H   0  0  0  0  0  0  0  0  0  0  0  0
   20.5321   16.4411   22.0019 H   0  0  0  0  0  0  0  0  0  0  0  0
   21.6939   18.2169   22.4230 C   0  0  0  0  0  0  0  0  0  0  0  0
   21.8977   18.3058   23.4969 H   0  0  0  0  0  0  0  0  0  0  0  0
   22.4818   17.5596   22.0315 H   0  0  0  0  0  0  0  0  0  0  0  0
   21.8551   19.5865   21.7168 C   0  0  0  0  0  0  0  0  0  0  0  0
   21.6365   19.4486   20.6482 H   0  0  0  0  0  0  0  0  0  0  0  0
   20.9728   20.7458   22.2442 C   0  0  0  0  0  0  0  0  0  0  0  0
   21.1530   20.9178   23.3122 H   0  0  0  0  0  0  0  0  0  0  0  0
   21.3124   21.6613   21.7414 H   0  0  0  0  0  0  0  0  0  0  0  0
   19.4556   20.5961   21.9537 C   0  0  0  0  0  0  0  0  0  0  0  0
   19.2925   19.9454   21.0871 H   0  0  0  0  0  0  0  0  0  0  0  0
   19.0684   21.5748   21.6390 H   0  0  0  0  0  0  0  0  0  0  0  0
   18.5947   20.1289   23.1551 C   0  0  0  0  0  0  0  0  0  0  0  0
   17.5974   19.8474   22.7908 H   0  0  0  0  0  0  0  0  0  0  0  0
   18.4370   20.9952   23.8121 H   0  0  0  0  0  0  0  0  0  0  0  0
   23.2130   19.9831   21.8509 O   0  0  0  0  0  0  0  0  0  0  0  0
   23.3740   20.0967   22.8100 H   0  0  0  0  0  0  0  0  0  0  0  0
  1  2  1  0  0  0  0
  1  3  1  0  0  0  0
  1  4  1  0  0  0  0
  4  5  1  0  0  0  0
  4  6  1  0  0  0  0
  4  7  1  0  0  0  0
  7  8  1  0  0  0  0
  7  9  1  0  0  0  0
  7 10  1  0  0  0  0
 10 11  1  0  0  0  0
 10 12  1  0  0  0  0
 10 13  1  0  0  0  0
 13 14  1  0  0  0  0
 13 15  1  0  0  0  0
 15 16  1  0  0  0  0
 15 17  1  0  0  0  0
 15 18  1  0  0  0  0
 18 19  1  0  0  0  0
 18 20  1  0  0  0  0
  1 21  1  0  0  0  0
 18 21  1  0  0  0  0
 21 22  1  0  0  0  0
 21 23  1  0  0  0  0
 13 24  1  0  0  0  0
 24 25  1  0  0  0  0
M  END
> <VConfSearch Rank>
873

> <Conf_Id>
15

> <Delta U+W>
-1.271

> <U+W>
9.643

> <U>
11.413

> <W>
-1.770

> <W(PB)>
-3.908

> <W(SA)>
2.138

> <Valence>
17.496

> <Coulomb>
-8.736

> <VdW>
2.653

> <VdW6>
-12.485

> <VdW12>
15.138

> <Bond>
0.414

> <Angle>
5.295

> <Pdih>
11.787

> <Idih>
0.000

> <Tether>
0.000

$$$$
VeraChem MOL file


 25 25  0  0  0  0  0  0  0  0999 V2000     
   18.5388   19.4703   23.2576 C   0  0  0  0  0  0  0  0  0  0  0  0
   17.4633   19.4606   23.4819 H   0  0  0  0  0  0  0  0  0  0  0  0
   18.8539   20.5048   23.4434 H   0  0  0  0  0  0  0  0  0  0  0  0
   19.2195   18.5025   24.2610 C   0  0  0  0  0  0  0  0  0  0  0  0
   19.1240   18.9324   25.2674 H   0  0  0  0  0  0  0  0  0  0  0  0
   18.6554   17.5601   24.2843 H   0  0  0  0  0  0  0  0  0  0  0  0
   20.7089   18.1701   24.0033 C   0  0  0  0  0  0  0  0  0  0  0  0
   20.7852   17.4233   23.2044 H   0  0  0  0  0  0  0  0  0  0  0  0
   21.1053   17.6672   24.8960 H   0  0  0  0  0  0  0  0  0  0  0  0
   21.5909   19.4083   23.6960 C   0  0  0  0  0  0  0  0  0  0  0  0
   21.0361   20.3367   23.8706 H   0  0  0  0  0  0  0  0  0  0  0  0
   22.4173   19.4335   24.4183 H   0  0  0  0  0  0  0  0  0  0  0  0
   22.2099   19.4188   22.2793 C   0  0  0  0  0  0  0  0  0  0  0  0
   23.0195   18.6750   22.2648 H   0  0  0  0  0  0  0  0  0  0  0  0
   21.2571   19.0787   21.1041 C   0  0  0  0  0  0  0  0  0  0  0  0
   21.8027   19.2963   20.1760 H   0  0  0  0  0  0  0  0  0  0  0  0
   21.0769   17.9976   21.0681 H   0  0  0  0  0  0  0  0  0  0  0  0
   19.9039   19.8372   21.0537 C   0  0  0  0  0  0  0  0  0  0  0  0
   19.6323   19.9293   19.9931 H   0  0  0  0  0  0  0  0  0  0  0  0
   20.0132   20.8682   21.4139 H   0  0  0  0  0  0  0  0  0  0  0  0
   18.7176   19.1235   21.7588 C   0  0  0  0  0  0  0  0  0  0  0  0
   18.7643   18.0360   21.6125 H   0  0  0  0  0  0  0  0  0  0  0  0
   17.8015   19.4465   21.2454 H   0  0  0  0  0  0  0  0  0  0  0  0
   22.7683   20.7047   22.0488 O   0  0  0  0  0  0  0  0  0  0  0  0
   22.0089   21.3170   21.9749 H   0  0  0  0  0  0  0  0  0  0  0  0
  1  2  1  0  0  0  0
  1  3  1  0  0  0  0
  1  4  1  0  0  0  0
  4  5  1  0  0  0  0
  4  6  1  0  0  0  0
  4  7  1  0  0  0  0
  7  8  1  0  0  0  0
  7  9  1  0  0  0  0
  7 10  1  0  0  0  0
 10 11  1  0  0  0  0
 10 12  1  0  0  0  0
 10 13  1  0  0  0  0
 13 14  1  0  0  0  0
 13 15  1  0  0  0  0
 15 16  1  0  0  0  0
 15 17  1  0  0  0  0
 15 18  1  0  0  0  0
 18 19  1  0  0  0  0
 18 20  1  0  0  0  0
  1 21  1  0  0  0  0
 18 21  1  0  0  0  0
 21 22  1  0  0  0  0
 21 23  1  0  0  0  0
 13 24  1  0  0  0  0
 24 25  1  0  0  0  0
M  END
> <VConfSearch Rank>
874

> <Conf_Id>
115

> <Delta U+W>
0.038

> <U+W>
10.952

> <U>
12.526

> <W>
-1.575

> <W(PB)>
-3.698

> <W(SA)>
2.123

> <Valence>
19.016

> <Coulomb>
-9.226

> <VdW>
2.737

> <VdW6>
-12.612

> <VdW12>
15.349

> <Bond>
0.421

> <Angle>
4.883

> <Pdih>
13.711

> <Idih>
0.000

> <Tether>
0.000

$$$$
VeraChem MOL file


 25 25  0  0  0  0  0  0  0  0999 V2000     
   21.2370   18.9282   20.7462 C   0  0  0  0  0  0  0  0  0  0  0  0
   21.3365   18.4193   19.7776 H   0  0  0  0  0  0  0  0  0  0  0  0
   21.8595   19.8299   20.6700 H   0  0  0  0  0  0  0  0  0  0  0  0
   21.8070   17.9790   21.8259 C   0  0  0  0  0  0  0  0  0  0  0  0
   21.2595   17.0268   21.8180 H   0  0  0  0  0  0  0  0  0  0  0  0
   22.8363   17.7298   21.5336 H   0  0  0  0  0  0  0  0  0  0  0  0
   21.8465   18.5607   23.2580 C   0  0  0  0  0  0  0  0  0  0  0  0
   22.1786   19.6072   23.2355 H   0  0  0  0  0  0  0  0  0  0  0  0
   22.6263   18.0193   23.8111 H   0  0  0  0  0  0  0  0  0  0  0  0
   20.5197   18.4028   24.0485 C   0  0  0  0  0  0  0  0  0  0  0  0
   19.8422   17.6961   23.5533 H   0  0  0  0  0  0  0  0  0  0  0  0
   20.7672   17.9423   25.0146 H   0  0  0  0  0  0  0  0  0  0  0  0
   19.7826   19.7312   24.3313 C   0  0  0  0  0  0  0  0  0  0  0  0
   20.5271   20.5187   24.5168 H   0  0  0  0  0  0  0  0  0  0  0  0
   18.8330   20.1938   23.2041 C   0  0  0  0  0  0  0  0  0  0  0  0
   18.0450   19.4453   23.0477 H   0  0  0  0  0  0  0  0  0  0  0  0
   18.3198   21.0990   23.5543 H   0  0  0  0  0  0  0  0  0  0  0  0
   19.5169   20.5363   21.8582 C   0  0  0  0  0  0  0  0  0  0  0  0
   20.4479   21.0921   22.0325 H   0  0  0  0  0  0  0  0  0  0  0  0
   18.8572   21.2346   21.3248 H   0  0  0  0  0  0  0  0  0  0  0  0
   19.7510   19.3177   20.9275 C   0  0  0  0  0  0  0  0  0  0  0  0
   19.3598   19.5824   19.9355 H   0  0  0  0  0  0  0  0  0  0  0  0
   19.1631   18.4475   21.2483 H   0  0  0  0  0  0  0  0  0  0  0  0
   18.9991   19.5584   25.5060 O   0  0  0  0  0  0  0  0  0  0  0  0
   18.5831   20.4244   25.6990 H   0  0  0  0  0  0  0  0  0  0  0  0
  1  2  1  0  0  0  0
  1  3  1  0  0  0  0
  1  4  1  0  0  0  0
  4  5  1  0  0  0  0
  4  6  1  0  0  0  0
  4  7  1  0  0  0  0
  7  8  1  0  0  0  0
  7  9  1  0  0  0  0
  7 10  1  0  0  0  0
 10 11  1  0  0  0  0
 10 12  1  0  0  0  0
 10 13  1  0  0  0  0
 13 14  1  0  0  0  0
 13 15  1  0  0  0  0
 15 16  1  0  0  0  0
 15 17  1  0  0  0  0
 15 18  1  0  0  0  0
 18 19  1  0  0  0  0
 18 20  1  0  0  0  0
  1 21  1  0  0  0  0
 18 21  1  0  0  0  0
 21 22  1  0  0  0  0
 21 23  1  0  0  0  0
 13 24  1  0  0  0  0
 24 25  1  0  0  0  0
M  END
> <VConfSearch Rank>
875

> <Conf_Id>
30

> <Delta U+W>
0.000

> <U+W>
10.913

> <U>
13.140

> <W>
-2.227

> <W(PB)>
-4.367

> <W(SA)>
2.140

> <Valence>
19.155

> <Coulomb>
-8.157

> <VdW>
2.142

> <VdW6>
-11.576

> <VdW12>
13.718

> <Bond>
0.294

> <Angle>
3.547

> <Pdih>
15.314

> <Idih>
0.000

> <Tether>
0.000

$$$$
VeraChem MOL file


 25 25  0  0  0  0  0  0  0  0999 V2000     
   21.5079   17.8115   21.6281 C   0  0  0  0  0  0  0  0  0  0  0  0
   22.3474   17.9039   20.9256 H   0  0  0  0  0  0  0  0  0  0  0  0
   21.3012   16.7352   21.7035 H   0  0  0  0  0  0  0  0  0  0  0  0
   20.2687   18.5008   21.0058 C   0  0  0  0  0  0  0  0  0  0  0  0
   20.2138   18.2077   19.9485 H   0  0  0  0  0  0  0  0  0  0  0  0
   19.3559   18.0916   21.4541 H   0  0  0  0  0  0  0  0  0  0  0  0
   20.2866   20.0482   21.0900 C   0  0  0  0  0  0  0  0  0  0  0  0
   20.1741   20.4579   20.0770 H   0  0  0  0  0  0  0  0  0  0  0  0
   21.2622   20.4124   21.4321 H   0  0  0  0  0  0  0  0  0  0  0  0
   19.1653   20.6461   21.9770 C   0  0  0  0  0  0  0  0  0  0  0  0
   19.3732   21.7140   22.1257 H   0  0  0  0  0  0  0  0  0  0  0  0
   18.2198   20.5977   21.4212 H   0  0  0  0  0  0  0  0  0  0  0  0
   18.9339   19.9796   23.3563 C   0  0  0  0  0  0  0  0  0  0  0  0
   18.4779   18.9916   23.2084 H   0  0  0  0  0  0  0  0  0  0  0  0
   20.2031   19.8135   24.2274 C   0  0  0  0  0  0  0  0  0  0  0  0
   20.9124   20.6266   24.0269 H   0  0  0  0  0  0  0  0  0  0  0  0
   19.9130   19.9345   25.2797 H   0  0  0  0  0  0  0  0  0  0  0  0
   20.9004   18.4285   24.1124 C   0  0  0  0  0  0  0  0  0  0  0  0
   20.1643   17.6198   24.0088 H   0  0  0  0  0  0  0  0  0  0  0  0
   21.4027   18.2438   25.0720 H   0  0  0  0  0  0  0  0  0  0  0  0
   21.9850   18.3288   23.0113 C   0  0  0  0  0  0  0  0  0  0  0  0
   22.7593   17.6331   23.3627 H   0  0  0  0  0  0  0  0  0  0  0  0
   22.5020   19.2911   22.9063 H   0  0  0  0  0  0  0  0  0  0  0  0
   18.0058   20.7924   24.0650 O   0  0  0  0  0  0  0  0  0  0  0  0
   17.8027   20.3249   24.9020 H   0  0  0  0  0  0  0  0  0  0  0  0
  1  2  1  0  0  0  0
  1  3  1  0  0  0  0
  1  4  1  0  0  0  0
  4  5  1  0  0  0  0
  4  6  1  0  0  0  0
  4  7  1  0  0  0  0
  7  8  1  0  0  0  0
  7  9  1  0  0  0  0
  7 10  1  0  0  0  0
 10 11  1  0  0  0  0
 10 12  1  0  0  0  0
 10 13  1  0  0  0  0
 13 14  1  0  0  0  0
 13 15  1  0  0  0  0
 15 16  1  0  0  0  0
 15 17  1  0  0  0  0
 15 18  1  0  0  0  0
 18 19  1  0  0  0  0
 18 20  1  0  0  0  0
  1 21  1  0  0  0  0
 18 21  1  0  0  0  0
 21 22  1  0  0  0  0
 21 23  1  0  0  0  0
 13 24  1  0  0  0  0
 24 25  1  0  0  0  0
M  END
> <VConfSearch Rank>
876

> <Conf_Id>
162

> <Delta U+W>
0.219

> <U+W>
11.132

> <U>
13.296

> <W>
-2.164

> <W(PB)>
-4.311

> <W(SA)>
2.148

> <Valence>
18.607

> <Coulomb>
-8.339

> <VdW>
3.028

> <VdW6>
-12.271

> <VdW12>
15.299

> <Bond>
0.423

> <Angle>
4.488

> <Pdih>
13.696

> <Idih>
0.000

> <Tether>
0.000

$$$$
VeraChem MOL file


 25 25  0  0  0  0  0  0  0  0999 V2000     
   19.1382   20.7811   23.0459 C   0  0  0  0  0  0  0  0  0  0  0  0
   19.8121   21.3968   22.4368 H   0  0  0  0  0  0  0  0  0  0  0  0
   18.3255   21.4604   23.3374 H   0  0  0  0  0  0  0  0  0  0  0  0
   18.5286   19.6500   22.1806 C   0  0  0  0  0  0  0  0  0  0  0  0
   18.1519   18.8351   22.8133 H   0  0  0  0  0  0  0  0  0  0  0  0
   17.6407   20.0695   21.6878 H   0  0  0  0  0  0  0  0  0  0  0  0
   19.4528   19.1062   21.0556 C   0  0  0  0  0  0  0  0  0  0  0  0
   20.0486   19.9124   20.6070 H   0  0  0  0  0  0  0  0  0  0  0  0
   18.7960   18.7485   20.2508 H   0  0  0  0  0  0  0  0  0  0  0  0
   20.3562   17.9125   21.4609 C   0  0  0  0  0  0  0  0  0  0  0  0
   19.8374   17.2824   22.1937 H   0  0  0  0  0  0  0  0  0  0  0  0
   20.4829   17.2729   20.5777 H   0  0  0  0  0  0  0  0  0  0  0  0
   21.7809   18.2655   21.9578 C   0  0  0  0  0  0  0  0  0  0  0  0
   22.3598   18.6226   21.0938 H   0  0  0  0  0  0  0  0  0  0  0  0
   21.8741   19.3527   23.0547 C   0  0  0  0  0  0  0  0  0  0  0  0
   22.8942   19.3535   23.4603 H   0  0  0  0  0  0  0  0  0  0  0  0
   21.7655   20.3380   22.5889 H   0  0  0  0  0  0  0  0  0  0  0  0
   20.8719   19.1810   24.2267 C   0  0  0  0  0  0  0  0  0  0  0  0
   21.4356   19.1194   25.1673 H   0  0  0  0  0  0  0  0  0  0  0  0
   20.3450   18.2223   24.1539 H   0  0  0  0  0  0  0  0  0  0  0  0
   19.8420   20.3295   24.3532 C   0  0  0  0  0  0  0  0  0  0  0  0
   20.3418   21.2041   24.7915 H   0  0  0  0  0  0  0  0  0  0  0  0
   19.0775   20.0265   25.0815 H   0  0  0  0  0  0  0  0  0  0  0  0
   22.3773   17.0717   22.4512 O   0  0  0  0  0  0  0  0  0  0  0  0
   23.2739   17.3127   22.7627 H   0  0  0  0  0  0  0  0  0  0  0  0
  1  2  1  0  0  0  0
  1  3  1  0  0  0  0
  1  4  1  0  0  0  0
  4  5  1  0  0  0  0
  4  6  1  0  0  0  0
  4  7  1  0  0  0  0
  7  8  1  0  0  0  0
  7  9  1  0  0  0  0
  7 10  1  0  0  0  0
 10 11  1  0  0  0  0
 10 12  1  0  0  0  0
 10 13  1  0  0  0  0
 13 14  1  0  0  0  0
 13 15  1  0  0  0  0
 15 16  1  0  0  0  0
 15 17  1  0  0  0  0
 15 18  1  0  0  0  0
 18 19  1  0  0  0  0
 18 20  1  0  0  0  0
  1 21  1  0  0  0  0
 18 21  1  0  0  0  0
 21 22  1  0  0  0  0
 21 23  1  0  0  0  0
 13 24  1  0  0  0  0
 24 25  1  0  0  0  0
M  END
> <VConfSearch Rank>
877

> <Conf_Id>
155

> <Delta U+W>
0.339

> <U+W>
11.252

> <U>
13.420

> <W>
-2.167

> <W(PB)>
-4.325

> <W(SA)>
2.157

> <Valence>
18.609

> <Coulomb>
-8.052

> <VdW>
2.863

> <VdW6>
-12.524

> <VdW12>
15.387

> <Bond>
0.430

> <Angle>
4.724

> <Pdih>
13.455

> <Idih>
0.000

> <Tether>
0.000

$$$$
VeraChem MOL file


 25 25  0  0  0  0  0  0  0  0999 V2000     
   21.3681   17.7937   21.6966 C   0  0  0  0  0  0  0  0  0  0  0  0
   20.8662   16.8172   21.6662 H   0  0  0  0  0  0  0  0  0  0  0  0
   22.3037   17.6589   21.1369 H   0  0  0  0  0  0  0  0  0  0  0  0
   20.5193   18.8293   20.9131 C   0  0  0  0  0  0  0  0  0  0  0  0
   21.0726   19.7711   20.8425 H   0  0  0  0  0  0  0  0  0  0  0  0
   20.4589   18.4882   19.8706 H   0  0  0  0  0  0  0  0  0  0  0  0
   19.0611   19.0790   21.3974 C   0  0  0  0  0  0  0  0  0  0  0  0
   18.4215   18.3261   20.9172 H   0  0  0  0  0  0  0  0  0  0  0  0
   18.7177   20.0472   21.0085 H   0  0  0  0  0  0  0  0  0  0  0  0
   18.7737   19.0126   22.9222 C   0  0  0  0  0  0  0  0  0  0  0  0
   17.6853   19.0710   23.0536 H   0  0  0  0  0  0  0  0  0  0  0  0
   19.0147   18.0115   23.2900 H   0  0  0  0  0  0  0  0  0  0  0  0
   19.4223   20.0943   23.8352 C   0  0  0  0  0  0  0  0  0  0  0  0
   19.4778   19.6835   24.8535 H   0  0  0  0  0  0  0  0  0  0  0  0
   20.8328   20.6084   23.4519 C   0  0  0  0  0  0  0  0  0  0  0  0
   20.7856   21.0787   22.4654 H   0  0  0  0  0  0  0  0  0  0  0  0
   21.0741   21.4419   24.1247 H   0  0  0  0  0  0  0  0  0  0  0  0
   22.0210   19.6033   23.5308 C   0  0  0  0  0  0  0  0  0  0  0  0
   22.3970   19.6191   24.5629 H   0  0  0  0  0  0  0  0  0  0  0  0
   22.8468   19.9808   22.9128 H   0  0  0  0  0  0  0  0  0  0  0  0
   21.7511   18.1188   23.1702 C   0  0  0  0  0  0  0  0  0  0  0  0
   21.0135   17.7045   23.8647 H   0  0  0  0  0  0  0  0  0  0  0  0
   22.6639   17.5516   23.3981 H   0  0  0  0  0  0  0  0  0  0  0  0
   18.5594   21.2262   23.8509 O   0  0  0  0  0  0  0  0  0  0  0  0
   17.6805   20.9079   24.1435 H   0  0  0  0  0  0  0  0  0  0  0  0
  1  2  1  0  0  0  0
  1  3  1  0  0  0  0
  1  4  1  0  0  0  0
  4  5  1  0  0  0  0
  4  6  1  0  0  0  0
  4  7  1  0  0  0  0
  7  8  1  0  0  0  0
  7  9  1  0  0  0  0
  7 10  1  0  0  0  0
 10 11  1  0  0  0  0
 10 12  1  0  0  0  0
 10 13  1  0  0  0  0
 13 14  1  0  0  0  0
 13 15  1  0  0  0  0
 15 16  1  0  0  0  0
 15 17  1  0  0  0  0
 15 18  1  0  0  0  0
 18 19  1  0  0  0  0
 18 20  1  0  0  0  0
  1 21  1  0  0  0  0
 18 21  1  0  0  0  0
 21 22  1  0  0  0  0
 21 23  1  0  0  0  0
 13 24  1  0  0  0  0
 24 25  1  0  0  0  0
M  END
> <VConfSearch Rank>
878

> <Conf_Id>
146

> <Delta U+W>
2.553

> <U+W>
13.466

> <U>
15.643

> <W>
-2.176

> <W(PB)>
-4.307

> <W(SA)>
2.131

> <Valence>
18.916

> <Coulomb>
-7.506

> <VdW>
4.232

> <VdW6>
-13.632

> <VdW12>
17.864

> <Bond>
0.735

> <Angle>
9.140

> <Pdih>
9.042

> <Idih>
0.000

> <Tether>
0.000

$$$$
VeraChem MOL file


 25 25  0  0  0  0  0  0  0  0999 V2000     
   22.3207   19.2549   22.1316 C   0  0  0  0  0  0  0  0  0  0  0  0
   22.7742   20.0578   21.5347 H   0  0  0  0  0  0  0  0  0  0  0  0
   23.1327   18.5442   22.3375 H   0  0  0  0  0  0  0  0  0  0  0  0
   21.2645   18.5142   21.2737 C   0  0  0  0  0  0  0  0  0  0  0  0
   21.7887   18.0894   20.4068 H   0  0  0  0  0  0  0  0  0  0  0  0
   20.8764   17.6437   21.8147 H   0  0  0  0  0  0  0  0  0  0  0  0
   20.1004   19.3788   20.7282 C   0  0  0  0  0  0  0  0  0  0  0  0
   19.5083   18.7474   20.0517 H   0  0  0  0  0  0  0  0  0  0  0  0
   20.5083   20.1844   20.1028 H   0  0  0  0  0  0  0  0  0  0  0  0
   19.1318   19.9933   21.7723 C   0  0  0  0  0  0  0  0  0  0  0  0
   19.5577   20.9096   22.1931 H   0  0  0  0  0  0  0  0  0  0  0  0
   18.2406   20.3310   21.2261 H   0  0  0  0  0  0  0  0  0  0  0  0
   18.6953   19.0343   22.9097 C   0  0  0  0  0  0  0  0  0  0  0  0
   18.8571   17.9940   22.5967 H   0  0  0  0  0  0  0  0  0  0  0  0
   19.4160   19.2821   24.2592 C   0  0  0  0  0  0  0  0  0  0  0  0
   19.2802   20.3313   24.5530 H   0  0  0  0  0  0  0  0  0  0  0  0
   18.9053   18.6899   25.0298 H   0  0  0  0  0  0  0  0  0  0  0  0
   20.9251   18.9220   24.3255 C   0  0  0  0  0  0  0  0  0  0  0  0
   21.0853   17.8657   24.0739 H   0  0  0  0  0  0  0  0  0  0  0  0
   21.2309   19.0155   25.3766 H   0  0  0  0  0  0  0  0  0  0  0  0
   21.8512   19.8415   23.4880 C   0  0  0  0  0  0  0  0  0  0  0  0
   22.7537   20.0475   24.0797 H   0  0  0  0  0  0  0  0  0  0  0  0
   21.3895   20.8249   23.3445 H   0  0  0  0  0  0  0  0  0  0  0  0
   17.3022   19.2195   23.1338 O   0  0  0  0  0  0  0  0  0  0  0  0
   17.0350   18.5651   23.8125 H   0  0  0  0  0  0  0  0  0  0  0  0
  1  2  1  0  0  0  0
  1  3  1  0  0  0  0
  1  4  1  0  0  0  0
  4  5  1  0  0  0  0
  4  6  1  0  0  0  0
  4  7  1  0  0  0  0
  7  8  1  0  0  0  0
  7  9  1  0  0  0  0
  7 10  1  0  0  0  0
 10 11  1  0  0  0  0
 10 12  1  0  0  0  0
 10 13  1  0  0  0  0
 13 14  1  0  0  0  0
 13 15  1  0  0  0  0
 15 16  1  0  0  0  0
 15 17  1  0  0  0  0
 15 18  1  0  0  0  0
 18 19  1  0  0  0  0
 18 20  1  0  0  0  0
  1 21  1  0  0  0  0
 18 21  1  0  0  0  0
 21 22  1  0  0  0  0
 21 23  1  0  0  0  0
 13 24  1  0  0  0  0
 24 25  1  0  0  0  0
M  END
> <VConfSearch Rank>
879

> <Conf_Id>
62

> <Delta U+W>
-1.779

> <U+W>
9.134

> <U>
11.364

> <W>
-2.230

> <W(PB)>
-4.359

> <W(SA)>
2.129

> <Valence>
16.582

> <Coulomb>
-8.150

> <VdW>
2.933

> <VdW6>
-12.531

> <VdW12>
15.464

> <Bond>
0.439

> <Angle>
5.099

> <Pdih>
11.044

> <Idih>
0.000

> <Tether>
0.000

$$$$
VeraChem MOL file


 25 25  0  0  0  0  0  0  0  0999 V2000     
   20.9900   17.7437   23.6603 C   0  0  0  0  0  0  0  0  0  0  0  0
   21.2585   17.4992   22.6262 H   0  0  0  0  0  0  0  0  0  0  0  0
   21.3377   16.8828   24.2472 H   0  0  0  0  0  0  0  0  0  0  0  0
   19.4504   17.8153   23.8161 C   0  0  0  0  0  0  0  0  0  0  0  0
   19.0461   16.8312   23.5425 H   0  0  0  0  0  0  0  0  0  0  0  0
   19.1992   17.9552   24.8762 H   0  0  0  0  0  0  0  0  0  0  0  0
   18.7043   18.8840   22.9771 C   0  0  0  0  0  0  0  0  0  0  0  0
   18.7352   19.8577   23.4790 H   0  0  0  0  0  0  0  0  0  0  0  0
   17.6405   18.6095   22.9757 H   0  0  0  0  0  0  0  0  0  0  0  0
   19.1729   19.0158   21.5032 C   0  0  0  0  0  0  0  0  0  0  0  0
   19.6440   18.0886   21.1545 H   0  0  0  0  0  0  0  0  0  0  0  0
   18.2725   19.1326   20.8860 H   0  0  0  0  0  0  0  0  0  0  0  0
   20.0898   20.2317   21.2163 C   0  0  0  0  0  0  0  0  0  0  0  0
   19.5873   21.1371   21.5862 H   0  0  0  0  0  0  0  0  0  0  0  0
   21.5102   20.1838   21.8327 C   0  0  0  0  0  0  0  0  0  0  0  0
   22.0477   19.2909   21.4910 H   0  0  0  0  0  0  0  0  0  0  0  0
   22.0682   21.0330   21.4163 H   0  0  0  0  0  0  0  0  0  0  0  0
   21.5592   20.3106   23.3790 C   0  0  0  0  0  0  0  0  0  0  0  0
   20.6650   20.8235   23.7509 H   0  0  0  0  0  0  0  0  0  0  0  0
   22.3892   20.9806   23.6418 H   0  0  0  0  0  0  0  0  0  0  0  0
   21.7837   18.9823   24.1458 C   0  0  0  0  0  0  0  0  0  0  0  0
   21.5815   19.1478   25.2126 H   0  0  0  0  0  0  0  0  0  0  0  0
   22.8520   18.7341   24.0811 H   0  0  0  0  0  0  0  0  0  0  0  0
   20.2390   20.3363   19.8059 O   0  0  0  0  0  0  0  0  0  0  0  0
   19.3384   20.4346   19.4324 H   0  0  0  0  0  0  0  0  0  0  0  0
  1  2  1  0  0  0  0
  1  3  1  0  0  0  0
  1  4  1  0  0  0  0
  4  5  1  0  0  0  0
  4  6  1  0  0  0  0
  4  7  1  0  0  0  0
  7  8  1  0  0  0  0
  7  9  1  0  0  0  0
  7 10  1  0  0  0  0
 10 11  1  0  0  0  0
 10 12  1  0  0  0  0
 10 13  1  0  0  0  0
 13 14  1  0  0  0  0
 13 15  1  0  0  0  0
 15 16  1  0  0  0  0
 15 17  1  0  0  0  0
 15 18  1  0  0  0  0
 18 19  1  0  0  0  0
 18 20  1  0  0  0  0
  1 21  1  0  0  0  0
 18 21  1  0  0  0  0
 21 22  1  0  0  0  0
 21 23  1  0  0  0  0
 13 24  1  0  0  0  0
 24 25  1  0  0  0  0
M  END
> <VConfSearch Rank>
880

> <Conf_Id>
121

> <Delta U+W>
-1.283

> <U+W>
9.630

> <U>
11.876

> <W>
-2.246

> <W(PB)>
-4.376

> <W(SA)>
2.130

> <Valence>
17.153

> <Coulomb>
-7.966

> <VdW>
2.689

> <VdW6>
-12.458

> <VdW12>
15.147

> <Bond>
0.421

> <Angle>
5.258

> <Pdih>
11.475

> <Idih>
0.000

> <Tether>
0.000

$$$$
VeraChem MOL file


 25 25  0  0  0  0  0  0  0  0999 V2000     
   21.8405   20.3608   22.5023 C   0  0  0  0  0  0  0  0  0  0  0  0
   22.2584   19.3503   22.5759 H   0  0  0  0  0  0  0  0  0  0  0  0
   22.7157   21.0141   22.3847 H   0  0  0  0  0  0  0  0  0  0  0  0
   21.1464   20.7561   23.8296 C   0  0  0  0  0  0  0  0  0  0  0  0
   21.9064   20.7180   24.6220 H   0  0  0  0  0  0  0  0  0  0  0  0
   20.8277   21.8057   23.7741 H   0  0  0  0  0  0  0  0  0  0  0  0
   19.9447   19.8887   24.2843 C   0  0  0  0  0  0  0  0  0  0  0  0
   19.0245   20.2142   23.7860 H   0  0  0  0  0  0  0  0  0  0  0  0
   19.7727   20.1055   25.3475 H   0  0  0  0  0  0  0  0  0  0  0  0
   20.1358   18.3563   24.1273 C   0  0  0  0  0  0  0  0  0  0  0  0
   21.1991   18.0874   24.1267 H   0  0  0  0  0  0  0  0  0  0  0  0
   19.7187   17.8804   25.0247 H   0  0  0  0  0  0  0  0  0  0  0  0
   19.4160   17.7280   22.9078 C   0  0  0  0  0  0  0  0  0  0  0  0
   18.3579   18.0243   22.9458 H   0  0  0  0  0  0  0  0  0  0  0  0
   19.9748   18.1004   21.5112 C   0  0  0  0  0  0  0  0  0  0  0  0
   21.0343   17.8267   21.4357 H   0  0  0  0  0  0  0  0  0  0  0  0
   19.4600   17.4698   20.7744 H   0  0  0  0  0  0  0  0  0  0  0  0
   19.7480   19.5767   21.0888 C   0  0  0  0  0  0  0  0  0  0  0  0
   18.8928   20.0032   21.6252 H   0  0  0  0  0  0  0  0  0  0  0  0
   19.4436   19.5888   20.0332 H   0  0  0  0  0  0  0  0  0  0  0  0
   20.9865   20.4999   21.2174 C   0  0  0  0  0  0  0  0  0  0  0  0
   20.6654   21.5445   21.1065 H   0  0  0  0  0  0  0  0  0  0  0  0
   21.6452   20.2992   20.3614 H   0  0  0  0  0  0  0  0  0  0  0  0
   19.4996   16.3149   23.0432 O   0  0  0  0  0  0  0  0  0  0  0  0
   18.9839   15.9287   22.3050 H   0  0  0  0  0  0  0  0  0  0  0  0
  1  2  1  0  0  0  0
  1  3  1  0  0  0  0
  1  4  1  0  0  0  0
  4  5  1  0  0  0  0
  4  6  1  0  0  0  0
  4  7  1  0  0  0  0
  7  8  1  0  0  0  0
  7  9  1  0  0  0  0
  7 10  1  0  0  0  0
 10 11  1  0  0  0  0
 10 12  1  0  0  0  0
 10 13  1  0  0  0  0
 13 14  1  0  0  0  0
 13 15  1  0  0  0  0
 15 16  1  0  0  0  0
 15 17  1  0  0  0  0
 15 18  1  0  0  0  0
 18 19  1  0  0  0  0
 18 20  1  0  0  0  0
  1 21  1  0  0  0  0
 18 21  1  0  0  0  0
 21 22  1  0  0  0  0
 21 23  1  0  0  0  0
 13 24  1  0  0  0  0
 24 25  1  0  0  0  0
M  END
> <VConfSearch Rank>
881

> <Conf_Id>
24

> <Delta U+W>
-1.236

> <U+W>
9.678

> <U>
11.876

> <W>
-2.199

> <W(PB)>
-4.335

> <W(SA)>
2.137

> <Valence>
17.153

> <Coulomb>
-7.966

> <VdW>
2.689

> <VdW6>
-12.458

> <VdW12>
15.147

> <Bond>
0.421

> <Angle>
5.258

> <Pdih>
11.475

> <Idih>
0.000

> <Tether>
0.000

$$$$
VeraChem MOL file


 25 25  0  0  0  0  0  0  0  0999 V2000     
   18.6264   19.4299   21.2759 C   0  0  0  0  0  0  0  0  0  0  0  0
   17.6327   19.7807   21.5861 H   0  0  0  0  0  0  0  0  0  0  0  0
   18.5384   19.1965   20.2060 H   0  0  0  0  0  0  0  0  0  0  0  0
   19.6401   20.5950   21.4285 C   0  0  0  0  0  0  0  0  0  0  0  0
   20.5443   20.4004   20.8379 H   0  0  0  0  0  0  0  0  0  0  0  0
   19.1850   21.4780   20.9593 H   0  0  0  0  0  0  0  0  0  0  0  0
   20.0270   20.9736   22.8796 C   0  0  0  0  0  0  0  0  0  0  0  0
   19.1739   20.8400   23.5583 H   0  0  0  0  0  0  0  0  0  0  0  0
   20.2352   22.0524   22.8828 H   0  0  0  0  0  0  0  0  0  0  0  0
   21.2985   20.2674   23.4297 C   0  0  0  0  0  0  0  0  0  0  0  0
   22.0496   20.1440   22.6391 H   0  0  0  0  0  0  0  0  0  0  0  0
   21.7484   20.9555   24.1584 H   0  0  0  0  0  0  0  0  0  0  0  0
   21.0397   18.9207   24.1484 C   0  0  0  0  0  0  0  0  0  0  0  0
   20.0311   18.9449   24.5818 H   0  0  0  0  0  0  0  0  0  0  0  0
   21.1866   17.6568   23.2636 C   0  0  0  0  0  0  0  0  0  0  0  0
   22.2490   17.4866   23.0451 H   0  0  0  0  0  0  0  0  0  0  0  0
   20.8590   16.7944   23.8590 H   0  0  0  0  0  0  0  0  0  0  0  0
   20.4098   17.6472   21.9231 C   0  0  0  0  0  0  0  0  0  0  0  0
   20.4194   16.6210   21.5312 H   0  0  0  0  0  0  0  0  0  0  0  0
   20.9541   18.2366   21.1761 H   0  0  0  0  0  0  0  0  0  0  0  0
   18.9389   18.1205   22.0409 C   0  0  0  0  0  0  0  0  0  0  0  0
   18.6412   18.2274   23.0905 H   0  0  0  0  0  0  0  0  0  0  0  0
   18.2838   17.3324   21.6453 H   0  0  0  0  0  0  0  0  0  0  0  0
   21.9702   18.7978   25.2164 O   0  0  0  0  0  0  0  0  0  0  0  0
   22.8609   18.7990   24.8094 H   0  0  0  0  0  0  0  0  0  0  0  0
  1  2  1  0  0  0  0
  1  3  1  0  0  0  0
  1  4  1  0  0  0  0
  4  5  1  0  0  0  0
  4  6  1  0  0  0  0
  4  7  1  0  0  0  0
  7  8  1  0  0  0  0
  7  9  1  0  0  0  0
  7 10  1  0  0  0  0
 10 11  1  0  0  0  0
 10 12  1  0  0  0  0
 10 13  1  0  0  0  0
 13 14  1  0  0  0  0
 13 15  1  0  0  0  0
 15 16  1  0  0  0  0
 15 17  1  0  0  0  0
 15 18  1  0  0  0  0
 18 19  1  0  0  0  0
 18 20  1  0  0  0  0
  1 21  1  0  0  0  0
 18 21  1  0  0  0  0
 21 22  1  0  0  0  0
 21 23  1  0  0  0  0
 13 24  1  0  0  0  0
 24 25  1  0  0  0  0
M  END
> <VConfSearch Rank>
882

> <Conf_Id>
167

> <Delta U+W>
0.388

> <U+W>
11.301

> <U>
13.202

> <W>
-1.901

> <W(PB)>
-4.065

> <W(SA)>
2.163

> <Valence>
18.957

> <Coulomb>
-8.753

> <VdW>
2.998

> <VdW6>
-12.294

> <VdW12>
15.292

> <Bond>
0.419

> <Angle>
4.543

> <Pdih>
13.996

> <Idih>
0.000

> <Tether>
0.000

$$$$
VeraChem MOL file


 25 25  0  0  0  0  0  0  0  0999 V2000     
   18.6687   17.9993   22.4534 C   0  0  0  0  0  0  0  0  0  0  0  0
   17.7319   18.3601   22.0075 H   0  0  0  0  0  0  0  0  0  0  0  0
   18.4962   16.9399   22.6873 H   0  0  0  0  0  0  0  0  0  0  0  0
   18.9074   18.7451   23.7921 C   0  0  0  0  0  0  0  0  0  0  0  0
   18.6482   19.8054   23.6955 H   0  0  0  0  0  0  0  0  0  0  0  0
   18.1789   18.3513   24.5142 H   0  0  0  0  0  0  0  0  0  0  0  0
   20.3243   18.5845   24.4015 C   0  0  0  0  0  0  0  0  0  0  0  0
   20.7949   17.6514   24.0658 H   0  0  0  0  0  0  0  0  0  0  0  0
   20.2056   18.4710   25.4877 H   0  0  0  0  0  0  0  0  0  0  0  0
   21.2729   19.7930   24.1736 C   0  0  0  0  0  0  0  0  0  0  0  0
   20.7979   20.7067   24.5539 H   0  0  0  0  0  0  0  0  0  0  0  0
   22.1611   19.6383   24.8004 H   0  0  0  0  0  0  0  0  0  0  0  0
   21.7590   20.0371   22.7232 C   0  0  0  0  0  0  0  0  0  0  0  0
   22.2044   19.1120   22.3332 H   0  0  0  0  0  0  0  0  0  0  0  0
   20.6505   20.5332   21.7590 C   0  0  0  0  0  0  0  0  0  0  0  0
   19.8336   20.9892   22.3273 H   0  0  0  0  0  0  0  0  0  0  0  0
   21.0421   21.3523   21.1412 H   0  0  0  0  0  0  0  0  0  0  0  0
   20.0939   19.4569   20.7913 C   0  0  0  0  0  0  0  0  0  0  0  0
   20.8243   19.3202   19.9821 H   0  0  0  0  0  0  0  0  0  0  0  0
   19.1860   19.8453   20.3103 H   0  0  0  0  0  0  0  0  0  0  0  0
   19.7964   18.0602   21.3927 C   0  0  0  0  0  0  0  0  0  0  0  0
   20.7135   17.6065   21.7856 H   0  0  0  0  0  0  0  0  0  0  0  0
   19.4984   17.4052   20.5626 H   0  0  0  0  0  0  0  0  0  0  0  0
   22.7770   21.0294   22.7793 O   0  0  0  0  0  0  0  0  0  0  0  0
   23.1250   21.1263   21.8683 H   0  0  0  0  0  0  0  0  0  0  0  0
  1  2  1  0  0  0  0
  1  3  1  0  0  0  0
  1  4  1  0  0  0  0
  4  5  1  0  0  0  0
  4  6  1  0  0  0  0
  4  7  1  0  0  0  0
  7  8  1  0  0  0  0
  7  9  1  0  0  0  0
  7 10  1  0  0  0  0
 10 11  1  0  0  0  0
 10 12  1  0  0  0  0
 10 13  1  0  0  0  0
 13 14  1  0  0  0  0
 13 15  1  0  0  0  0
 15 16  1  0  0  0  0
 15 17  1  0  0  0  0
 15 18  1  0  0  0  0
 18 19  1  0  0  0  0
 18 20  1  0  0  0  0
  1 21  1  0  0  0  0
 18 21  1  0  0  0  0
 21 22  1  0  0  0  0
 21 23  1  0  0  0  0
 13 24  1  0  0  0  0
 24 25  1  0  0  0  0
M  END
> <VConfSearch Rank>
883

> <Conf_Id>
60

> <Delta U+W>
-1.838

> <U+W>
9.075

> <U>
11.150

> <W>
-2.074

> <W(PB)>
-4.196

> <W(SA)>
2.121

> <Valence>
16.582

> <Coulomb>
-8.361

> <VdW>
2.928

> <VdW6>
-12.539

> <VdW12>
15.467

> <Bond>
0.441

> <Angle>
5.093

> <Pdih>
11.049

> <Idih>
0.000

> <Tether>
0.000

$$$$
VeraChem MOL file


 25 25  0  0  0  0  0  0  0  0999 V2000     
   19.2739   20.7183   23.5599 C   0  0  0  0  0  0  0  0  0  0  0  0
   19.7886   21.5107   24.1200 H   0  0  0  0  0  0  0  0  0  0  0  0
   18.2020   20.9423   23.6478 H   0  0  0  0  0  0  0  0  0  0  0  0
   19.5198   19.3569   24.2575 C   0  0  0  0  0  0  0  0  0  0  0  0
   19.1043   19.4311   25.2717 H   0  0  0  0  0  0  0  0  0  0  0  0
   18.9291   18.5698   23.7751 H   0  0  0  0  0  0  0  0  0  0  0  0
   20.9994   18.9189   24.3984 C   0  0  0  0  0  0  0  0  0  0  0  0
   21.0176   18.0054   25.0085 H   0  0  0  0  0  0  0  0  0  0  0  0
   21.5476   19.6745   24.9773 H   0  0  0  0  0  0  0  0  0  0  0  0
   21.7737   18.6311   23.0860 C   0  0  0  0  0  0  0  0  0  0  0  0
   22.1283   19.5673   22.6433 H   0  0  0  0  0  0  0  0  0  0  0  0
   22.6922   18.0965   23.3629 H   0  0  0  0  0  0  0  0  0  0  0  0
   20.9922   17.8049   22.0319 C   0  0  0  0  0  0  0  0  0  0  0  0
   20.1632   17.2723   22.5169 H   0  0  0  0  0  0  0  0  0  0  0  0
   20.4354   18.6452   20.8558 C   0  0  0  0  0  0  0  0  0  0  0  0
   21.2576   19.2040   20.3901 H   0  0  0  0  0  0  0  0  0  0  0  0
   20.0795   17.9466   20.0870 H   0  0  0  0  0  0  0  0  0  0  0  0
   19.2683   19.6176   21.1793 C   0  0  0  0  0  0  0  0  0  0  0  0
   18.4168   19.0745   21.6092 H   0  0  0  0  0  0  0  0  0  0  0  0
   18.9033   20.0100   20.2203 H   0  0  0  0  0  0  0  0  0  0  0  0
   19.6581   20.8319   22.0616 C   0  0  0  0  0  0  0  0  0  0  0  0
   19.1470   21.7198   21.6647 H   0  0  0  0  0  0  0  0  0  0  0  0
   20.7242   21.0604   21.9521 H   0  0  0  0  0  0  0  0  0  0  0  0
   21.8771   16.8376   21.4792 O   0  0  0  0  0  0  0  0  0  0  0  0
   22.1696   16.2682   22.2214 H   0  0  0  0  0  0  0  0  0  0  0  0
  1  2  1  0  0  0  0
  1  3  1  0  0  0  0
  1  4  1  0  0  0  0
  4  5  1  0  0  0  0
  4  6  1  0  0  0  0
  4  7  1  0  0  0  0
  7  8  1  0  0  0  0
  7  9  1  0  0  0  0
  7 10  1  0  0  0  0
 10 11  1  0  0  0  0
 10 12  1  0  0  0  0
 10 13  1  0  0  0  0
 13 14  1  0  0  0  0
 13 15  1  0  0  0  0
 15 16  1  0  0  0  0
 15 17  1  0  0  0  0
 15 18  1  0  0  0  0
 18 19  1  0  0  0  0
 18 20  1  0  0  0  0
  1 21  1  0  0  0  0
 18 21  1  0  0  0  0
 21 22  1  0  0  0  0
 21 23  1  0  0  0  0
 13 24  1  0  0  0  0
 24 25  1  0  0  0  0
M  END
> <VConfSearch Rank>
884

> <Conf_Id>
129

> <Delta U+W>
-1.846

> <U+W>
9.067

> <U>
11.150

> <W>
-2.083

> <W(PB)>
-4.217

> <W(SA)>
2.134

> <Valence>
16.583

> <Coulomb>
-8.361

> <VdW>
2.928

> <VdW6>
-12.539

> <VdW12>
15.467

> <Bond>
0.441

> <Angle>
5.093

> <Pdih>
11.049

> <Idih>
0.000

> <Tether>
0.000

$$$$
VeraChem MOL file


 25 25  0  0  0  0  0  0  0  0999 V2000     
   19.1759   18.4317   24.2148 C   0  0  0  0  0  0  0  0  0  0  0  0
   19.2437   18.8657   25.2216 H   0  0  0  0  0  0  0  0  0  0  0  0
   18.4612   17.6014   24.2978 H   0  0  0  0  0  0  0  0  0  0  0  0
   20.5470   17.8239   23.8265 C   0  0  0  0  0  0  0  0  0  0  0  0
   20.7744   17.0382   24.5598 H   0  0  0  0  0  0  0  0  0  0  0  0
   20.4723   17.2943   22.8699 H   0  0  0  0  0  0  0  0  0  0  0  0
   21.7485   18.8020   23.8141 C   0  0  0  0  0  0  0  0  0  0  0  0
   22.6560   18.2083   23.6380 H   0  0  0  0  0  0  0  0  0  0  0  0
   21.8693   19.2412   24.8136 H   0  0  0  0  0  0  0  0  0  0  0  0
   21.7163   19.9422   22.7633 C   0  0  0  0  0  0  0  0  0  0  0  0
   21.0981   20.7707   23.1238 H   0  0  0  0  0  0  0  0  0  0  0  0
   22.7321   20.3570   22.7108 H   0  0  0  0  0  0  0  0  0  0  0  0
   21.2653   19.5134   21.3430 C   0  0  0  0  0  0  0  0  0  0  0  0
   21.3853   18.4279   21.2286 H   0  0  0  0  0  0  0  0  0  0  0  0
   19.8080   19.9059   20.9921 C   0  0  0  0  0  0  0  0  0  0  0  0
   19.6760   20.9864   21.1347 H   0  0  0  0  0  0  0  0  0  0  0  0
   19.6640   19.7273   19.9181 H   0  0  0  0  0  0  0  0  0  0  0  0
   18.6782   19.1510   21.7436 C   0  0  0  0  0  0  0  0  0  0  0  0
   18.7597   18.0682   21.5832 H   0  0  0  0  0  0  0  0  0  0  0  0
   17.7298   19.4399   21.2704 H   0  0  0  0  0  0  0  0  0  0  0  0
   18.5664   19.4848   23.2537 C   0  0  0  0  0  0  0  0  0  0  0  0
   17.5007   19.5726   23.5060 H   0  0  0  0  0  0  0  0  0  0  0  0
   18.9775   20.4795   23.4597 H   0  0  0  0  0  0  0  0  0  0  0  0
   22.1137   20.1506   20.3962 O   0  0  0  0  0  0  0  0  0  0  0  0
   21.9860   21.1142   20.5148 H   0  0  0  0  0  0  0  0  0  0  0  0
  1  2  1  0  0  0  0
  1  3  1  0  0  0  0
  1  4  1  0  0  0  0
  4  5  1  0  0  0  0
  4  6  1  0  0  0  0
  4  7  1  0  0  0  0
  7  8  1  0  0  0  0
  7  9  1  0  0  0  0
  7 10  1  0  0  0  0
 10 11  1  0  0  0  0
 10 12  1  0  0  0  0
 10 13  1  0  0  0  0
 13 14  1  0  0  0  0
 13 15  1  0  0  0  0
 15 16  1  0  0  0  0
 15 17  1  0  0  0  0
 15 18  1  0  0  0  0
 18 19  1  0  0  0  0
 18 20  1  0  0  0  0
  1 21  1  0  0  0  0
 18 21  1  0  0  0  0
 21 22  1  0  0  0  0
 21 23  1  0  0  0  0
 13 24  1  0  0  0  0
 24 25  1  0  0  0  0
M  END
> <VConfSearch Rank>
885

> <Conf_Id>
140

> <Delta U+W>
-1.702

> <U+W>
9.211

> <U>
11.181

> <W>
-1.969

> <W(PB)>
-4.093

> <W(SA)>
2.124

> <Valence>
16.954

> <Coulomb>
-8.661

> <VdW>
2.887

> <VdW6>
-12.561

> <VdW12>
15.448

> <Bond>
0.433

> <Angle>
5.120

> <Pdih>
11.401

> <Idih>
0.000

> <Tether>
0.000

$$$$
VeraChem MOL file


 25 25  0  0  0  0  0  0  0  0999 V2000     
   19.5460   18.7730   20.7631 C   0  0  0  0  0  0  0  0  0  0  0  0
   19.0811   19.5624   20.1571 H   0  0  0  0  0  0  0  0  0  0  0  0
   19.4920   17.8609   20.1530 H   0  0  0  0  0  0  0  0  0  0  0  0
   18.6866   18.5428   22.0331 C   0  0  0  0  0  0  0  0  0  0  0  0
   18.3396   19.4979   22.4430 H   0  0  0  0  0  0  0  0  0  0  0  0
   17.7674   18.0336   21.7122 H   0  0  0  0  0  0  0  0  0  0  0  0
   19.3517   17.6842   23.1399 C   0  0  0  0  0  0  0  0  0  0  0  0
   20.1120   17.0147   22.7173 H   0  0  0  0  0  0  0  0  0  0  0  0
   18.5799   17.0185   23.5498 H   0  0  0  0  0  0  0  0  0  0  0  0
   19.9313   18.4938   24.3314 C   0  0  0  0  0  0  0  0  0  0  0  0
   19.1389   19.1209   24.7603 H   0  0  0  0  0  0  0  0  0  0  0  0
   20.2002   17.7748   25.1168 H   0  0  0  0  0  0  0  0  0  0  0  0
   21.1800   19.3651   24.0437 C   0  0  0  0  0  0  0  0  0  0  0  0
   21.9594   18.7409   23.5868 H   0  0  0  0  0  0  0  0  0  0  0  0
   20.9035   20.5976   23.1444 C   0  0  0  0  0  0  0  0  0  0  0  0
   19.8436   20.8686   23.1872 H   0  0  0  0  0  0  0  0  0  0  0  0
   21.4294   21.4704   23.5546 H   0  0  0  0  0  0  0  0  0  0  0  0
   21.3585   20.4492   21.6692 C   0  0  0  0  0  0  0  0  0  0  0  0
   22.4472   20.5928   21.6373 H   0  0  0  0  0  0  0  0  0  0  0  0
   20.9322   21.2722   21.0798 H   0  0  0  0  0  0  0  0  0  0  0  0
   21.0456   19.1028   20.9694 C   0  0  0  0  0  0  0  0  0  0  0  0
   21.5508   18.2763   21.4822 H   0  0  0  0  0  0  0  0  0  0  0  0
   21.5114   19.1366   19.9751 H   0  0  0  0  0  0  0  0  0  0  0  0
   21.6682   19.8294   25.2960 O   0  0  0  0  0  0  0  0  0  0  0  0
   20.9561   20.3782   25.6842 H   0  0  0  0  0  0  0  0  0  0  0  0
  1  2  1  0  0  0  0
  1  3  1  0  0  0  0
  1  4  1  0  0  0  0
  4  5  1  0  0  0  0
  4  6  1  0  0  0  0
  4  7  1  0  0  0  0
  7  8  1  0  0  0  0
  7  9  1  0  0  0  0
  7 10  1  0  0  0  0
 10 11  1  0  0  0  0
 10 12  1  0  0  0  0
 10 13  1  0  0  0  0
 13 14  1  0  0  0  0
 13 15  1  0  0  0  0
 15 16  1  0  0  0  0
 15 17  1  0  0  0  0
 15 18  1  0  0  0  0
 18 19  1  0  0  0  0
 18 20  1  0  0  0  0
  1 21  1  0  0  0  0
 18 21  1  0  0  0  0
 21 22  1  0  0  0  0
 21 23  1  0  0  0  0
 13 24  1  0  0  0  0
 24 25  1  0  0  0  0
M  END
> <VConfSearch Rank>
886

> <Conf_Id>
68

> <Delta U+W>
-1.765

> <U+W>
9.148

> <U>
11.181

> <W>
-2.032

> <W(PB)>
-4.147

> <W(SA)>
2.114

> <Valence>
16.955

> <Coulomb>
-8.661

> <VdW>
2.887

> <VdW6>
-12.561

> <VdW12>
15.448

> <Bond>
0.433

> <Angle>
5.121

> <Pdih>
11.402

> <Idih>
0.000

> <Tether>
0.000

$$$$
VeraChem MOL file


 25 25  0  0  0  0  0  0  0  0999 V2000     
   21.5285   18.4612   21.5217 C   0  0  0  0  0  0  0  0  0  0  0  0
   22.3431   18.1365   20.8599 H   0  0  0  0  0  0  0  0  0  0  0  0
   20.7351   17.7233   21.3574 H   0  0  0  0  0  0  0  0  0  0  0  0
   21.0677   19.8690   21.0624 C   0  0  0  0  0  0  0  0  0  0  0  0
   21.5702   20.6572   21.6377 H   0  0  0  0  0  0  0  0  0  0  0  0
   21.4112   20.0075   20.0280 H   0  0  0  0  0  0  0  0  0  0  0  0
   19.5312   20.0830   21.0611 C   0  0  0  0  0  0  0  0  0  0  0  0
   19.0563   19.3107   20.4404 H   0  0  0  0  0  0  0  0  0  0  0  0
   19.3274   21.0353   20.5529 H   0  0  0  0  0  0  0  0  0  0  0  0
   18.8330   20.1283   22.4464 C   0  0  0  0  0  0  0  0  0  0  0  0
   19.2742   20.9147   23.0705 H   0  0  0  0  0  0  0  0  0  0  0  0
   17.7976   20.4488   22.2680 H   0  0  0  0  0  0  0  0  0  0  0  0
   18.8082   18.7724   23.1985 C   0  0  0  0  0  0  0  0  0  0  0  0
   18.9741   17.9618   22.4795 H   0  0  0  0  0  0  0  0  0  0  0  0
   19.8378   18.6496   24.3487 C   0  0  0  0  0  0  0  0  0  0  0  0
   19.4614   19.2100   25.2146 H   0  0  0  0  0  0  0  0  0  0  0  0
   19.8795   17.5994   24.6656 H   0  0  0  0  0  0  0  0  0  0  0  0
   21.2784   19.1482   24.0657 C   0  0  0  0  0  0  0  0  0  0  0  0
   21.8455   19.0577   25.0022 H   0  0  0  0  0  0  0  0  0  0  0  0
   21.2764   20.2221   23.8465 H   0  0  0  0  0  0  0  0  0  0  0  0
   22.0636   18.3777   22.9749 C   0  0  0  0  0  0  0  0  0  0  0  0
   22.1460   17.3212   23.2642 H   0  0  0  0  0  0  0  0  0  0  0  0
   23.0914   18.7657   22.9755 H   0  0  0  0  0  0  0  0  0  0  0  0
   17.5149   18.5903   23.7614 O   0  0  0  0  0  0  0  0  0  0  0  0
   17.3778   19.3317   24.3862 H   0  0  0  0  0  0  0  0  0  0  0  0
  1  2  1  0  0  0  0
  1  3  1  0  0  0  0
  1  4  1  0  0  0  0
  4  5  1  0  0  0  0
  4  6  1  0  0  0  0
  4  7  1  0  0  0  0
  7  8  1  0  0  0  0
  7  9  1  0  0  0  0
  7 10  1  0  0  0  0
 10 11  1  0  0  0  0
 10 12  1  0  0  0  0
 10 13  1  0  0  0  0
 13 14  1  0  0  0  0
 13 15  1  0  0  0  0
 15 16  1  0  0  0  0
 15 17  1  0  0  0  0
 15 18  1  0  0  0  0
 18 19  1  0  0  0  0
 18 20  1  0  0  0  0
  1 21  1  0  0  0  0
 18 21  1  0  0  0  0
 21 22  1  0  0  0  0
 21 23  1  0  0  0  0
 13 24  1  0  0  0  0
 24 25  1  0  0  0  0
M  END
> <VConfSearch Rank>
887

> <Conf_Id>
165

> <Delta U+W>
-1.999

> <U+W>
8.915

> <U>
10.935

> <W>
-2.020

> <W(PB)>
-4.135

> <W(SA)>
2.115

> <Valence>
16.757

> <Coulomb>
-8.731

> <VdW>
2.908

> <VdW6>
-12.597

> <VdW12>
15.506

> <Bond>
0.434

> <Angle>
5.069

> <Pdih>
11.254

> <Idih>
0.000

> <Tether>
0.000

$$$$
VeraChem MOL file


 25 25  0  0  0  0  0  0  0  0999 V2000     
   21.0743   17.9410   23.7776 C   0  0  0  0  0  0  0  0  0  0  0  0
   21.4495   17.1733   24.4682 H   0  0  0  0  0  0  0  0  0  0  0  0
   21.9737   18.3204   23.2796 H   0  0  0  0  0  0  0  0  0  0  0  0
   20.4172   19.0476   24.6431 C   0  0  0  0  0  0  0  0  0  0  0  0
   19.8417   18.5527   25.4374 H   0  0  0  0  0  0  0  0  0  0  0  0
   21.2056   19.6133   25.1577 H   0  0  0  0  0  0  0  0  0  0  0  0
   19.4613   20.0348   23.9275 C   0  0  0  0  0  0  0  0  0  0  0  0
   19.0175   20.6784   24.6992 H   0  0  0  0  0  0  0  0  0  0  0  0
   18.6107   19.4955   23.4950 H   0  0  0  0  0  0  0  0  0  0  0  0
   20.1090   20.9637   22.8684 C   0  0  0  0  0  0  0  0  0  0  0  0
   19.3369   21.6700   22.5344 H   0  0  0  0  0  0  0  0  0  0  0  0
   20.8837   21.5701   23.3551 H   0  0  0  0  0  0  0  0  0  0  0  0
   20.7214   20.2891   21.6164 C   0  0  0  0  0  0  0  0  0  0  0  0
   21.6960   19.8600   21.8769 H   0  0  0  0  0  0  0  0  0  0  0  0
   19.8387   19.1843   20.9806 C   0  0  0  0  0  0  0  0  0  0  0  0
   18.7857   19.3204   21.2541 H   0  0  0  0  0  0  0  0  0  0  0  0
   19.8677   19.3025   19.8890 H   0  0  0  0  0  0  0  0  0  0  0  0
   20.2977   17.7343   21.2901 C   0  0  0  0  0  0  0  0  0  0  0  0
   21.3443   17.6111   20.9797 H   0  0  0  0  0  0  0  0  0  0  0  0
   19.7187   17.0565   20.6482 H   0  0  0  0  0  0  0  0  0  0  0  0
   20.1350   17.2500   22.7550 C   0  0  0  0  0  0  0  0  0  0  0  0
   20.3686   16.1765   22.7652 H   0  0  0  0  0  0  0  0  0  0  0  0
   19.0866   17.3168   23.0729 H   0  0  0  0  0  0  0  0  0  0  0  0
   20.9383   21.3080   20.6467 O   0  0  0  0  0  0  0  0  0  0  0  0
   21.5336   21.9682   21.0592 H   0  0  0  0  0  0  0  0  0  0  0  0
  1  2  1  0  0  0  0
  1  3  1  0  0  0  0
  1  4  1  0  0  0  0
  4  5  1  0  0  0  0
  4  6  1  0  0  0  0
  4  7  1  0  0  0  0
  7  8  1  0  0  0  0
  7  9  1  0  0  0  0
  7 10  1  0  0  0  0
 10 11  1  0  0  0  0
 10 12  1  0  0  0  0
 10 13  1  0  0  0  0
 13 14  1  0  0  0  0
 13 15  1  0  0  0  0
 15 16  1  0  0  0  0
 15 17  1  0  0  0  0
 15 18  1  0  0  0  0
 18 19  1  0  0  0  0
 18 20  1  0  0  0  0
  1 21  1  0  0  0  0
 18 21  1  0  0  0  0
 21 22  1  0  0  0  0
 21 23  1  0  0  0  0
 13 24  1  0  0  0  0
 24 25  1  0  0  0  0
M  END
> <VConfSearch Rank>
888

> <Conf_Id>
133

> <Delta U+W>
-2.139

> <U+W>
8.774

> <U>
10.905

> <W>
-2.131

> <W(PB)>
-4.281

> <W(SA)>
2.150

> <Valence>
16.378

> <Coulomb>
-8.448

> <VdW>
2.976

> <VdW6>
-12.570

> <VdW12>
15.545

> <Bond>
0.439

> <Angle>
5.049

> <Pdih>
10.889

> <Idih>
0.000

> <Tether>
0.000

$$$$
VeraChem MOL file


 25 25  0  0  0  0  0  0  0  0999 V2000     
   21.4150   19.1057   21.2166 C   0  0  0  0  0  0  0  0  0  0  0  0
   22.1320   18.9618   20.3966 H   0  0  0  0  0  0  0  0  0  0  0  0
   20.8595   20.0076   20.9357 H   0  0  0  0  0  0  0  0  0  0  0  0
   22.2186   19.3445   22.5215 C   0  0  0  0  0  0  0  0  0  0  0  0
   22.3545   18.4090   23.0791 H   0  0  0  0  0  0  0  0  0  0  0  0
   23.2322   19.6547   22.2328 H   0  0  0  0  0  0  0  0  0  0  0  0
   21.6506   20.4563   23.4424 C   0  0  0  0  0  0  0  0  0  0  0  0
   21.5706   21.3938   22.8752 H   0  0  0  0  0  0  0  0  0  0  0  0
   22.3930   20.6503   24.2285 H   0  0  0  0  0  0  0  0  0  0  0  0
   20.2944   20.1603   24.1368 C   0  0  0  0  0  0  0  0  0  0  0  0
   20.3612   19.2439   24.7349 H   0  0  0  0  0  0  0  0  0  0  0  0
   20.1261   20.9651   24.8652 H   0  0  0  0  0  0  0  0  0  0  0  0
   19.0775   20.1060   23.1774 C   0  0  0  0  0  0  0  0  0  0  0  0
   19.3358   20.6222   22.2454 H   0  0  0  0  0  0  0  0  0  0  0  0
   18.5781   18.6776   22.8488 C   0  0  0  0  0  0  0  0  0  0  0  0
   18.0081   18.3066   23.7113 H   0  0  0  0  0  0  0  0  0  0  0  0
   17.8641   18.7377   22.0173 H   0  0  0  0  0  0  0  0  0  0  0  0
   19.6527   17.6125   22.5100 C   0  0  0  0  0  0  0  0  0  0  0  0
   19.1329   16.6536   22.3794 H   0  0  0  0  0  0  0  0  0  0  0  0
   20.3167   17.4522   23.3672 H   0  0  0  0  0  0  0  0  0  0  0  0
   20.4823   17.8666   21.2265 C   0  0  0  0  0  0  0  0  0  0  0  0
   19.8071   17.9215   20.3618 H   0  0  0  0  0  0  0  0  0  0  0  0
   21.1060   16.9778   21.0587 H   0  0  0  0  0  0  0  0  0  0  0  0
   17.9956   20.8075   23.7796 O   0  0  0  0  0  0  0  0  0  0  0  0
   17.2577   20.7959   23.1347 H   0  0  0  0  0  0  0  0  0  0  0  0
  1  2  1  0  0  0  0
  1  3  1  0  0  0  0
  1  4  1  0  0  0  0
  4  5  1  0  0  0  0
  4  6  1  0  0  0  0
  4  7  1  0  0  0  0
  7  8  1  0  0  0  0
  7  9  1  0  0  0  0
  7 10  1  0  0  0  0
 10 11  1  0  0  0  0
 10 12  1  0  0  0  0
 10 13  1  0  0  0  0
 13 14  1  0  0  0  0
 13 15  1  0  0  0  0
 15 16  1  0  0  0  0
 15 17  1  0  0  0  0
 15 18  1  0  0  0  0
 18 19  1  0  0  0  0
 18 20  1  0  0  0  0
  1 21  1  0  0  0  0
 18 21  1  0  0  0  0
 21 22  1  0  0  0  0
 21 23  1  0  0  0  0
 13 24  1  0  0  0  0
 24 25  1  0  0  0  0
M  END
> <VConfSearch Rank>
889

> <Conf_Id>
95

> <Delta U+W>
-2.190

> <U+W>
8.723

> <U>
10.905

> <W>
-2.182

> <W(PB)>
-4.296

> <W(SA)>
2.114

> <Valence>
16.377

> <Coulomb>
-8.448

> <VdW>
2.976

> <VdW6>
-12.570

> <VdW12>
15.546

> <Bond>
0.439

> <Angle>
5.049

> <Pdih>
10.889

> <Idih>
0.000

> <Tether>
0.000

$$$$
VeraChem MOL file


 25 25  0  0  0  0  0  0  0  0999 V2000     
   21.9992   19.0753   23.3042 C   0  0  0  0  0  0  0  0  0  0  0  0
   23.0621   19.0202   23.5766 H   0  0  0  0  0  0  0  0  0  0  0  0
   21.4883   18.7055   24.1989 H   0  0  0  0  0  0  0  0  0  0  0  0
   21.7869   18.1092   22.1018 C   0  0  0  0  0  0  0  0  0  0  0  0
   22.6977   18.1442   21.4885 H   0  0  0  0  0  0  0  0  0  0  0  0
   21.7282   17.0790   22.4783 H   0  0  0  0  0  0  0  0  0  0  0  0
   20.5917   18.3754   21.1493 C   0  0  0  0  0  0  0  0  0  0  0  0
   20.6748   17.6744   20.3076 H   0  0  0  0  0  0  0  0  0  0  0  0
   20.7160   19.3558   20.6788 H   0  0  0  0  0  0  0  0  0  0  0  0
   19.1574   18.2196   21.7366 C   0  0  0  0  0  0  0  0  0  0  0  0
   18.4524   18.7731   21.1026 H   0  0  0  0  0  0  0  0  0  0  0  0
   18.8816   17.1619   21.6342 H   0  0  0  0  0  0  0  0  0  0  0  0
   18.9240   18.6138   23.2171 C   0  0  0  0  0  0  0  0  0  0  0  0
   19.6028   18.0195   23.8375 H   0  0  0  0  0  0  0  0  0  0  0  0
   19.0740   20.1198   23.5777 C   0  0  0  0  0  0  0  0  0  0  0  0
   18.1110   20.6111   23.3842 H   0  0  0  0  0  0  0  0  0  0  0  0
   19.2340   20.2005   24.6603 H   0  0  0  0  0  0  0  0  0  0  0  0
   20.1601   20.9526   22.8442 C   0  0  0  0  0  0  0  0  0  0  0  0
   20.0388   22.0001   23.1518 H   0  0  0  0  0  0  0  0  0  0  0  0
   19.9375   20.9734   21.7727 H   0  0  0  0  0  0  0  0  0  0  0  0
   21.6489   20.5720   23.0933 C   0  0  0  0  0  0  0  0  0  0  0  0
   21.9788   21.1078   23.9938 H   0  0  0  0  0  0  0  0  0  0  0  0
   22.2600   20.9739   22.2739 H   0  0  0  0  0  0  0  0  0  0  0  0
   17.5967   18.2284   23.5554 O   0  0  0  0  0  0  0  0  0  0  0  0
   17.5300   17.2655   23.3869 H   0  0  0  0  0  0  0  0  0  0  0  0
  1  2  1  0  0  0  0
  1  3  1  0  0  0  0
  1  4  1  0  0  0  0
  4  5  1  0  0  0  0
  4  6  1  0  0  0  0
  4  7  1  0  0  0  0
  7  8  1  0  0  0  0
  7  9  1  0  0  0  0
  7 10  1  0  0  0  0
 10 11  1  0  0  0  0
 10 12  1  0  0  0  0
 10 13  1  0  0  0  0
 13 14  1  0  0  0  0
 13 15  1  0  0  0  0
 15 16  1  0  0  0  0
 15 17  1  0  0  0  0
 15 18  1  0  0  0  0
 18 19  1  0  0  0  0
 18 20  1  0  0  0  0
  1 21  1  0  0  0  0
 18 21  1  0  0  0  0
 21 22  1  0  0  0  0
 21 23  1  0  0  0  0
 13 24  1  0  0  0  0
 24 25  1  0  0  0  0
M  END
> <VConfSearch Rank>
890

> <Conf_Id>
161

> <Delta U+W>
2.120

> <U+W>
13.033

> <U>
15.076

> <W>
-2.043

> <W(PB)>
-4.186

> <W(SA)>
2.143

> <Valence>
18.884

> <Coulomb>
-8.074

> <VdW>
4.266

> <VdW6>
-13.486

> <VdW12>
17.752

> <Bond>
0.713

> <Angle>
8.955

> <Pdih>
9.215

> <Idih>
0.000

> <Tether>
0.000

$$$$
VeraChem MOL file


 25 25  0  0  0  0  0  0  0  0999 V2000     
   19.5225   21.0085   22.4699 C   0  0  0  0  0  0  0  0  0  0  0  0
   19.1702   22.0368   22.6298 H   0  0  0  0  0  0  0  0  0  0  0  0
   19.0342   20.6870   21.5413 H   0  0  0  0  0  0  0  0  0  0  0  0
   19.0262   20.1431   23.6550 C   0  0  0  0  0  0  0  0  0  0  0  0
   19.7321   20.1898   24.4950 H   0  0  0  0  0  0  0  0  0  0  0  0
   18.1031   20.6101   24.0254 H   0  0  0  0  0  0  0  0  0  0  0  0
   18.6738   18.6722   23.2978 C   0  0  0  0  0  0  0  0  0  0  0  0
   18.2048   18.6064   22.3069 H   0  0  0  0  0  0  0  0  0  0  0  0
   17.8991   18.3504   24.0074 H   0  0  0  0  0  0  0  0  0  0  0  0
   19.8434   17.6617   23.4221 C   0  0  0  0  0  0  0  0  0  0  0  0
   20.5005   17.9531   24.2506 H   0  0  0  0  0  0  0  0  0  0  0  0
   19.4185   16.6955   23.7246 H   0  0  0  0  0  0  0  0  0  0  0  0
   20.6612   17.3984   22.1323 C   0  0  0  0  0  0  0  0  0  0  0  0
   20.0225   16.8350   21.4370 H   0  0  0  0  0  0  0  0  0  0  0  0
   21.1786   18.6456   21.3788 C   0  0  0  0  0  0  0  0  0  0  0  0
   21.9183   18.3169   20.6366 H   0  0  0  0  0  0  0  0  0  0  0  0
   20.3615   19.0651   20.7820 H   0  0  0  0  0  0  0  0  0  0  0  0
   21.8224   19.7335   22.2794 C   0  0  0  0  0  0  0  0  0  0  0  0
   22.8472   19.9198   21.9306 H   0  0  0  0  0  0  0  0  0  0  0  0
   21.9358   19.3796   23.3105 H   0  0  0  0  0  0  0  0  0  0  0  0
   21.0610   21.0807   22.2820 C   0  0  0  0  0  0  0  0  0  0  0  0
   21.2659   21.6034   21.3378 H   0  0  0  0  0  0  0  0  0  0  0  0
   21.4859   21.7143   23.0724 H   0  0  0  0  0  0  0  0  0  0  0  0
   21.7800   16.5945   22.4792 O   0  0  0  0  0  0  0  0  0  0  0  0
   22.3844   17.1786   22.9805 H   0  0  0  0  0  0  0  0  0  0  0  0
  1  2  1  0  0  0  0
  1  3  1  0  0  0  0
  1  4  1  0  0  0  0
  4  5  1  0  0  0  0
  4  6  1  0  0  0  0
  4  7  1  0  0  0  0
  7  8  1  0  0  0  0
  7  9  1  0  0  0  0
  7 10  1  0  0  0  0
 10 11  1  0  0  0  0
 10 12  1  0  0  0  0
 10 13  1  0  0  0  0
 13 14  1  0  0  0  0
 13 15  1  0  0  0  0
 15 16  1  0  0  0  0
 15 17  1  0  0  0  0
 15 18  1  0  0  0  0
 18 19  1  0  0  0  0
 18 20  1  0  0  0  0
  1 21  1  0  0  0  0
 18 21  1  0  0  0  0
 21 22  1  0  0  0  0
 21 23  1  0  0  0  0
 13 24  1  0  0  0  0
 24 25  1  0  0  0  0
M  END
> <VConfSearch Rank>
891

> <Conf_Id>
164

> <Delta U+W>
0.008

> <U+W>
10.922

> <U>
12.433

> <W>
-1.511

> <W(PB)>
-3.669

> <W(SA)>
2.157

> <Valence>
19.007

> <Coulomb>
-9.373

> <VdW>
2.799

> <VdW6>
-12.597

> <VdW12>
15.396

> <Bond>
0.425

> <Angle>
4.784

> <Pdih>
13.799

> <Idih>
0.000

> <Tether>
0.000

$$$$
VeraChem MOL file


 25 25  0  0  0  0  0  0  0  0999 V2000     
   19.2399   17.9251   23.3465 C   0  0  0  0  0  0  0  0  0  0  0  0
   20.1141   17.9646   24.0061 H   0  0  0  0  0  0  0  0  0  0  0  0
   18.5995   17.1465   23.7828 H   0  0  0  0  0  0  0  0  0  0  0  0
   19.6508   17.4435   21.9327 C   0  0  0  0  0  0  0  0  0  0  0  0
   20.0883   16.4416   22.0408 H   0  0  0  0  0  0  0  0  0  0  0  0
   18.7497   17.3091   21.3190 H   0  0  0  0  0  0  0  0  0  0  0  0
   20.6636   18.3210   21.1536 C   0  0  0  0  0  0  0  0  0  0  0  0
   20.1493   19.1472   20.6497 H   0  0  0  0  0  0  0  0  0  0  0  0
   21.0626   17.7061   20.3353 H   0  0  0  0  0  0  0  0  0  0  0  0
   21.8595   18.8522   21.9881 C   0  0  0  0  0  0  0  0  0  0  0  0
   22.0500   18.2083   22.8552 H   0  0  0  0  0  0  0  0  0  0  0  0
   22.7574   18.7682   21.3613 H   0  0  0  0  0  0  0  0  0  0  0  0
   21.7458   20.3362   22.4187 C   0  0  0  0  0  0  0  0  0  0  0  0
   21.5504   20.9394   21.5206 H   0  0  0  0  0  0  0  0  0  0  0  0
   20.6586   20.6708   23.4707 C   0  0  0  0  0  0  0  0  0  0  0  0
   20.8097   20.0867   24.3866 H   0  0  0  0  0  0  0  0  0  0  0  0
   20.8098   21.7178   23.7660 H   0  0  0  0  0  0  0  0  0  0  0  0
   19.1975   20.5412   22.9637 C   0  0  0  0  0  0  0  0  0  0  0  0
   19.1579   20.6487   21.8738 H   0  0  0  0  0  0  0  0  0  0  0  0
   18.6249   21.3978   23.3451 H   0  0  0  0  0  0  0  0  0  0  0  0
   18.4528   19.2577   23.4118 C   0  0  0  0  0  0  0  0  0  0  0  0
   17.5268   19.1611   22.8290 H   0  0  0  0  0  0  0  0  0  0  0  0
   18.1343   19.4008   24.4534 H   0  0  0  0  0  0  0  0  0  0  0  0
   23.0014   20.7256   22.9581 O   0  0  0  0  0  0  0  0  0  0  0  0
   23.1443   20.1718   23.7529 H   0  0  0  0  0  0  0  0  0  0  0  0
  1  2  1  0  0  0  0
  1  3  1  0  0  0  0
  1  4  1  0  0  0  0
  4  5  1  0  0  0  0
  4  6  1  0  0  0  0
  4  7  1  0  0  0  0
  7  8  1  0  0  0  0
  7  9  1  0  0  0  0
  7 10  1  0  0  0  0
 10 11  1  0  0  0  0
 10 12  1  0  0  0  0
 10 13  1  0  0  0  0
 13 14  1  0  0  0  0
 13 15  1  0  0  0  0
 15 16  1  0  0  0  0
 15 17  1  0  0  0  0
 15 18  1  0  0  0  0
 18 19  1  0  0  0  0
 18 20  1  0  0  0  0
  1 21  1  0  0  0  0
 18 21  1  0  0  0  0
 21 22  1  0  0  0  0
 21 23  1  0  0  0  0
 13 24  1  0  0  0  0
 24 25  1  0  0  0  0
M  END
> <VConfSearch Rank>
892

> <Conf_Id>
15

> <Delta U+W>
-1.271

> <U+W>
9.643

> <U>
11.413

> <W>
-1.770

> <W(PB)>
-3.908

> <W(SA)>
2.138

> <Valence>
17.496

> <Coulomb>
-8.736

> <VdW>
2.653

> <VdW6>
-12.485

> <VdW12>
15.138

> <Bond>
0.414

> <Angle>
5.295

> <Pdih>
11.787

> <Idih>
0.000

> <Tether>
0.000

$$$$
VeraChem MOL file


 25 25  0  0  0  0  0  0  0  0999 V2000     
   21.7565   18.2861   23.5320 C   0  0  0  0  0  0  0  0  0  0  0  0
   22.4190   17.6430   24.1273 H   0  0  0  0  0  0  0  0  0  0  0  0
   22.3156   19.2217   23.4044 H   0  0  0  0  0  0  0  0  0  0  0  0
   21.5498   17.5817   22.1652 C   0  0  0  0  0  0  0  0  0  0  0  0
   22.5119   17.5777   21.6349 H   0  0  0  0  0  0  0  0  0  0  0  0
   21.3027   16.5262   22.3432 H   0  0  0  0  0  0  0  0  0  0  0  0
   20.4715   18.1817   21.2311 C   0  0  0  0  0  0  0  0  0  0  0  0
   19.4776   17.8624   21.5657 H   0  0  0  0  0  0  0  0  0  0  0  0
   20.5915   17.7292   20.2373 H   0  0  0  0  0  0  0  0  0  0  0  0
   20.5436   19.7243   21.0882 C   0  0  0  0  0  0  0  0  0  0  0  0
   21.4542   20.1181   21.5532 H   0  0  0  0  0  0  0  0  0  0  0  0
   20.6421   19.9699   20.0228 H   0  0  0  0  0  0  0  0  0  0  0  0
   19.3051   20.4767   21.6271 C   0  0  0  0  0  0  0  0  0  0  0  0
   18.4835   20.3178   20.9140 H   0  0  0  0  0  0  0  0  0  0  0  0
   18.7863   20.0467   23.0237 C   0  0  0  0  0  0  0  0  0  0  0  0
   18.0270   20.7814   23.3237 H   0  0  0  0  0  0  0  0  0  0  0  0
   18.2358   19.1015   22.9447 H   0  0  0  0  0  0  0  0  0  0  0  0
   19.8348   19.9484   24.1639 C   0  0  0  0  0  0  0  0  0  0  0  0
   19.3096   20.1894   25.0983 H   0  0  0  0  0  0  0  0  0  0  0  0
   20.6076   20.7209   24.0600 H   0  0  0  0  0  0  0  0  0  0  0  0
   20.4726   18.5451   24.3584 C   0  0  0  0  0  0  0  0  0  0  0  0
   19.7355   17.7474   24.1951 H   0  0  0  0  0  0  0  0  0  0  0  0
   20.7543   18.4678   25.4176 H   0  0  0  0  0  0  0  0  0  0  0  0
   19.6114   21.8634   21.6677 O   0  0  0  0  0  0  0  0  0  0  0  0
   20.2752   21.9702   22.3784 H   0  0  0  0  0  0  0  0  0  0  0  0
  1  2  1  0  0  0  0
  1  3  1  0  0  0  0
  1  4  1  0  0  0  0
  4  5  1  0  0  0  0
  4  6  1  0  0  0  0
  4  7  1  0  0  0  0
  7  8  1  0  0  0  0
  7  9  1  0  0  0  0
  7 10  1  0  0  0  0
 10 11  1  0  0  0  0
 10 12  1  0  0  0  0
 10 13  1  0  0  0  0
 13 14  1  0  0  0  0
 13 15  1  0  0  0  0
 15 16  1  0  0  0  0
 15 17  1  0  0  0  0
 15 18  1  0  0  0  0
 18 19  1  0  0  0  0
 18 20  1  0  0  0  0
  1 21  1  0  0  0  0
 18 21  1  0  0  0  0
 21 22  1  0  0  0  0
 21 23  1  0  0  0  0
 13 24  1  0  0  0  0
 24 25  1  0  0  0  0
M  END
> <VConfSearch Rank>
893

> <Conf_Id>
115

> <Delta U+W>
0.038

> <U+W>
10.952

> <U>
12.526

> <W>
-1.575

> <W(PB)>
-3.698

> <W(SA)>
2.123

> <Valence>
19.016

> <Coulomb>
-9.226

> <VdW>
2.737

> <VdW6>
-12.612

> <VdW12>
15.349

> <Bond>
0.421

> <Angle>
4.883

> <Pdih>
13.711

> <Idih>
0.000

> <Tether>
0.000

$$$$
VeraChem MOL file


 25 25  0  0  0  0  0  0  0  0999 V2000     
   18.6153   19.5223   21.4087 C   0  0  0  0  0  0  0  0  0  0  0  0
   17.8133   20.1187   20.9524 H   0  0  0  0  0  0  0  0  0  0  0  0
   18.6241   18.5716   20.8588 H   0  0  0  0  0  0  0  0  0  0  0  0
   18.2247   19.2783   22.8850 C   0  0  0  0  0  0  0  0  0  0  0  0
   18.0965   20.2375   23.4047 H   0  0  0  0  0  0  0  0  0  0  0  0
   17.2328   18.8060   22.8885 H   0  0  0  0  0  0  0  0  0  0  0  0
   19.1890   18.3660   23.6779 C   0  0  0  0  0  0  0  0  0  0  0  0
   19.5037   17.5148   23.0595 H   0  0  0  0  0  0  0  0  0  0  0  0
   18.6184   17.9275   24.5082 H   0  0  0  0  0  0  0  0  0  0  0  0
   20.4093   19.1049   24.2902 C   0  0  0  0  0  0  0  0  0  0  0  0
   20.2707   20.1930   24.2640 H   0  0  0  0  0  0  0  0  0  0  0  0
   20.4507   18.8412   25.3557 H   0  0  0  0  0  0  0  0  0  0  0  0
   21.7675   18.7300   23.6557 C   0  0  0  0  0  0  0  0  0  0  0  0
   21.7548   17.6626   23.3927 H   0  0  0  0  0  0  0  0  0  0  0  0
   22.1416   19.5514   22.4020 C   0  0  0  0  0  0  0  0  0  0  0  0
   22.2194   20.6156   22.6610 H   0  0  0  0  0  0  0  0  0  0  0  0
   23.1497   19.2446   22.0939 H   0  0  0  0  0  0  0  0  0  0  0  0
   21.2049   19.3670   21.1832 C   0  0  0  0  0  0  0  0  0  0  0  0
   20.9330   18.3095   21.0661 H   0  0  0  0  0  0  0  0  0  0  0  0
   21.7845   19.6192   20.2845 H   0  0  0  0  0  0  0  0  0  0  0  0
   19.9485   20.2767   21.1945 C   0  0  0  0  0  0  0  0  0  0  0  0
   19.8909   20.7689   20.2138 H   0  0  0  0  0  0  0  0  0  0  0  0
   20.0487   21.0923   21.9229 H   0  0  0  0  0  0  0  0  0  0  0  0
   22.7827   18.9482   24.6280 O   0  0  0  0  0  0  0  0  0  0  0  0
   23.6271   18.6547   24.2265 H   0  0  0  0  0  0  0  0  0  0  0  0
  1  2  1  0  0  0  0
  1  3  1  0  0  0  0
  1  4  1  0  0  0  0
  4  5  1  0  0  0  0
  4  6  1  0  0  0  0
  4  7  1  0  0  0  0
  7  8  1  0  0  0  0
  7  9  1  0  0  0  0
  7 10  1  0  0  0  0
 10 11  1  0  0  0  0
 10 12  1  0  0  0  0
 10 13  1  0  0  0  0
 13 14  1  0  0  0  0
 13 15  1  0  0  0  0
 15 16  1  0  0  0  0
 15 17  1  0  0  0  0
 15 18  1  0  0  0  0
 18 19  1  0  0  0  0
 18 20  1  0  0  0  0
  1 21  1  0  0  0  0
 18 21  1  0  0  0  0
 21 22  1  0  0  0  0
 21 23  1  0  0  0  0
 13 24  1  0  0  0  0
 24 25  1  0  0  0  0
M  END
> <VConfSearch Rank>
894

> <Conf_Id>
30

> <Delta U+W>
0.000

> <U+W>
10.913

> <U>
13.140

> <W>
-2.227

> <W(PB)>
-4.367

> <W(SA)>
2.140

> <Valence>
19.155

> <Coulomb>
-8.157

> <VdW>
2.142

> <VdW6>
-11.576

> <VdW12>
13.718

> <Bond>
0.294

> <Angle>
3.547

> <Pdih>
15.314

> <Idih>
0.000

> <Tether>
0.000

$$$$
VeraChem MOL file


 25 25  0  0  0  0  0  0  0  0999 V2000     
   20.4913   21.2947   22.0747 C   0  0  0  0  0  0  0  0  0  0  0  0
   20.9336   22.1735   22.5636 H   0  0  0  0  0  0  0  0  0  0  0  0
   20.0454   21.6670   21.1423 H   0  0  0  0  0  0  0  0  0  0  0  0
   19.3529   20.7532   22.9741 C   0  0  0  0  0  0  0  0  0  0  0  0
   18.7672   21.6111   23.3317 H   0  0  0  0  0  0  0  0  0  0  0  0
   18.6494   20.1715   22.3674 H   0  0  0  0  0  0  0  0  0  0  0  0
   19.8377   19.9394   24.2007 C   0  0  0  0  0  0  0  0  0  0  0  0
   19.4184   20.3895   25.1108 H   0  0  0  0  0  0  0  0  0  0  0  0
   20.9239   20.0214   24.3231 H   0  0  0  0  0  0  0  0  0  0  0  0
   19.4267   18.4455   24.1706 C   0  0  0  0  0  0  0  0  0  0  0  0
   19.9681   17.9208   24.9690 H   0  0  0  0  0  0  0  0  0  0  0  0
   18.3625   18.3727   24.4300 H   0  0  0  0  0  0  0  0  0  0  0  0
   19.6375   17.6884   22.8354 C   0  0  0  0  0  0  0  0  0  0  0  0
   18.9062   18.0454   22.0981 H   0  0  0  0  0  0  0  0  0  0  0  0
   21.0554   17.8125   22.2260 C   0  0  0  0  0  0  0  0  0  0  0  0
   21.8046   17.9164   23.0213 H   0  0  0  0  0  0  0  0  0  0  0  0
   21.2951   16.8658   21.7238 H   0  0  0  0  0  0  0  0  0  0  0  0
   21.2161   18.9357   21.1629 C   0  0  0  0  0  0  0  0  0  0  0  0
   20.3139   19.0291   20.5434 H   0  0  0  0  0  0  0  0  0  0  0  0
   22.0095   18.6125   20.4749 H   0  0  0  0  0  0  0  0  0  0  0  0
   21.6426   20.3148   21.7240 C   0  0  0  0  0  0  0  0  0  0  0  0
   22.2635   20.8102   20.9650 H   0  0  0  0  0  0  0  0  0  0  0  0
   22.3098   20.1792   22.5847 H   0  0  0  0  0  0  0  0  0  0  0  0
   19.3753   16.3128   23.0868 O   0  0  0  0  0  0  0  0  0  0  0  0
   19.4318   15.8523   22.2235 H   0  0  0  0  0  0  0  0  0  0  0  0
  1  2  1  0  0  0  0
  1  3  1  0  0  0  0
  1  4  1  0  0  0  0
  4  5  1  0  0  0  0
  4  6  1  0  0  0  0
  4  7  1  0  0  0  0
  7  8  1  0  0  0  0
  7  9  1  0  0  0  0
  7 10  1  0  0  0  0
 10 11  1  0  0  0  0
 10 12  1  0  0  0  0
 10 13  1  0  0  0  0
 13 14  1  0  0  0  0
 13 15  1  0  0  0  0
 15 16  1  0  0  0  0
 15 17  1  0  0  0  0
 15 18  1  0  0  0  0
 18 19  1  0  0  0  0
 18 20  1  0  0  0  0
  1 21  1  0  0  0  0
 18 21  1  0  0  0  0
 21 22  1  0  0  0  0
 21 23  1  0  0  0  0
 13 24  1  0  0  0  0
 24 25  1  0  0  0  0
M  END
> <VConfSearch Rank>
895

> <Conf_Id>
162

> <Delta U+W>
0.219

> <U+W>
11.132

> <U>
13.296

> <W>
-2.164

> <W(PB)>
-4.311

> <W(SA)>
2.148

> <Valence>
18.607

> <Coulomb>
-8.339

> <VdW>
3.028

> <VdW6>
-12.271

> <VdW12>
15.299

> <Bond>
0.423

> <Angle>
4.488

> <Pdih>
13.696

> <Idih>
0.000

> <Tether>
0.000

$$$$
VeraChem MOL file


 25 25  0  0  0  0  0  0  0  0999 V2000     
   19.7931   20.2919   21.0664 C   0  0  0  0  0  0  0  0  0  0  0  0
   19.9070   19.3725   20.4783 H   0  0  0  0  0  0  0  0  0  0  0  0
   19.4282   21.0395   20.3488 H   0  0  0  0  0  0  0  0  0  0  0  0
   18.7020   20.0954   22.1484 C   0  0  0  0  0  0  0  0  0  0  0  0
   18.8121   20.8360   22.9519 H   0  0  0  0  0  0  0  0  0  0  0  0
   17.7379   20.3232   21.6734 H   0  0  0  0  0  0  0  0  0  0  0  0
   18.5915   18.6556   22.7231 C   0  0  0  0  0  0  0  0  0  0  0  0
   18.7665   17.9025   21.9432 H   0  0  0  0  0  0  0  0  0  0  0  0
   17.5462   18.5166   23.0315 H   0  0  0  0  0  0  0  0  0  0  0  0
   19.4684   18.3721   23.9705 C   0  0  0  0  0  0  0  0  0  0  0  0
   19.5513   19.2780   24.5835 H   0  0  0  0  0  0  0  0  0  0  0  0
   18.9309   17.6522   24.6015 H   0  0  0  0  0  0  0  0  0  0  0  0
   20.8689   17.7651   23.7035 C   0  0  0  0  0  0  0  0  0  0  0  0
   20.7274   16.7287   23.3643 H   0  0  0  0  0  0  0  0  0  0  0  0
   21.7353   18.4824   22.6410 C   0  0  0  0  0  0  0  0  0  0  0  0
   22.7589   18.0907   22.7022 H   0  0  0  0  0  0  0  0  0  0  0  0
   21.3904   18.1888   21.6438 H   0  0  0  0  0  0  0  0  0  0  0  0
   21.7838   20.0273   22.7772 C   0  0  0  0  0  0  0  0  0  0  0  0
   22.8313   20.3396   22.8847 H   0  0  0  0  0  0  0  0  0  0  0  0
   21.2988   20.3539   23.7047 H   0  0  0  0  0  0  0  0  0  0  0  0
   21.1717   20.7889   21.5768 C   0  0  0  0  0  0  0  0  0  0  0  0
   21.8800   20.7516   20.7379 H   0  0  0  0  0  0  0  0  0  0  0  0
   21.0878   21.8496   21.8498 H   0  0  0  0  0  0  0  0  0  0  0  0
   21.5799   17.7542   24.9357 O   0  0  0  0  0  0  0  0  0  0  0  0
   22.4615   17.3708   24.7489 H   0  0  0  0  0  0  0  0  0  0  0  0
  1  2  1  0  0  0  0
  1  3  1  0  0  0  0
  1  4  1  0  0  0  0
  4  5  1  0  0  0  0
  4  6  1  0  0  0  0
  4  7  1  0  0  0  0
  7  8  1  0  0  0  0
  7  9  1  0  0  0  0
  7 10  1  0  0  0  0
 10 11  1  0  0  0  0
 10 12  1  0  0  0  0
 10 13  1  0  0  0  0
 13 14  1  0  0  0  0
 13 15  1  0  0  0  0
 15 16  1  0  0  0  0
 15 17  1  0  0  0  0
 15 18  1  0  0  0  0
 18 19  1  0  0  0  0
 18 20  1  0  0  0  0
  1 21  1  0  0  0  0
 18 21  1  0  0  0  0
 21 22  1  0  0  0  0
 21 23  1  0  0  0  0
 13 24  1  0  0  0  0
 24 25  1  0  0  0  0
M  END
> <VConfSearch Rank>
896

> <Conf_Id>
155

> <Delta U+W>
0.339

> <U+W>
11.252

> <U>
13.420

> <W>
-2.167

> <W(PB)>
-4.325

> <W(SA)>
2.157

> <Valence>
18.609

> <Coulomb>
-8.052

> <VdW>
2.863

> <VdW6>
-12.524

> <VdW12>
15.387

> <Bond>
0.430

> <Angle>
4.724

> <Pdih>
13.455

> <Idih>
0.000

> <Tether>
0.000

$$$$
VeraChem MOL file


 25 25  0  0  0  0  0  0  0  0999 V2000     
   21.6269   20.5661   23.4449 C   0  0  0  0  0  0  0  0  0  0  0  0
   22.5441   20.7110   22.8583 H   0  0  0  0  0  0  0  0  0  0  0  0
   21.7123   21.2555   24.2959 H   0  0  0  0  0  0  0  0  0  0  0  0
   20.4063   21.0318   22.6082 C   0  0  0  0  0  0  0  0  0  0  0  0
   19.5070   20.9982   23.2312 H   0  0  0  0  0  0  0  0  0  0  0  0
   20.5353   22.1028   22.4009 H   0  0  0  0  0  0  0  0  0  0  0  0
   20.1596   20.3283   21.2416 C   0  0  0  0  0  0  0  0  0  0  0  0
   20.7622   20.8532   20.4880 H   0  0  0  0  0  0  0  0  0  0  0  0
   19.1141   20.4861   20.9436 H   0  0  0  0  0  0  0  0  0  0  0  0
   20.4997   18.8177   21.1230 C   0  0  0  0  0  0  0  0  0  0  0  0
   20.3965   18.5404   20.0657 H   0  0  0  0  0  0  0  0  0  0  0  0
   21.5666   18.6734   21.3143 H   0  0  0  0  0  0  0  0  0  0  0  0
   19.6593   17.8118   21.9634 C   0  0  0  0  0  0  0  0  0  0  0  0
   20.2614   16.9016   22.0966 H   0  0  0  0  0  0  0  0  0  0  0  0
   19.1745   18.2706   23.3616 C   0  0  0  0  0  0  0  0  0  0  0  0
   18.5208   19.1399   23.2455 H   0  0  0  0  0  0  0  0  0  0  0  0
   18.5040   17.4926   23.7499 H   0  0  0  0  0  0  0  0  0  0  0  0
   20.2516   18.5293   24.4576 C   0  0  0  0  0  0  0  0  0  0  0  0
   20.4599   17.5682   24.9472 H   0  0  0  0  0  0  0  0  0  0  0  0
   19.8171   19.1675   25.2387 H   0  0  0  0  0  0  0  0  0  0  0  0
   21.6178   19.1187   24.0185 C   0  0  0  0  0  0  0  0  0  0  0  0
   22.1090   18.4239   23.3301 H   0  0  0  0  0  0  0  0  0  0  0  0
   22.2770   19.1168   24.8974 H   0  0  0  0  0  0  0  0  0  0  0  0
   18.4976   17.4790   21.2111 O   0  0  0  0  0  0  0  0  0  0  0  0
   18.8079   17.1404   20.3461 H   0  0  0  0  0  0  0  0  0  0  0  0
  1  2  1  0  0  0  0
  1  3  1  0  0  0  0
  1  4  1  0  0  0  0
  4  5  1  0  0  0  0
  4  6  1  0  0  0  0
  4  7  1  0  0  0  0
  7  8  1  0  0  0  0
  7  9  1  0  0  0  0
  7 10  1  0  0  0  0
 10 11  1  0  0  0  0
 10 12  1  0  0  0  0
 10 13  1  0  0  0  0
 13 14  1  0  0  0  0
 13 15  1  0  0  0  0
 15 16  1  0  0  0  0
 15 17  1  0  0  0  0
 15 18  1  0  0  0  0
 18 19  1  0  0  0  0
 18 20  1  0  0  0  0
  1 21  1  0  0  0  0
 18 21  1  0  0  0  0
 21 22  1  0  0  0  0
 21 23  1  0  0  0  0
 13 24  1  0  0  0  0
 24 25  1  0  0  0  0
M  END
> <VConfSearch Rank>
897

> <Conf_Id>
146

> <Delta U+W>
2.553

> <U+W>
13.466

> <U>
15.643

> <W>
-2.176

> <W(PB)>
-4.307

> <W(SA)>
2.131

> <Valence>
18.916

> <Coulomb>
-7.506

> <VdW>
4.232

> <VdW6>
-13.632

> <VdW12>
17.864

> <Bond>
0.735

> <Angle>
9.140

> <Pdih>
9.042

> <Idih>
0.000

> <Tether>
0.000

$$$$
VeraChem MOL file


 25 25  0  0  0  0  0  0  0  0999 V2000     
   19.6823   19.7333   24.5753 C   0  0  0  0  0  0  0  0  0  0  0  0
   18.8194   20.3855   24.7666 H   0  0  0  0  0  0  0  0  0  0  0  0
   20.0636   19.4488   25.5655 H   0  0  0  0  0  0  0  0  0  0  0  0
   20.7935   20.5496   23.8689 C   0  0  0  0  0  0  0  0  0  0  0  0
   21.0801   21.3647   24.5473 H   0  0  0  0  0  0  0  0  0  0  0  0
   21.7021   19.9457   23.7646 H   0  0  0  0  0  0  0  0  0  0  0  0
   20.4098   21.1937   22.5131 C   0  0  0  0  0  0  0  0  0  0  0  0
   21.2501   21.8277   22.1987 H   0  0  0  0  0  0  0  0  0  0  0  0
   19.5617   21.8756   22.6620 H   0  0  0  0  0  0  0  0  0  0  0  0
   20.0808   20.2286   21.3443 C   0  0  0  0  0  0  0  0  0  0  0  0
   19.0470   19.8773   21.4207 H   0  0  0  0  0  0  0  0  0  0  0  0
   20.1010   20.8222   20.4203 H   0  0  0  0  0  0  0  0  0  0  0  0
   21.0456   19.0243   21.1936 C   0  0  0  0  0  0  0  0  0  0  0  0
   21.9916   19.2438   21.7065 H   0  0  0  0  0  0  0  0  0  0  0  0
   20.4742   17.6843   21.7224 C   0  0  0  0  0  0  0  0  0  0  0  0
   19.5124   17.4840   21.2320 H   0  0  0  0  0  0  0  0  0  0  0  0
   21.1456   16.8782   21.3987 H   0  0  0  0  0  0  0  0  0  0  0  0
   20.3030   17.5523   23.2602 C   0  0  0  0  0  0  0  0  0  0  0  0
   21.2603   17.7094   23.7739 H   0  0  0  0  0  0  0  0  0  0  0  0
   20.0369   16.5061   23.4644 H   0  0  0  0  0  0  0  0  0  0  0  0
   19.1899   18.4431   23.8702 C   0  0  0  0  0  0  0  0  0  0  0  0
   18.6518   17.8501   24.6224 H   0  0  0  0  0  0  0  0  0  0  0  0
   18.4306   18.6804   23.1165 H   0  0  0  0  0  0  0  0  0  0  0  0
   21.3213   18.8494   19.8084 O   0  0  0  0  0  0  0  0  0  0  0  0
   21.9764   18.1240   19.7393 H   0  0  0  0  0  0  0  0  0  0  0  0
  1  2  1  0  0  0  0
  1  3  1  0  0  0  0
  1  4  1  0  0  0  0
  4  5  1  0  0  0  0
  4  6  1  0  0  0  0
  4  7  1  0  0  0  0
  7  8  1  0  0  0  0
  7  9  1  0  0  0  0
  7 10  1  0  0  0  0
 10 11  1  0  0  0  0
 10 12  1  0  0  0  0
 10 13  1  0  0  0  0
 13 14  1  0  0  0  0
 13 15  1  0  0  0  0
 15 16  1  0  0  0  0
 15 17  1  0  0  0  0
 15 18  1  0  0  0  0
 18 19  1  0  0  0  0
 18 20  1  0  0  0  0
  1 21  1  0  0  0  0
 18 21  1  0  0  0  0
 21 22  1  0  0  0  0
 21 23  1  0  0  0  0
 13 24  1  0  0  0  0
 24 25  1  0  0  0  0
M  END
> <VConfSearch Rank>
898

> <Conf_Id>
62

> <Delta U+W>
-1.779

> <U+W>
9.134

> <U>
11.364

> <W>
-2.230

> <W(PB)>
-4.359

> <W(SA)>
2.129

> <Valence>
16.582

> <Coulomb>
-8.150

> <VdW>
2.933

> <VdW6>
-12.531

> <VdW12>
15.464

> <Bond>
0.439

> <Angle>
5.099

> <Pdih>
11.044

> <Idih>
0.000

> <Tether>
0.000

$$$$
VeraChem MOL file


 25 25  0  0  0  0  0  0  0  0999 V2000     
   19.9450   20.9156   22.0733 C   0  0  0  0  0  0  0  0  0  0  0  0
   19.8546   20.9799   23.1636 H   0  0  0  0  0  0  0  0  0  0  0  0
   19.6798   21.9193   21.7143 H   0  0  0  0  0  0  0  0  0  0  0  0
   18.8955   19.9302   21.5014 C   0  0  0  0  0  0  0  0  0  0  0  0
   17.9025   20.3107   21.7774 H   0  0  0  0  0  0  0  0  0  0  0  0
   18.9302   19.9598   20.4039 H   0  0  0  0  0  0  0  0  0  0  0  0
   18.9838   18.4547   21.9679 C   0  0  0  0  0  0  0  0  0  0  0  0
   19.7252   17.9074   21.3747 H   0  0  0  0  0  0  0  0  0  0  0  0
   18.0261   17.9783   21.7174 H   0  0  0  0  0  0  0  0  0  0  0  0
   19.2436   18.2532   23.4849 C   0  0  0  0  0  0  0  0  0  0  0  0
   18.9153   19.1271   24.0609 H   0  0  0  0  0  0  0  0  0  0  0  0
   18.5991   17.4290   23.8174 H   0  0  0  0  0  0  0  0  0  0  0  0
   20.7010   17.8768   23.8530 C   0  0  0  0  0  0  0  0  0  0  0  0
   20.9942   17.0046   23.2511 H   0  0  0  0  0  0  0  0  0  0  0  0
   21.7691   18.9808   23.6525 C   0  0  0  0  0  0  0  0  0  0  0  0
   21.5131   19.8739   24.2353 H   0  0  0  0  0  0  0  0  0  0  0  0
   22.7024   18.6066   24.0936 H   0  0  0  0  0  0  0  0  0  0  0  0
   22.0686   19.3432   22.1731 C   0  0  0  0  0  0  0  0  0  0  0  0
   21.8114   18.5070   21.5131 H   0  0  0  0  0  0  0  0  0  0  0  0
   23.1556   19.4569   22.0614 H   0  0  0  0  0  0  0  0  0  0  0  0
   21.4174   20.6561   21.6679 C   0  0  0  0  0  0  0  0  0  0  0  0
   21.5059   20.7000   20.5739 H   0  0  0  0  0  0  0  0  0  0  0  0
   22.0158   21.4953   22.0481 H   0  0  0  0  0  0  0  0  0  0  0  0
   20.7180   17.5099   25.2269 O   0  0  0  0  0  0  0  0  0  0  0  0
   20.0890   16.7655   25.3290 H   0  0  0  0  0  0  0  0  0  0  0  0
  1  2  1  0  0  0  0
  1  3  1  0  0  0  0
  1  4  1  0  0  0  0
  4  5  1  0  0  0  0
  4  6  1  0  0  0  0
  4  7  1  0  0  0  0
  7  8  1  0  0  0  0
  7  9  1  0  0  0  0
  7 10  1  0  0  0  0
 10 11  1  0  0  0  0
 10 12  1  0  0  0  0
 10 13  1  0  0  0  0
 13 14  1  0  0  0  0
 13 15  1  0  0  0  0
 15 16  1  0  0  0  0
 15 17  1  0  0  0  0
 15 18  1  0  0  0  0
 18 19  1  0  0  0  0
 18 20  1  0  0  0  0
  1 21  1  0  0  0  0
 18 21  1  0  0  0  0
 21 22  1  0  0  0  0
 21 23  1  0  0  0  0
 13 24  1  0  0  0  0
 24 25  1  0  0  0  0
M  END
> <VConfSearch Rank>
899

> <Conf_Id>
121

> <Delta U+W>
-1.283

> <U+W>
9.630

> <U>
11.876

> <W>
-2.246

> <W(PB)>
-4.376

> <W(SA)>
2.130

> <Valence>
17.153

> <Coulomb>
-7.966

> <VdW>
2.689

> <VdW6>
-12.458

> <VdW12>
15.147

> <Bond>
0.421

> <Angle>
5.258

> <Pdih>
11.475

> <Idih>
0.000

> <Tether>
0.000

$$$$
VeraChem MOL file


 25 25  0  0  0  0  0  0  0  0999 V2000     
   21.2452   20.7566   22.0174 C   0  0  0  0  0  0  0  0  0  0  0  0
   22.0138   19.9763   22.0550 H   0  0  0  0  0  0  0  0  0  0  0  0
   21.7648   21.6374   21.6163 H   0  0  0  0  0  0  0  0  0  0  0  0
   20.7689   21.1149   23.4473 C   0  0  0  0  0  0  0  0  0  0  0  0
   21.6448   21.4734   24.0052 H   0  0  0  0  0  0  0  0  0  0  0  0
   20.0792   21.9683   23.3970 H   0  0  0  0  0  0  0  0  0  0  0  0
   20.1099   19.9834   24.2769 C   0  0  0  0  0  0  0  0  0  0  0  0
   19.0486   19.8869   24.0217 H   0  0  0  0  0  0  0  0  0  0  0  0
   20.1115   20.3082   25.3264 H   0  0  0  0  0  0  0  0  0  0  0  0
   20.8167   18.6037   24.1959 C   0  0  0  0  0  0  0  0  0  0  0  0
   21.8746   18.7154   23.9293 H   0  0  0  0  0  0  0  0  0  0  0  0
   20.8180   18.1762   25.2074 H   0  0  0  0  0  0  0  0  0  0  0  0
   20.1295   17.5692   23.2700 C   0  0  0  0  0  0  0  0  0  0  0  0
   19.0743   17.4910   23.5690 H   0  0  0  0  0  0  0  0  0  0  0  0
   20.1829   17.8631   21.7494 C   0  0  0  0  0  0  0  0  0  0  0  0
   21.2226   17.9561   21.4123 H   0  0  0  0  0  0  0  0  0  0  0  0
   19.7891   16.9787   21.2315 H   0  0  0  0  0  0  0  0  0  0  0  0
   19.3356   19.0792   21.2886 C   0  0  0  0  0  0  0  0  0  0  0  0
   18.5262   19.2759   22.0007 H   0  0  0  0  0  0  0  0  0  0  0  0
   18.8213   18.8059   20.3570 H   0  0  0  0  0  0  0  0  0  0  0  0
   20.1372   20.3751   21.0042 C   0  0  0  0  0  0  0  0  0  0  0  0
   19.4348   21.2134   20.9019 H   0  0  0  0  0  0  0  0  0  0  0  0
   20.6144   20.2658   20.0208 H   0  0  0  0  0  0  0  0  0  0  0  0
   20.7603   16.3136   23.4892 O   0  0  0  0  0  0  0  0  0  0  0  0
   20.2744   15.6547   22.9507 H   0  0  0  0  0  0  0  0  0  0  0  0
  1  2  1  0  0  0  0
  1  3  1  0  0  0  0
  1  4  1  0  0  0  0
  4  5  1  0  0  0  0
  4  6  1  0  0  0  0
  4  7  1  0  0  0  0
  7  8  1  0  0  0  0
  7  9  1  0  0  0  0
  7 10  1  0  0  0  0
 10 11  1  0  0  0  0
 10 12  1  0  0  0  0
 10 13  1  0  0  0  0
 13 14  1  0  0  0  0
 13 15  1  0  0  0  0
 15 16  1  0  0  0  0
 15 17  1  0  0  0  0
 15 18  1  0  0  0  0
 18 19  1  0  0  0  0
 18 20  1  0  0  0  0
  1 21  1  0  0  0  0
 18 21  1  0  0  0  0
 21 22  1  0  0  0  0
 21 23  1  0  0  0  0
 13 24  1  0  0  0  0
 24 25  1  0  0  0  0
M  END
> <VConfSearch Rank>
900

> <Conf_Id>
24

> <Delta U+W>
-1.236

> <U+W>
9.678

> <U>
11.876

> <W>
-2.199

> <W(PB)>
-4.335

> <W(SA)>
2.137

> <Valence>
17.153

> <Coulomb>
-7.966

> <VdW>
2.689

> <VdW6>
-12.458

> <VdW12>
15.147

> <Bond>
0.421

> <Angle>
5.258

> <Pdih>
11.475

> <Idih>
0.000

> <Tether>
0.000

$$$$
VeraChem MOL file


 25 25  0  0  0  0  0  0  0  0999 V2000     
   21.0098   21.0606   23.3859 C   0  0  0  0  0  0  0  0  0  0  0  0
   20.6994   22.0319   22.9772 H   0  0  0  0  0  0  0  0  0  0  0  0
   21.7744   21.2870   24.1415 H   0  0  0  0  0  0  0  0  0  0  0  0
   19.8005   20.4114   24.1102 C   0  0  0  0  0  0  0  0  0  0  0  0
   20.1380   19.6237   24.7957 H   0  0  0  0  0  0  0  0  0  0  0  0
   19.3673   21.1821   24.7624 H   0  0  0  0  0  0  0  0  0  0  0  0
   18.6718   19.8710   23.1977 C   0  0  0  0  0  0  0  0  0  0  0  0
   18.5574   20.5000   22.3045 H   0  0  0  0  0  0  0  0  0  0  0  0
   17.7311   19.9823   23.7543 H   0  0  0  0  0  0  0  0  0  0  0  0
   18.7941   18.3689   22.8149 C   0  0  0  0  0  0  0  0  0  0  0  0
   19.1980   17.7844   23.6514 H   0  0  0  0  0  0  0  0  0  0  0  0
   17.7704   17.9996   22.6648 H   0  0  0  0  0  0  0  0  0  0  0  0
   19.5932   18.0869   21.5191 C   0  0  0  0  0  0  0  0  0  0  0  0
   19.4962   18.9549   20.8536 H   0  0  0  0  0  0  0  0  0  0  0  0
   21.0951   17.7629   21.7223 C   0  0  0  0  0  0  0  0  0  0  0  0
   21.1957   16.7606   22.1590 H   0  0  0  0  0  0  0  0  0  0  0  0
   21.5605   17.7077   20.7293 H   0  0  0  0  0  0  0  0  0  0  0  0
   21.9130   18.7524   22.5898 C   0  0  0  0  0  0  0  0  0  0  0  0
   22.9791   18.5281   22.4488 H   0  0  0  0  0  0  0  0  0  0  0  0
   21.7244   18.5564   23.6517 H   0  0  0  0  0  0  0  0  0  0  0  0
   21.6694   20.2441   22.2477 C   0  0  0  0  0  0  0  0  0  0  0  0
   21.0785   20.3476   21.3302 H   0  0  0  0  0  0  0  0  0  0  0  0
   22.6347   20.7120   22.0106 H   0  0  0  0  0  0  0  0  0  0  0  0
   19.0057   16.9690   20.8658 O   0  0  0  0  0  0  0  0  0  0  0  0
   19.0851   16.2137   21.4841 H   0  0  0  0  0  0  0  0  0  0  0  0
  1  2  1  0  0  0  0
  1  3  1  0  0  0  0
  1  4  1  0  0  0  0
  4  5  1  0  0  0  0
  4  6  1  0  0  0  0
  4  7  1  0  0  0  0
  7  8  1  0  0  0  0
  7  9  1  0  0  0  0
  7 10  1  0  0  0  0
 10 11  1  0  0  0  0
 10 12  1  0  0  0  0
 10 13  1  0  0  0  0
 13 14  1  0  0  0  0
 13 15  1  0  0  0  0
 15 16  1  0  0  0  0
 15 17  1  0  0  0  0
 15 18  1  0  0  0  0
 18 19  1  0  0  0  0
 18 20  1  0  0  0  0
  1 21  1  0  0  0  0
 18 21  1  0  0  0  0
 21 22  1  0  0  0  0
 21 23  1  0  0  0  0
 13 24  1  0  0  0  0
 24 25  1  0  0  0  0
M  END
> <VConfSearch Rank>
901

> <Conf_Id>
167

> <Delta U+W>
0.388

> <U+W>
11.301

> <U>
13.202

> <W>
-1.901

> <W(PB)>
-4.065

> <W(SA)>
2.163

> <Valence>
18.957

> <Coulomb>
-8.753

> <VdW>
2.998

> <VdW6>
-12.294

> <VdW12>
15.292

> <Bond>
0.419

> <Angle>
4.543

> <Pdih>
13.996

> <Idih>
0.000

> <Tether>
0.000

$$$$
VeraChem MOL file


 25 25  0  0  0  0  0  0  0  0999 V2000     
   19.7035   20.6906   21.3214 C   0  0  0  0  0  0  0  0  0  0  0  0
   18.8138   21.3061   21.5112 H   0  0  0  0  0  0  0  0  0  0  0  0
   20.1190   21.0559   20.3723 H   0  0  0  0  0  0  0  0  0  0  0  0
   19.2604   19.2199   21.1072 C   0  0  0  0  0  0  0  0  0  0  0  0
   18.4716   18.9466   21.8170 H   0  0  0  0  0  0  0  0  0  0  0  0
   18.7716   19.1709   20.1245 H   0  0  0  0  0  0  0  0  0  0  0  0
   20.4011   18.1696   21.1303 C   0  0  0  0  0  0  0  0  0  0  0  0
   21.3610   18.6233   20.8518 H   0  0  0  0  0  0  0  0  0  0  0  0
   20.1906   17.4362   20.3399 H   0  0  0  0  0  0  0  0  0  0  0  0
   20.5313   17.3775   22.4599 C   0  0  0  0  0  0  0  0  0  0  0  0
   19.5714   16.9000   22.6958 H   0  0  0  0  0  0  0  0  0  0  0  0
   21.2366   16.5540   22.2859 H   0  0  0  0  0  0  0  0  0  0  0  0
   21.0265   18.1655   23.6981 C   0  0  0  0  0  0  0  0  0  0  0  0
   21.9703   18.6691   23.4496 H   0  0  0  0  0  0  0  0  0  0  0  0
   20.0061   19.2000   24.2398 C   0  0  0  0  0  0  0  0  0  0  0  0
   18.9944   18.9361   23.9158 H   0  0  0  0  0  0  0  0  0  0  0  0
   19.9661   19.1360   25.3353 H   0  0  0  0  0  0  0  0  0  0  0  0
   20.3158   20.6762   23.8794 C   0  0  0  0  0  0  0  0  0  0  0  0
   21.1177   21.0250   24.5443 H   0  0  0  0  0  0  0  0  0  0  0  0
   19.4396   21.2932   24.1206 H   0  0  0  0  0  0  0  0  0  0  0  0
   20.7586   20.9640   22.4227 C   0  0  0  0  0  0  0  0  0  0  0  0
   21.6931   20.4394   22.1932 H   0  0  0  0  0  0  0  0  0  0  0  0
   21.0194   22.0296   22.3663 H   0  0  0  0  0  0  0  0  0  0  0  0
   21.2876   17.2175   24.7264 O   0  0  0  0  0  0  0  0  0  0  0  0
   21.6649   17.7177   25.4801 H   0  0  0  0  0  0  0  0  0  0  0  0
  1  2  1  0  0  0  0
  1  3  1  0  0  0  0
  1  4  1  0  0  0  0
  4  5  1  0  0  0  0
  4  6  1  0  0  0  0
  4  7  1  0  0  0  0
  7  8  1  0  0  0  0
  7  9  1  0  0  0  0
  7 10  1  0  0  0  0
 10 11  1  0  0  0  0
 10 12  1  0  0  0  0
 10 13  1  0  0  0  0
 13 14  1  0  0  0  0
 13 15  1  0  0  0  0
 15 16  1  0  0  0  0
 15 17  1  0  0  0  0
 15 18  1  0  0  0  0
 18 19  1  0  0  0  0
 18 20  1  0  0  0  0
  1 21  1  0  0  0  0
 18 21  1  0  0  0  0
 21 22  1  0  0  0  0
 21 23  1  0  0  0  0
 13 24  1  0  0  0  0
 24 25  1  0  0  0  0
M  END
> <VConfSearch Rank>
902

> <Conf_Id>
60

> <Delta U+W>
-1.838

> <U+W>
9.075

> <U>
11.150

> <W>
-2.074

> <W(PB)>
-4.196

> <W(SA)>
2.121

> <Valence>
16.582

> <Coulomb>
-8.361

> <VdW>
2.928

> <VdW6>
-12.539

> <VdW12>
15.467

> <Bond>
0.441

> <Angle>
5.093

> <Pdih>
11.049

> <Idih>
0.000

> <Tether>
0.000

$$$$
VeraChem MOL file


 25 25  0  0  0  0  0  0  0  0999 V2000     
   20.3249   21.2027   23.1045 C   0  0  0  0  0  0  0  0  0  0  0  0
   19.6266   21.6248   23.8399 H   0  0  0  0  0  0  0  0  0  0  0  0
   20.9044   22.0548   22.7238 H   0  0  0  0  0  0  0  0  0  0  0  0
   19.5230   20.6207   21.9134 C   0  0  0  0  0  0  0  0  0  0  0  0
   18.9596   21.4499   21.4641 H   0  0  0  0  0  0  0  0  0  0  0  0
   20.2042   20.2898   21.1212 H   0  0  0  0  0  0  0  0  0  0  0  0
   18.5034   19.5055   22.2562 C   0  0  0  0  0  0  0  0  0  0  0  0
   17.9381   19.2811   21.3413 H   0  0  0  0  0  0  0  0  0  0  0  0
   17.7675   19.8948   22.9728 H   0  0  0  0  0  0  0  0  0  0  0  0
   19.0787   18.1721   22.8002 C   0  0  0  0  0  0  0  0  0  0  0  0
   19.2907   18.2606   23.8705 H   0  0  0  0  0  0  0  0  0  0  0  0
   18.2751   17.4258   22.7431 H   0  0  0  0  0  0  0  0  0  0  0  0
   20.3293   17.6440   22.0507 C   0  0  0  0  0  0  0  0  0  0  0  0
   20.3927   18.1104   21.0584 H   0  0  0  0  0  0  0  0  0  0  0  0
   21.6626   17.8742   22.8047 C   0  0  0  0  0  0  0  0  0  0  0  0
   21.5896   17.4371   23.8092 H   0  0  0  0  0  0  0  0  0  0  0  0
   22.4412   17.2981   22.2872 H   0  0  0  0  0  0  0  0  0  0  0  0
   22.1622   19.3407   22.9147 C   0  0  0  0  0  0  0  0  0  0  0  0
   22.2823   19.7868   21.9191 H   0  0  0  0  0  0  0  0  0  0  0  0
   23.1760   19.3028   23.3361 H   0  0  0  0  0  0  0  0  0  0  0  0
   21.3089   20.2519   23.8347 C   0  0  0  0  0  0  0  0  0  0  0  0
   21.9927   20.8831   24.4187 H   0  0  0  0  0  0  0  0  0  0  0  0
   20.7821   19.6538   24.5868 H   0  0  0  0  0  0  0  0  0  0  0  0
   20.1811   16.2403   21.8717 O   0  0  0  0  0  0  0  0  0  0  0  0
   19.3718   16.1097   21.3346 H   0  0  0  0  0  0  0  0  0  0  0  0
  1  2  1  0  0  0  0
  1  3  1  0  0  0  0
  1  4  1  0  0  0  0
  4  5  1  0  0  0  0
  4  6  1  0  0  0  0
  4  7  1  0  0  0  0
  7  8  1  0  0  0  0
  7  9  1  0  0  0  0
  7 10  1  0  0  0  0
 10 11  1  0  0  0  0
 10 12  1  0  0  0  0
 10 13  1  0  0  0  0
 13 14  1  0  0  0  0
 13 15  1  0  0  0  0
 15 16  1  0  0  0  0
 15 17  1  0  0  0  0
 15 18  1  0  0  0  0
 18 19  1  0  0  0  0
 18 20  1  0  0  0  0
  1 21  1  0  0  0  0
 18 21  1  0  0  0  0
 21 22  1  0  0  0  0
 21 23  1  0  0  0  0
 13 24  1  0  0  0  0
 24 25  1  0  0  0  0
M  END
> <VConfSearch Rank>
903

> <Conf_Id>
129

> <Delta U+W>
-1.846

> <U+W>
9.067

> <U>
11.150

> <W>
-2.083

> <W(PB)>
-4.217

> <W(SA)>
2.134

> <Valence>
16.583

> <Coulomb>
-8.361

> <VdW>
2.928

> <VdW6>
-12.539

> <VdW12>
15.467

> <Bond>
0.441

> <Angle>
5.093

> <Pdih>
11.049

> <Idih>
0.000

> <Tether>
0.000

$$$$
VeraChem MOL file


 25 25  0  0  0  0  0  0  0  0999 V2000     
   21.2198   17.4289   22.2628 C   0  0  0  0  0  0  0  0  0  0  0  0
   22.3161   17.3718   22.2271 H   0  0  0  0  0  0  0  0  0  0  0  0
   20.8637   16.4074   22.0717 H   0  0  0  0  0  0  0  0  0  0  0  0
   20.7159   18.3191   21.0992 C   0  0  0  0  0  0  0  0  0  0  0  0
   21.0370   17.8434   20.1625 H   0  0  0  0  0  0  0  0  0  0  0  0
   19.6209   18.3042   21.0542 H   0  0  0  0  0  0  0  0  0  0  0  0
   21.2411   19.7765   21.0777 C   0  0  0  0  0  0  0  0  0  0  0  0
   20.8943   20.2389   20.1434 H   0  0  0  0  0  0  0  0  0  0  0  0
   22.3377   19.7662   21.0155 H   0  0  0  0  0  0  0  0  0  0  0  0
   20.8116   20.6963   22.2501 C   0  0  0  0  0  0  0  0  0  0  0  0
   21.4516   20.5218   23.1210 H   0  0  0  0  0  0  0  0  0  0  0  0
   21.0342   21.7279   21.9450 H   0  0  0  0  0  0  0  0  0  0  0  0
   19.3175   20.5933   22.6519 C   0  0  0  0  0  0  0  0  0  0  0  0
   18.7406   20.1603   21.8238 H   0  0  0  0  0  0  0  0  0  0  0  0
   19.0595   19.7703   23.9391 C   0  0  0  0  0  0  0  0  0  0  0  0
   19.6581   20.1819   24.7622 H   0  0  0  0  0  0  0  0  0  0  0  0
   18.0109   19.9230   24.2280 H   0  0  0  0  0  0  0  0  0  0  0  0
   19.2982   18.2385   23.8516 C   0  0  0  0  0  0  0  0  0  0  0  0
   18.6785   17.7921   23.0634 H   0  0  0  0  0  0  0  0  0  0  0  0
   18.9272   17.8022   24.7891 H   0  0  0  0  0  0  0  0  0  0  0  0
   20.7834   17.8199   23.6985 C   0  0  0  0  0  0  0  0  0  0  0  0
   20.9591   16.9443   24.3383 H   0  0  0  0  0  0  0  0  0  0  0  0
   21.4452   18.5922   24.1064 H   0  0  0  0  0  0  0  0  0  0  0  0
   18.8288   21.9079   22.8863 O   0  0  0  0  0  0  0  0  0  0  0  0
   19.3542   22.2700   23.6292 H   0  0  0  0  0  0  0  0  0  0  0  0
  1  2  1  0  0  0  0
  1  3  1  0  0  0  0
  1  4  1  0  0  0  0
  4  5  1  0  0  0  0
  4  6  1  0  0  0  0
  4  7  1  0  0  0  0
  7  8  1  0  0  0  0
  7  9  1  0  0  0  0
  7 10  1  0  0  0  0
 10 11  1  0  0  0  0
 10 12  1  0  0  0  0
 10 13  1  0  0  0  0
 13 14  1  0  0  0  0
 13 15  1  0  0  0  0
 15 16  1  0  0  0  0
 15 17  1  0  0  0  0
 15 18  1  0  0  0  0
 18 19  1  0  0  0  0
 18 20  1  0  0  0  0
  1 21  1  0  0  0  0
 18 21  1  0  0  0  0
 21 22  1  0  0  0  0
 21 23  1  0  0  0  0
 13 24  1  0  0  0  0
 24 25  1  0  0  0  0
M  END
> <VConfSearch Rank>
904

> <Conf_Id>
140

> <Delta U+W>
-1.702

> <U+W>
9.211

> <U>
11.181

> <W>
-1.969

> <W(PB)>
-4.093

> <W(SA)>
2.124

> <Valence>
16.954

> <Coulomb>
-8.661

> <VdW>
2.887

> <VdW6>
-12.561

> <VdW12>
15.448

> <Bond>
0.433

> <Angle>
5.120

> <Pdih>
11.401

> <Idih>
0.000

> <Tether>
0.000

$$$$
VeraChem MOL file


 25 25  0  0  0  0  0  0  0  0999 V2000     
   19.2811   17.8130   21.4678 C   0  0  0  0  0  0  0  0  0  0  0  0
   19.5131   17.7148   20.3986 H   0  0  0  0  0  0  0  0  0  0  0  0
   18.4811   17.0862   21.6651 H   0  0  0  0  0  0  0  0  0  0  0  0
   18.7069   19.2294   21.7293 C   0  0  0  0  0  0  0  0  0  0  0  0
   19.2600   19.9822   21.1564 H   0  0  0  0  0  0  0  0  0  0  0  0
   17.6949   19.2508   21.3021 H   0  0  0  0  0  0  0  0  0  0  0  0
   18.6093   19.6428   23.2206 C   0  0  0  0  0  0  0  0  0  0  0  0
   18.5358   18.7617   23.8710 H   0  0  0  0  0  0  0  0  0  0  0  0
   17.6584   20.1769   23.3536 H   0  0  0  0  0  0  0  0  0  0  0  0
   19.7355   20.5946   23.7072 C   0  0  0  0  0  0  0  0  0  0  0  0
   19.7569   21.4851   23.0656 H   0  0  0  0  0  0  0  0  0  0  0  0
   19.4530   20.9536   24.7060 H   0  0  0  0  0  0  0  0  0  0  0  0
   21.1615   19.9970   23.8081 C   0  0  0  0  0  0  0  0  0  0  0  0
   21.1308   19.0894   24.4255 H   0  0  0  0  0  0  0  0  0  0  0  0
   21.8163   19.6761   22.4395 C   0  0  0  0  0  0  0  0  0  0  0  0
   21.3505   20.2710   21.6473 H   0  0  0  0  0  0  0  0  0  0  0  0
   22.8642   20.0052   22.4535 H   0  0  0  0  0  0  0  0  0  0  0  0
   21.8200   18.1750   22.0495 C   0  0  0  0  0  0  0  0  0  0  0  0
   22.6208   17.6822   22.6177 H   0  0  0  0  0  0  0  0  0  0  0  0
   22.1042   18.0818   20.9926 H   0  0  0  0  0  0  0  0  0  0  0  0
   20.5139   17.3805   22.3005 C   0  0  0  0  0  0  0  0  0  0  0  0
   20.2685   17.3714   23.3686 H   0  0  0  0  0  0  0  0  0  0  0  0
   20.7199   16.3296   22.0556 H   0  0  0  0  0  0  0  0  0  0  0  0
   21.9740   20.9541   24.4758 O   0  0  0  0  0  0  0  0  0  0  0  0
   21.9824   21.7530   23.9095 H   0  0  0  0  0  0  0  0  0  0  0  0
  1  2  1  0  0  0  0
  1  3  1  0  0  0  0
  1  4  1  0  0  0  0
  4  5  1  0  0  0  0
  4  6  1  0  0  0  0
  4  7  1  0  0  0  0
  7  8  1  0  0  0  0
  7  9  1  0  0  0  0
  7 10  1  0  0  0  0
 10 11  1  0  0  0  0
 10 12  1  0  0  0  0
 10 13  1  0  0  0  0
 13 14  1  0  0  0  0
 13 15  1  0  0  0  0
 15 16  1  0  0  0  0
 15 17  1  0  0  0  0
 15 18  1  0  0  0  0
 18 19  1  0  0  0  0
 18 20  1  0  0  0  0
  1 21  1  0  0  0  0
 18 21  1  0  0  0  0
 21 22  1  0  0  0  0
 21 23  1  0  0  0  0
 13 24  1  0  0  0  0
 24 25  1  0  0  0  0
M  END
> <VConfSearch Rank>
905

> <Conf_Id>
68

> <Delta U+W>
-1.765

> <U+W>
9.148

> <U>
11.181

> <W>
-2.032

> <W(PB)>
-4.147

> <W(SA)>
2.114

> <Valence>
16.955

> <Coulomb>
-8.661

> <VdW>
2.887

> <VdW6>
-12.561

> <VdW12>
15.448

> <Bond>
0.433

> <Angle>
5.121

> <Pdih>
11.402

> <Idih>
0.000

> <Tether>
0.000

$$$$
VeraChem MOL file


 25 25  0  0  0  0  0  0  0  0999 V2000     
   19.4734   20.6503   21.7839 C   0  0  0  0  0  0  0  0  0  0  0  0
   19.0867   21.4776   21.1731 H   0  0  0  0  0  0  0  0  0  0  0  0
   19.2063   20.9235   22.8110 H   0  0  0  0  0  0  0  0  0  0  0  0
   21.0144   20.6066   21.6143 C   0  0  0  0  0  0  0  0  0  0  0  0
   21.3066   19.8923   20.8340 H   0  0  0  0  0  0  0  0  0  0  0  0
   21.3327   21.5880   21.2367 H   0  0  0  0  0  0  0  0  0  0  0  0
   21.8063   20.3470   22.9228 C   0  0  0  0  0  0  0  0  0  0  0  0
   21.5316   21.1031   23.6711 H   0  0  0  0  0  0  0  0  0  0  0  0
   22.8701   20.5181   22.7084 H   0  0  0  0  0  0  0  0  0  0  0  0
   21.6725   18.9334   23.5492 C   0  0  0  0  0  0  0  0  0  0  0  0
   21.9716   18.1655   22.8257 H   0  0  0  0  0  0  0  0  0  0  0  0
   22.4153   18.8739   24.3563 H   0  0  0  0  0  0  0  0  0  0  0  0
   20.2733   18.6223   24.1411 C   0  0  0  0  0  0  0  0  0  0  0  0
   19.7441   19.5651   24.3218 H   0  0  0  0  0  0  0  0  0  0  0  0
   19.3878   17.7029   23.2643 C   0  0  0  0  0  0  0  0  0  0  0  0
   19.7377   16.6686   23.3801 H   0  0  0  0  0  0  0  0  0  0  0  0
   18.3661   17.7211   23.6653 H   0  0  0  0  0  0  0  0  0  0  0  0
   19.3383   18.0071   21.7447 C   0  0  0  0  0  0  0  0  0  0  0  0
   18.7328   17.2208   21.2735 H   0  0  0  0  0  0  0  0  0  0  0  0
   20.3330   17.8945   21.2985 H   0  0  0  0  0  0  0  0  0  0  0  0
   18.7191   19.3691   21.3428 C   0  0  0  0  0  0  0  0  0  0  0  0
   17.6848   19.4204   21.7092 H   0  0  0  0  0  0  0  0  0  0  0  0
   18.6459   19.3849   20.2467 H   0  0  0  0  0  0  0  0  0  0  0  0
   20.4458   17.9781   25.3972 O   0  0  0  0  0  0  0  0  0  0  0  0
   20.9347   17.1487   25.2183 H   0  0  0  0  0  0  0  0  0  0  0  0
  1  2  1  0  0  0  0
  1  3  1  0  0  0  0
  1  4  1  0  0  0  0
  4  5  1  0  0  0  0
  4  6  1  0  0  0  0
  4  7  1  0  0  0  0
  7  8  1  0  0  0  0
  7  9  1  0  0  0  0
  7 10  1  0  0  0  0
 10 11  1  0  0  0  0
 10 12  1  0  0  0  0
 10 13  1  0  0  0  0
 13 14  1  0  0  0  0
 13 15  1  0  0  0  0
 15 16  1  0  0  0  0
 15 17  1  0  0  0  0
 15 18  1  0  0  0  0
 18 19  1  0  0  0  0
 18 20  1  0  0  0  0
  1 21  1  0  0  0  0
 18 21  1  0  0  0  0
 21 22  1  0  0  0  0
 21 23  1  0  0  0  0
 13 24  1  0  0  0  0
 24 25  1  0  0  0  0
M  END
> <VConfSearch Rank>
906

> <Conf_Id>
165

> <Delta U+W>
-1.999

> <U+W>
8.915

> <U>
10.935

> <W>
-2.020

> <W(PB)>
-4.135

> <W(SA)>
2.115

> <Valence>
16.757

> <Coulomb>
-8.731

> <VdW>
2.908

> <VdW6>
-12.597

> <VdW12>
15.506

> <Bond>
0.434

> <Angle>
5.069

> <Pdih>
11.254

> <Idih>
0.000

> <Tether>
0.000

$$$$
VeraChem MOL file


 25 25  0  0  0  0  0  0  0  0999 V2000     
   20.9558   20.3529   21.4076 C   0  0  0  0  0  0  0  0  0  0  0  0
   21.3119   21.0009   20.5950 H   0  0  0  0  0  0  0  0  0  0  0  0
   21.1188   20.9434   22.3162 H   0  0  0  0  0  0  0  0  0  0  0  0
   21.8533   19.0881   21.4059 C   0  0  0  0  0  0  0  0  0  0  0  0
   22.0089   18.7903   20.3599 H   0  0  0  0  0  0  0  0  0  0  0  0
   22.8477   19.3558   21.7881 H   0  0  0  0  0  0  0  0  0  0  0  0
   21.3291   17.8443   22.1666 C   0  0  0  0  0  0  0  0  0  0  0  0
   22.0355   17.0242   21.9793 H   0  0  0  0  0  0  0  0  0  0  0  0
   20.3847   17.5006   21.7293 H   0  0  0  0  0  0  0  0  0  0  0  0
   21.1920   17.9934   23.7038 C   0  0  0  0  0  0  0  0  0  0  0  0
   20.9190   17.0086   24.1065 H   0  0  0  0  0  0  0  0  0  0  0  0
   22.1769   18.2307   24.1261 H   0  0  0  0  0  0  0  0  0  0  0  0
   20.1665   19.0301   24.2248 C   0  0  0  0  0  0  0  0  0  0  0  0
   20.5929   20.0362   24.1371 H   0  0  0  0  0  0  0  0  0  0  0  0
   18.7942   19.0002   23.5037 C   0  0  0  0  0  0  0  0  0  0  0  0
   18.6217   18.0251   23.0330 H   0  0  0  0  0  0  0  0  0  0  0  0
   18.0031   19.0964   24.2596 H   0  0  0  0  0  0  0  0  0  0  0  0
   18.5797   20.1448   22.4776 C   0  0  0  0  0  0  0  0  0  0  0  0
   18.7264   21.1122   22.9773 H   0  0  0  0  0  0  0  0  0  0  0  0
   17.5242   20.1276   22.1738 H   0  0  0  0  0  0  0  0  0  0  0  0
   19.4421   20.0953   21.1888 C   0  0  0  0  0  0  0  0  0  0  0  0
   19.0663   20.8831   20.5216 H   0  0  0  0  0  0  0  0  0  0  0  0
   19.2752   19.1569   20.6446 H   0  0  0  0  0  0  0  0  0  0  0  0
   19.9566   18.7639   25.6070 O   0  0  0  0  0  0  0  0  0  0  0  0
   20.8311   18.8333   26.0439 H   0  0  0  0  0  0  0  0  0  0  0  0
  1  2  1  0  0  0  0
  1  3  1  0  0  0  0
  1  4  1  0  0  0  0
  4  5  1  0  0  0  0
  4  6  1  0  0  0  0
  4  7  1  0  0  0  0
  7  8  1  0  0  0  0
  7  9  1  0  0  0  0
  7 10  1  0  0  0  0
 10 11  1  0  0  0  0
 10 12  1  0  0  0  0
 10 13  1  0  0  0  0
 13 14  1  0  0  0  0
 13 15  1  0  0  0  0
 15 16  1  0  0  0  0
 15 17  1  0  0  0  0
 15 18  1  0  0  0  0
 18 19  1  0  0  0  0
 18 20  1  0  0  0  0
  1 21  1  0  0  0  0
 18 21  1  0  0  0  0
 21 22  1  0  0  0  0
 21 23  1  0  0  0  0
 13 24  1  0  0  0  0
 24 25  1  0  0  0  0
M  END
> <VConfSearch Rank>
907

> <Conf_Id>
133

> <Delta U+W>
-2.139

> <U+W>
8.774

> <U>
10.905

> <W>
-2.131

> <W(PB)>
-4.281

> <W(SA)>
2.150

> <Valence>
16.378

> <Coulomb>
-8.448

> <VdW>
2.976

> <VdW6>
-12.570

> <VdW12>
15.545

> <Bond>
0.439

> <Angle>
5.049

> <Pdih>
10.889

> <Idih>
0.000

> <Tether>
0.000

$$$$
VeraChem MOL file


 25 25  0  0  0  0  0  0  0  0999 V2000     
   21.1991   18.8744   24.2110 C   0  0  0  0  0  0  0  0  0  0  0  0
   21.6804   18.7045   25.1839 H   0  0  0  0  0  0  0  0  0  0  0  0
   21.9219   18.4934   23.4809 H   0  0  0  0  0  0  0  0  0  0  0  0
   20.9989   20.4022   24.0340 C   0  0  0  0  0  0  0  0  0  0  0  0
   19.9946   20.7091   24.3530 H   0  0  0  0  0  0  0  0  0  0  0  0
   21.6855   20.9076   24.7270 H   0  0  0  0  0  0  0  0  0  0  0  0
   21.3132   20.9403   22.6133 C   0  0  0  0  0  0  0  0  0  0  0  0
   22.3398   20.6629   22.3374 H   0  0  0  0  0  0  0  0  0  0  0  0
   21.3083   22.0377   22.6633 H   0  0  0  0  0  0  0  0  0  0  0  0
   20.3448   20.5153   21.4773 C   0  0  0  0  0  0  0  0  0  0  0  0
   19.3169   20.8113   21.7181 H   0  0  0  0  0  0  0  0  0  0  0  0
   20.6122   21.1071   20.5914 H   0  0  0  0  0  0  0  0  0  0  0  0
   20.4128   19.0127   21.1011 C   0  0  0  0  0  0  0  0  0  0  0  0
   21.3632   18.5990   21.4581 H   0  0  0  0  0  0  0  0  0  0  0  0
   19.2449   18.1566   21.6495 C   0  0  0  0  0  0  0  0  0  0  0  0
   18.3588   18.3475   21.0290 H   0  0  0  0  0  0  0  0  0  0  0  0
   19.4903   17.0961   21.5086 H   0  0  0  0  0  0  0  0  0  0  0  0
   18.8342   18.3834   23.1273 C   0  0  0  0  0  0  0  0  0  0  0  0
   17.9539   17.7558   23.3220 H   0  0  0  0  0  0  0  0  0  0  0  0
   18.4790   19.4101   23.2729 H   0  0  0  0  0  0  0  0  0  0  0  0
   19.9006   18.0264   24.1929 C   0  0  0  0  0  0  0  0  0  0  0  0
   20.1688   16.9655   24.0978 H   0  0  0  0  0  0  0  0  0  0  0  0
   19.4242   18.1239   25.1780 H   0  0  0  0  0  0  0  0  0  0  0  0
   20.3935   18.9007   19.6824 O   0  0  0  0  0  0  0  0  0  0  0  0
   20.4828   17.9474   19.4733 H   0  0  0  0  0  0  0  0  0  0  0  0
  1  2  1  0  0  0  0
  1  3  1  0  0  0  0
  1  4  1  0  0  0  0
  4  5  1  0  0  0  0
  4  6  1  0  0  0  0
  4  7  1  0  0  0  0
  7  8  1  0  0  0  0
  7  9  1  0  0  0  0
  7 10  1  0  0  0  0
 10 11  1  0  0  0  0
 10 12  1  0  0  0  0
 10 13  1  0  0  0  0
 13 14  1  0  0  0  0
 13 15  1  0  0  0  0
 15 16  1  0  0  0  0
 15 17  1  0  0  0  0
 15 18  1  0  0  0  0
 18 19  1  0  0  0  0
 18 20  1  0  0  0  0
  1 21  1  0  0  0  0
 18 21  1  0  0  0  0
 21 22  1  0  0  0  0
 21 23  1  0  0  0  0
 13 24  1  0  0  0  0
 24 25  1  0  0  0  0
M  END
> <VConfSearch Rank>
908

> <Conf_Id>
95

> <Delta U+W>
-2.190

> <U+W>
8.723

> <U>
10.905

> <W>
-2.182

> <W(PB)>
-4.296

> <W(SA)>
2.114

> <Valence>
16.377

> <Coulomb>
-8.448

> <VdW>
2.976

> <VdW6>
-12.570

> <VdW12>
15.546

> <Bond>
0.439

> <Angle>
5.049

> <Pdih>
10.889

> <Idih>
0.000

> <Tether>
0.000

$$$$
VeraChem MOL file


 25 25  0  0  0  0  0  0  0  0999 V2000     
   18.6937   19.6796   23.3806 C   0  0  0  0  0  0  0  0  0  0  0  0
   17.7583   19.9129   23.9075 H   0  0  0  0  0  0  0  0  0  0  0  0
   18.4807   19.9668   22.3460 H   0  0  0  0  0  0  0  0  0  0  0  0
   18.9115   18.1425   23.4988 C   0  0  0  0  0  0  0  0  0  0  0  0
   18.5345   17.8327   24.4831 H   0  0  0  0  0  0  0  0  0  0  0  0
   18.2690   17.6342   22.7671 H   0  0  0  0  0  0  0  0  0  0  0  0
   20.3581   17.5955   23.3777 C   0  0  0  0  0  0  0  0  0  0  0  0
   20.3272   16.5209   23.6041 H   0  0  0  0  0  0  0  0  0  0  0  0
   20.9698   18.0095   24.1854 H   0  0  0  0  0  0  0  0  0  0  0  0
   21.0729   17.7545   22.0028 C   0  0  0  0  0  0  0  0  0  0  0  0
   22.1572   17.6744   22.1553 H   0  0  0  0  0  0  0  0  0  0  0  0
   20.7937   16.8851   21.3933 H   0  0  0  0  0  0  0  0  0  0  0  0
   20.7720   19.0208   21.1616 C   0  0  0  0  0  0  0  0  0  0  0  0
   19.6928   19.0594   20.9809 H   0  0  0  0  0  0  0  0  0  0  0  0
   21.2513   20.3826   21.7416 C   0  0  0  0  0  0  0  0  0  0  0  0
   22.2955   20.5315   21.4353 H   0  0  0  0  0  0  0  0  0  0  0  0
   20.6834   21.1843   21.2526 H   0  0  0  0  0  0  0  0  0  0  0  0
   21.1984   20.5929   23.2791 C   0  0  0  0  0  0  0  0  0  0  0  0
   21.6727   21.5592   23.4982 H   0  0  0  0  0  0  0  0  0  0  0  0
   21.8583   19.8680   23.7661 H   0  0  0  0  0  0  0  0  0  0  0  0
   19.7964   20.6074   23.9555 C   0  0  0  0  0  0  0  0  0  0  0  0
   19.4132   21.6353   23.8954 H   0  0  0  0  0  0  0  0  0  0  0  0
   19.9174   20.4030   25.0279 H   0  0  0  0  0  0  0  0  0  0  0  0
   21.4057   18.8526   19.8988 O   0  0  0  0  0  0  0  0  0  0  0  0
   21.0495   18.0262   19.5113 H   0  0  0  0  0  0  0  0  0  0  0  0
  1  2  1  0  0  0  0
  1  3  1  0  0  0  0
  1  4  1  0  0  0  0
  4  5  1  0  0  0  0
  4  6  1  0  0  0  0
  4  7  1  0  0  0  0
  7  8  1  0  0  0  0
  7  9  1  0  0  0  0
  7 10  1  0  0  0  0
 10 11  1  0  0  0  0
 10 12  1  0  0  0  0
 10 13  1  0  0  0  0
 13 14  1  0  0  0  0
 13 15  1  0  0  0  0
 15 16  1  0  0  0  0
 15 17  1  0  0  0  0
 15 18  1  0  0  0  0
 18 19  1  0  0  0  0
 18 20  1  0  0  0  0
  1 21  1  0  0  0  0
 18 21  1  0  0  0  0
 21 22  1  0  0  0  0
 21 23  1  0  0  0  0
 13 24  1  0  0  0  0
 24 25  1  0  0  0  0
M  END
> <VConfSearch Rank>
909

> <Conf_Id>
161

> <Delta U+W>
2.120

> <U+W>
13.033

> <U>
15.076

> <W>
-2.043

> <W(PB)>
-4.186

> <W(SA)>
2.143

> <Valence>
18.884

> <Coulomb>
-8.074

> <VdW>
4.266

> <VdW6>
-13.486

> <VdW12>
17.752

> <Bond>
0.713

> <Angle>
8.955

> <Pdih>
9.215

> <Idih>
0.000

> <Tether>
0.000

$$$$
VeraChem MOL file


 25 25  0  0  0  0  0  0  0  0999 V2000     
   22.2519   18.8847   22.3969 C   0  0  0  0  0  0  0  0  0  0  0  0
   23.3495   18.9146   22.4329 H   0  0  0  0  0  0  0  0  0  0  0  0
   22.0179   18.2131   21.5612 H   0  0  0  0  0  0  0  0  0  0  0  0
   21.7444   20.3145   22.0841 C   0  0  0  0  0  0  0  0  0  0  0  0
   21.6376   20.9012   23.0064 H   0  0  0  0  0  0  0  0  0  0  0  0
   22.5371   20.8154   21.5116 H   0  0  0  0  0  0  0  0  0  0  0  0
   20.4539   20.3841   21.2209 C   0  0  0  0  0  0  0  0  0  0  0  0
   20.4450   19.5951   20.4569 H   0  0  0  0  0  0  0  0  0  0  0  0
   20.4971   21.3289   20.6617 H   0  0  0  0  0  0  0  0  0  0  0  0
   19.1236   20.3948   22.0176 C   0  0  0  0  0  0  0  0  0  0  0  0
   19.2607   20.9326   22.9636 H   0  0  0  0  0  0  0  0  0  0  0  0
   18.4010   20.9976   21.4518 H   0  0  0  0  0  0  0  0  0  0  0  0
   18.4564   19.0164   22.2552 C   0  0  0  0  0  0  0  0  0  0  0  0
   18.0738   18.6557   21.2896 H   0  0  0  0  0  0  0  0  0  0  0  0
   19.3600   17.9059   22.8392 C   0  0  0  0  0  0  0  0  0  0  0  0
   18.7185   17.0766   23.1662 H   0  0  0  0  0  0  0  0  0  0  0  0
   19.9665   17.4797   22.0328 H   0  0  0  0  0  0  0  0  0  0  0  0
   20.2526   18.3477   24.0297 C   0  0  0  0  0  0  0  0  0  0  0  0
   20.0368   17.7020   24.8919 H   0  0  0  0  0  0  0  0  0  0  0  0
   19.9964   19.3593   24.3645 H   0  0  0  0  0  0  0  0  0  0  0  0
   21.7709   18.2742   23.7399 C   0  0  0  0  0  0  0  0  0  0  0  0
   22.0851   17.2219   23.7691 H   0  0  0  0  0  0  0  0  0  0  0  0
   22.3028   18.7676   24.5648 H   0  0  0  0  0  0  0  0  0  0  0  0
   17.3605   19.2065   23.1392 O   0  0  0  0  0  0  0  0  0  0  0  0
   17.7529   19.3899   24.0168 H   0  0  0  0  0  0  0  0  0  0  0  0
  1  2  1  0  0  0  0
  1  3  1  0  0  0  0
  1  4  1  0  0  0  0
  4  5  1  0  0  0  0
  4  6  1  0  0  0  0
  4  7  1  0  0  0  0
  7  8  1  0  0  0  0
  7  9  1  0  0  0  0
  7 10  1  0  0  0  0
 10 11  1  0  0  0  0
 10 12  1  0  0  0  0
 10 13  1  0  0  0  0
 13 14  1  0  0  0  0
 13 15  1  0  0  0  0
 15 16  1  0  0  0  0
 15 17  1  0  0  0  0
 15 18  1  0  0  0  0
 18 19  1  0  0  0  0
 18 20  1  0  0  0  0
  1 21  1  0  0  0  0
 18 21  1  0  0  0  0
 21 22  1  0  0  0  0
 21 23  1  0  0  0  0
 13 24  1  0  0  0  0
 24 25  1  0  0  0  0
M  END
> <VConfSearch Rank>
910

> <Conf_Id>
164

> <Delta U+W>
0.008

> <U+W>
10.922

> <U>
12.433

> <W>
-1.511

> <W(PB)>
-3.669

> <W(SA)>
2.157

> <Valence>
19.007

> <Coulomb>
-9.373

> <VdW>
2.799

> <VdW6>
-12.597

> <VdW12>
15.396

> <Bond>
0.425

> <Angle>
4.784

> <Pdih>
13.799

> <Idih>
0.000

> <Tether>
0.000

$$$$
VeraChem MOL file


 25 25  0  0  0  0  0  0  0  0999 V2000     
   21.4450   17.8261   22.3134 C   0  0  0  0  0  0  0  0  0  0  0  0
   22.0911   18.7048   22.4200 H   0  0  0  0  0  0  0  0  0  0  0  0
   22.1375   16.9960   22.1186 H   0  0  0  0  0  0  0  0  0  0  0  0
   20.5378   17.9703   21.0660 C   0  0  0  0  0  0  0  0  0  0  0  0
   21.1949   18.0649   20.1907 H   0  0  0  0  0  0  0  0  0  0  0  0
   19.9762   17.0383   20.9161 H   0  0  0  0  0  0  0  0  0  0  0  0
   19.5477   19.1629   21.0461 C   0  0  0  0  0  0  0  0  0  0  0  0
   18.6346   18.9144   21.5988 H   0  0  0  0  0  0  0  0  0  0  0  0
   19.2140   19.2894   20.0071 H   0  0  0  0  0  0  0  0  0  0  0  0
   20.1297   20.5156   21.5364 C   0  0  0  0  0  0  0  0  0  0  0  0
   21.2197   20.5400   21.4178 H   0  0  0  0  0  0  0  0  0  0  0  0
   19.7473   21.2972   20.8662 H   0  0  0  0  0  0  0  0  0  0  0  0
   19.7233   20.9163   22.9767 C   0  0  0  0  0  0  0  0  0  0  0  0
   18.6272   20.8722   23.0482 H   0  0  0  0  0  0  0  0  0  0  0  0
   20.3166   20.0637   24.1263 C   0  0  0  0  0  0  0  0  0  0  0  0
   21.4128   20.0733   24.0930 H   0  0  0  0  0  0  0  0  0  0  0  0
   20.0505   20.5643   25.0670 H   0  0  0  0  0  0  0  0  0  0  0  0
   19.7760   18.6112   24.2082 C   0  0  0  0  0  0  0  0  0  0  0  0
   18.7889   18.5414   23.7372 H   0  0  0  0  0  0  0  0  0  0  0  0
   19.5935   18.3722   25.2649 H   0  0  0  0  0  0  0  0  0  0  0  0
   20.7243   17.5196   23.6499 C   0  0  0  0  0  0  0  0  0  0  0  0
   20.1666   16.5782   23.5538 H   0  0  0  0  0  0  0  0  0  0  0  0
   21.4991   17.3297   24.4053 H   0  0  0  0  0  0  0  0  0  0  0  0
   20.1339   22.2612   23.1817 O   0  0  0  0  0  0  0  0  0  0  0  0
   21.1106   22.2655   23.1118 H   0  0  0  0  0  0  0  0  0  0  0  0
  1  2  1  0  0  0  0
  1  3  1  0  0  0  0
  1  4  1  0  0  0  0
  4  5  1  0  0  0  0
  4  6  1  0  0  0  0
  4  7  1  0  0  0  0
  7  8  1  0  0  0  0
  7  9  1  0  0  0  0
  7 10  1  0  0  0  0
 10 11  1  0  0  0  0
 10 12  1  0  0  0  0
 10 13  1  0  0  0  0
 13 14  1  0  0  0  0
 13 15  1  0  0  0  0
 15 16  1  0  0  0  0
 15 17  1  0  0  0  0
 15 18  1  0  0  0  0
 18 19  1  0  0  0  0
 18 20  1  0  0  0  0
  1 21  1  0  0  0  0
 18 21  1  0  0  0  0
 21 22  1  0  0  0  0
 21 23  1  0  0  0  0
 13 24  1  0  0  0  0
 24 25  1  0  0  0  0
M  END
> <VConfSearch Rank>
911

> <Conf_Id>
15

> <Delta U+W>
-1.271

> <U+W>
9.643

> <U>
11.413

> <W>
-1.770

> <W(PB)>
-3.908

> <W(SA)>
2.138

> <Valence>
17.496

> <Coulomb>
-8.736

> <VdW>
2.653

> <VdW6>
-12.485

> <VdW12>
15.138

> <Bond>
0.414

> <Angle>
5.295

> <Pdih>
11.787

> <Idih>
0.000

> <Tether>
0.000

$$$$
VeraChem MOL file


 25 25  0  0  0  0  0  0  0  0999 V2000     
   21.8824   18.1387   22.9883 C   0  0  0  0  0  0  0  0  0  0  0  0
   22.8675   17.6926   23.1821 H   0  0  0  0  0  0  0  0  0  0  0  0
   21.3140   17.3508   22.4782 H   0  0  0  0  0  0  0  0  0  0  0  0
   21.2520   18.4618   24.3685 C   0  0  0  0  0  0  0  0  0  0  0  0
   21.0499   17.5117   24.8817 H   0  0  0  0  0  0  0  0  0  0  0  0
   21.9965   18.9821   24.9862 H   0  0  0  0  0  0  0  0  0  0  0  0
   19.9546   19.3056   24.3587 C   0  0  0  0  0  0  0  0  0  0  0  0
   20.2052   20.3619   24.2064 H   0  0  0  0  0  0  0  0  0  0  0  0
   19.5135   19.2642   25.3640 H   0  0  0  0  0  0  0  0  0  0  0  0
   18.8961   18.8291   23.3301 C   0  0  0  0  0  0  0  0  0  0  0  0
   19.1843   17.8685   22.8889 H   0  0  0  0  0  0  0  0  0  0  0  0
   17.9599   18.6240   23.8655 H   0  0  0  0  0  0  0  0  0  0  0  0
   18.5804   19.8518   22.2145 C   0  0  0  0  0  0  0  0  0  0  0  0
   17.9764   20.6547   22.6610 H   0  0  0  0  0  0  0  0  0  0  0  0
   19.7964   20.5246   21.5266 C   0  0  0  0  0  0  0  0  0  0  0  0
   19.4088   21.0792   20.6615 H   0  0  0  0  0  0  0  0  0  0  0  0
   20.2170   21.2977   22.1807 H   0  0  0  0  0  0  0  0  0  0  0  0
   20.9289   19.5881   21.0273 C   0  0  0  0  0  0  0  0  0  0  0  0
   21.3755   20.0728   20.1482 H   0  0  0  0  0  0  0  0  0  0  0  0
   20.5237   18.6374   20.6575 H   0  0  0  0  0  0  0  0  0  0  0  0
   22.0829   19.3459   22.0390 C   0  0  0  0  0  0  0  0  0  0  0  0
   22.3099   20.2571   22.6086 H   0  0  0  0  0  0  0  0  0  0  0  0
   22.9861   19.1402   21.4481 H   0  0  0  0  0  0  0  0  0  0  0  0
   17.8051   19.1977   21.2197 O   0  0  0  0  0  0  0  0  0  0  0  0
   18.4080   18.5604   20.7866 H   0  0  0  0  0  0  0  0  0  0  0  0
  1  2  1  0  0  0  0
  1  3  1  0  0  0  0
  1  4  1  0  0  0  0
  4  5  1  0  0  0  0
  4  6  1  0  0  0  0
  4  7  1  0  0  0  0
  7  8  1  0  0  0  0
  7  9  1  0  0  0  0
  7 10  1  0  0  0  0
 10 11  1  0  0  0  0
 10 12  1  0  0  0  0
 10 13  1  0  0  0  0
 13 14  1  0  0  0  0
 13 15  1  0  0  0  0
 15 16  1  0  0  0  0
 15 17  1  0  0  0  0
 15 18  1  0  0  0  0
 18 19  1  0  0  0  0
 18 20  1  0  0  0  0
  1 21  1  0  0  0  0
 18 21  1  0  0  0  0
 21 22  1  0  0  0  0
 21 23  1  0  0  0  0
 13 24  1  0  0  0  0
 24 25  1  0  0  0  0
M  END
> <VConfSearch Rank>
912

> <Conf_Id>
115

> <Delta U+W>
0.038

> <U+W>
10.952

> <U>
12.526

> <W>
-1.575

> <W(PB)>
-3.698

> <W(SA)>
2.123

> <Valence>
19.016

> <Coulomb>
-9.226

> <VdW>
2.737

> <VdW6>
-12.612

> <VdW12>
15.349

> <Bond>
0.421

> <Angle>
4.883

> <Pdih>
13.711

> <Idih>
0.000

> <Tether>
0.000

$$$$
VeraChem MOL file


 25 25  0  0  0  0  0  0  0  0999 V2000     
   18.8302   19.3463   21.1362 C   0  0  0  0  0  0  0  0  0  0  0  0
   17.8313   19.1463   20.7248 H   0  0  0  0  0  0  0  0  0  0  0  0
   19.2856   20.0813   20.4588 H   0  0  0  0  0  0  0  0  0  0  0  0
   19.6220   18.0187   21.0891 C   0  0  0  0  0  0  0  0  0  0  0  0
   19.0990   17.2469   21.6699 H   0  0  0  0  0  0  0  0  0  0  0  0
   19.6083   17.6651   20.0490 H   0  0  0  0  0  0  0  0  0  0  0  0
   21.0981   18.1173   21.5389 C   0  0  0  0  0  0  0  0  0  0  0  0
   21.5587   19.0301   21.1382 H   0  0  0  0  0  0  0  0  0  0  0  0
   21.6412   17.2862   21.0683 H   0  0  0  0  0  0  0  0  0  0  0  0
   21.3076   18.0017   23.0728 C   0  0  0  0  0  0  0  0  0  0  0  0
   20.4030   17.6328   23.5721 H   0  0  0  0  0  0  0  0  0  0  0  0
   22.0702   17.2294   23.2416 H   0  0  0  0  0  0  0  0  0  0  0  0
   21.7921   19.3028   23.7512 C   0  0  0  0  0  0  0  0  0  0  0  0
   22.4755   19.8272   23.0680 H   0  0  0  0  0  0  0  0  0  0  0  0
   20.6628   20.2696   24.1713 C   0  0  0  0  0  0  0  0  0  0  0  0
   20.0048   19.7816   24.9024 H   0  0  0  0  0  0  0  0  0  0  0  0
   21.1275   21.1107   24.7023 H   0  0  0  0  0  0  0  0  0  0  0  0
   19.8250   20.8570   23.0095 C   0  0  0  0  0  0  0  0  0  0  0  0
   20.4761   21.1311   22.1686 H   0  0  0  0  0  0  0  0  0  0  0  0
   19.3939   21.8036   23.3636 H   0  0  0  0  0  0  0  0  0  0  0  0
   18.6495   19.9576   22.5456 C   0  0  0  0  0  0  0  0  0  0  0  0
   17.7480   20.5850   22.5159 H   0  0  0  0  0  0  0  0  0  0  0  0
   18.4310   19.1706   23.2795 H   0  0  0  0  0  0  0  0  0  0  0  0
   22.5082   18.9457   24.9274 O   0  0  0  0  0  0  0  0  0  0  0  0
   22.8524   19.7781   25.3132 H   0  0  0  0  0  0  0  0  0  0  0  0
  1  2  1  0  0  0  0
  1  3  1  0  0  0  0
  1  4  1  0  0  0  0
  4  5  1  0  0  0  0
  4  6  1  0  0  0  0
  4  7  1  0  0  0  0
  7  8  1  0  0  0  0
  7  9  1  0  0  0  0
  7 10  1  0  0  0  0
 10 11  1  0  0  0  0
 10 12  1  0  0  0  0
 10 13  1  0  0  0  0
 13 14  1  0  0  0  0
 13 15  1  0  0  0  0
 15 16  1  0  0  0  0
 15 17  1  0  0  0  0
 15 18  1  0  0  0  0
 18 19  1  0  0  0  0
 18 20  1  0  0  0  0
  1 21  1  0  0  0  0
 18 21  1  0  0  0  0
 21 22  1  0  0  0  0
 21 23  1  0  0  0  0
 13 24  1  0  0  0  0
 24 25  1  0  0  0  0
M  END
> <VConfSearch Rank>
913

> <Conf_Id>
30

> <Delta U+W>
0.000

> <U+W>
10.913

> <U>
13.140

> <W>
-2.227

> <W(PB)>
-4.367

> <W(SA)>
2.140

> <Valence>
19.155

> <Coulomb>
-8.157

> <VdW>
2.142

> <VdW6>
-11.576

> <VdW12>
13.718

> <Bond>
0.294

> <Angle>
3.547

> <Pdih>
15.314

> <Idih>
0.000

> <Tether>
0.000

$$$$
VeraChem MOL file


 25 25  0  0  0  0  0  0  0  0999 V2000     
   20.8846   21.3011   22.6866 C   0  0  0  0  0  0  0  0  0  0  0  0
   21.3836   21.9507   21.9546 H   0  0  0  0  0  0  0  0  0  0  0  0
   20.7596   21.9136   23.5900 H   0  0  0  0  0  0  0  0  0  0  0  0
   21.8327   20.1246   23.0260 C   0  0  0  0  0  0  0  0  0  0  0  0
   22.8433   20.5332   23.1625 H   0  0  0  0  0  0  0  0  0  0  0  0
   21.5678   19.7088   24.0050 H   0  0  0  0  0  0  0  0  0  0  0  0
   21.8894   19.0153   21.9452 C   0  0  0  0  0  0  0  0  0  0  0  0
   22.9347   18.8749   21.6383 H   0  0  0  0  0  0  0  0  0  0  0  0
   21.3696   19.3284   21.0323 H   0  0  0  0  0  0  0  0  0  0  0  0
   21.3389   17.6453   22.4160 C   0  0  0  0  0  0  0  0  0  0  0  0
   21.2458   16.9896   21.5402 H   0  0  0  0  0  0  0  0  0  0  0  0
   22.0881   17.1750   23.0662 H   0  0  0  0  0  0  0  0  0  0  0  0
   19.9929   17.6581   23.1830 C   0  0  0  0  0  0  0  0  0  0  0  0
   20.1490   18.0917   24.1798 H   0  0  0  0  0  0  0  0  0  0  0  0
   18.8449   18.4262   22.4835 C   0  0  0  0  0  0  0  0  0  0  0  0
   18.9530   18.3636   21.3931 H   0  0  0  0  0  0  0  0  0  0  0  0
   17.9017   17.9120   22.7114 H   0  0  0  0  0  0  0  0  0  0  0  0
   18.6707   19.9025   22.9395 C   0  0  0  0  0  0  0  0  0  0  0  0
   18.8640   20.0121   24.0151 H   0  0  0  0  0  0  0  0  0  0  0  0
   17.6093   20.1539   22.8072 H   0  0  0  0  0  0  0  0  0  0  0  0
   19.4828   20.9410   22.1265 C   0  0  0  0  0  0  0  0  0  0  0  0
   18.9023   21.8732   22.0951 H   0  0  0  0  0  0  0  0  0  0  0  0
   19.5557   20.6227   21.0788 H   0  0  0  0  0  0  0  0  0  0  0  0
   19.5913   16.3033   23.3490 O   0  0  0  0  0  0  0  0  0  0  0  0
   18.7829   16.3144   23.9029 H   0  0  0  0  0  0  0  0  0  0  0  0
  1  2  1  0  0  0  0
  1  3  1  0  0  0  0
  1  4  1  0  0  0  0
  4  5  1  0  0  0  0
  4  6  1  0  0  0  0
  4  7  1  0  0  0  0
  7  8  1  0  0  0  0
  7  9  1  0  0  0  0
  7 10  1  0  0  0  0
 10 11  1  0  0  0  0
 10 12  1  0  0  0  0
 10 13  1  0  0  0  0
 13 14  1  0  0  0  0
 13 15  1  0  0  0  0
 15 16  1  0  0  0  0
 15 17  1  0  0  0  0
 15 18  1  0  0  0  0
 18 19  1  0  0  0  0
 18 20  1  0  0  0  0
  1 21  1  0  0  0  0
 18 21  1  0  0  0  0
 21 22  1  0  0  0  0
 21 23  1  0  0  0  0
 13 24  1  0  0  0  0
 24 25  1  0  0  0  0
M  END
> <VConfSearch Rank>
914

> <Conf_Id>
162

> <Delta U+W>
0.219

> <U+W>
11.132

> <U>
13.296

> <W>
-2.164

> <W(PB)>
-4.311

> <W(SA)>
2.148

> <Valence>
18.607

> <Coulomb>
-8.339

> <VdW>
3.028

> <VdW6>
-12.271

> <VdW12>
15.299

> <Bond>
0.423

> <Angle>
4.488

> <Pdih>
13.696

> <Idih>
0.000

> <Tether>
0.000

$$$$
VeraChem MOL file


 25 25  0  0  0  0  0  0  0  0999 V2000     
   20.7546   17.7810   21.3524 C   0  0  0  0  0  0  0  0  0  0  0  0
   20.0486   17.1479   21.9046 H   0  0  0  0  0  0  0  0  0  0  0  0
   21.0848   17.1609   20.5078 H   0  0  0  0  0  0  0  0  0  0  0  0
   20.0187   19.0175   20.7787 C   0  0  0  0  0  0  0  0  0  0  0  0
   20.7304   19.8199   20.5425 H   0  0  0  0  0  0  0  0  0  0  0  0
   19.5918   18.7142   19.8128 H   0  0  0  0  0  0  0  0  0  0  0  0
   18.8417   19.5478   21.6442 C   0  0  0  0  0  0  0  0  0  0  0  0
   18.2920   18.7219   22.1153 H   0  0  0  0  0  0  0  0  0  0  0  0
   18.1265   20.0162   20.9541 H   0  0  0  0  0  0  0  0  0  0  0  0
   19.2243   20.6247   22.6925 C   0  0  0  0  0  0  0  0  0  0  0  0
   20.0389   21.2499   22.3067 H   0  0  0  0  0  0  0  0  0  0  0  0
   18.3708   21.3070   22.7991 H   0  0  0  0  0  0  0  0  0  0  0  0
   19.5589   20.1113   24.1158 C   0  0  0  0  0  0  0  0  0  0  0  0
   18.6237   19.7607   24.5756 H   0  0  0  0  0  0  0  0  0  0  0  0
   20.5778   18.9502   24.2033 C   0  0  0  0  0  0  0  0  0  0  0  0
   20.8813   18.8297   25.2513 H   0  0  0  0  0  0  0  0  0  0  0  0
   20.0695   18.0118   23.9572 H   0  0  0  0  0  0  0  0  0  0  0  0
   21.8498   19.1349   23.3341 C   0  0  0  0  0  0  0  0  0  0  0  0
   22.7330   19.0828   23.9851 H   0  0  0  0  0  0  0  0  0  0  0  0
   21.8835   20.1404   22.8983 H   0  0  0  0  0  0  0  0  0  0  0  0
   22.0106   18.0793   22.2136 C   0  0  0  0  0  0  0  0  0  0  0  0
   22.3475   17.1359   22.6643 H   0  0  0  0  0  0  0  0  0  0  0  0
   22.8260   18.4021   21.5521 H   0  0  0  0  0  0  0  0  0  0  0  0
   20.0590   21.2106   24.8679 O   0  0  0  0  0  0  0  0  0  0  0  0
   20.2673   20.8689   25.7617 H   0  0  0  0  0  0  0  0  0  0  0  0
  1  2  1  0  0  0  0
  1  3  1  0  0  0  0
  1  4  1  0  0  0  0
  4  5  1  0  0  0  0
  4  6  1  0  0  0  0
  4  7  1  0  0  0  0
  7  8  1  0  0  0  0
  7  9  1  0  0  0  0
  7 10  1  0  0  0  0
 10 11  1  0  0  0  0
 10 12  1  0  0  0  0
 10 13  1  0  0  0  0
 13 14  1  0  0  0  0
 13 15  1  0  0  0  0
 15 16  1  0  0  0  0
 15 17  1  0  0  0  0
 15 18  1  0  0  0  0
 18 19  1  0  0  0  0
 18 20  1  0  0  0  0
  1 21  1  0  0  0  0
 18 21  1  0  0  0  0
 21 22  1  0  0  0  0
 21 23  1  0  0  0  0
 13 24  1  0  0  0  0
 24 25  1  0  0  0  0
M  END
> <VConfSearch Rank>
915

> <Conf_Id>
155

> <Delta U+W>
0.339

> <U+W>
11.252

> <U>
13.420

> <W>
-2.167

> <W(PB)>
-4.325

> <W(SA)>
2.157

> <Valence>
18.609

> <Coulomb>
-8.052

> <VdW>
2.863

> <VdW6>
-12.524

> <VdW12>
15.387

> <Bond>
0.430

> <Angle>
4.724

> <Pdih>
13.455

> <Idih>
0.000

> <Tether>
0.000

$$$$
VeraChem MOL file


 25 25  0  0  0  0  0  0  0  0999 V2000     
   19.3909   19.4795   24.4183 C   0  0  0  0  0  0  0  0  0  0  0  0
   20.0477   19.5248   25.2975 H   0  0  0  0  0  0  0  0  0  0  0  0
   18.3723   19.6136   24.8073 H   0  0  0  0  0  0  0  0  0  0  0  0
   19.6852   20.6928   23.4975 C   0  0  0  0  0  0  0  0  0  0  0  0
   18.9544   20.7140   22.6828 H   0  0  0  0  0  0  0  0  0  0  0  0
   19.4604   21.6044   24.0678 H   0  0  0  0  0  0  0  0  0  0  0  0
   21.1331   20.8439   22.9463 C   0  0  0  0  0  0  0  0  0  0  0  0
   21.7168   21.3894   23.7002 H   0  0  0  0  0  0  0  0  0  0  0  0
   21.1115   21.4964   22.0629 H   0  0  0  0  0  0  0  0  0  0  0  0
   21.9261   19.5528   22.6055 C   0  0  0  0  0  0  0  0  0  0  0  0
   22.9562   19.8525   22.3724 H   0  0  0  0  0  0  0  0  0  0  0  0
   22.0414   18.9521   23.5119 H   0  0  0  0  0  0  0  0  0  0  0  0
   21.4108   18.6676   21.4328 C   0  0  0  0  0  0  0  0  0  0  0  0
   21.7910   17.6481   21.5906 H   0  0  0  0  0  0  0  0  0  0  0  0
   19.8789   18.5763   21.2189 C   0  0  0  0  0  0  0  0  0  0  0  0
   19.4891   19.5741   20.9974 H   0  0  0  0  0  0  0  0  0  0  0  0
   19.7085   18.0193   20.2881 H   0  0  0  0  0  0  0  0  0  0  0  0
   19.0288   17.8819   22.3250 C   0  0  0  0  0  0  0  0  0  0  0  0
   19.0296   16.8042   22.1121 H   0  0  0  0  0  0  0  0  0  0  0  0
   17.9827   18.2000   22.2208 H   0  0  0  0  0  0  0  0  0  0  0  0
   19.4689   18.0515   23.8029 C   0  0  0  0  0  0  0  0  0  0  0  0
   20.4677   17.6241   23.9360 H   0  0  0  0  0  0  0  0  0  0  0  0
   18.8290   17.4017   24.4154 H   0  0  0  0  0  0  0  0  0  0  0  0
   21.9677   19.1758   20.2255 O   0  0  0  0  0  0  0  0  0  0  0  0
   22.9399   19.1842   20.3438 H   0  0  0  0  0  0  0  0  0  0  0  0
  1  2  1  0  0  0  0
  1  3  1  0  0  0  0
  1  4  1  0  0  0  0
  4  5  1  0  0  0  0
  4  6  1  0  0  0  0
  4  7  1  0  0  0  0
  7  8  1  0  0  0  0
  7  9  1  0  0  0  0
  7 10  1  0  0  0  0
 10 11  1  0  0  0  0
 10 12  1  0  0  0  0
 10 13  1  0  0  0  0
 13 14  1  0  0  0  0
 13 15  1  0  0  0  0
 15 16  1  0  0  0  0
 15 17  1  0  0  0  0
 15 18  1  0  0  0  0
 18 19  1  0  0  0  0
 18 20  1  0  0  0  0
  1 21  1  0  0  0  0
 18 21  1  0  0  0  0
 21 22  1  0  0  0  0
 21 23  1  0  0  0  0
 13 24  1  0  0  0  0
 24 25  1  0  0  0  0
M  END
> <VConfSearch Rank>
916

> <Conf_Id>
146

> <Delta U+W>
2.553

> <U+W>
13.466

> <U>
15.643

> <W>
-2.176

> <W(PB)>
-4.307

> <W(SA)>
2.131

> <Valence>
18.916

> <Coulomb>
-7.506

> <VdW>
4.232

> <VdW6>
-13.632

> <VdW12>
17.864

> <Bond>
0.735

> <Angle>
9.140

> <Pdih>
9.042

> <Idih>
0.000

> <Tether>
0.000

$$$$
VeraChem MOL file


 25 25  0  0  0  0  0  0  0  0999 V2000     
   19.7560   19.7720   20.7363 C   0  0  0  0  0  0  0  0  0  0  0  0
   20.2626   19.3787   19.8446 H   0  0  0  0  0  0  0  0  0  0  0  0
   18.9677   20.4380   20.3595 H   0  0  0  0  0  0  0  0  0  0  0  0
   20.7489   20.6429   21.5461 C   0  0  0  0  0  0  0  0  0  0  0  0
   21.0626   21.4702   20.8951 H   0  0  0  0  0  0  0  0  0  0  0  0
   20.2344   21.1301   22.3822 H   0  0  0  0  0  0  0  0  0  0  0  0
   22.0349   19.9327   22.0384 C   0  0  0  0  0  0  0  0  0  0  0  0
   22.6839   20.6974   22.4867 H   0  0  0  0  0  0  0  0  0  0  0  0
   22.5881   19.5424   21.1735 H   0  0  0  0  0  0  0  0  0  0  0  0
   21.8559   18.7946   23.0769 C   0  0  0  0  0  0  0  0  0  0  0  0
   21.5844   17.8607   22.5747 H   0  0  0  0  0  0  0  0  0  0  0  0
   22.8451   18.5950   23.5106 H   0  0  0  0  0  0  0  0  0  0  0  0
   20.8538   19.0985   24.2204 C   0  0  0  0  0  0  0  0  0  0  0  0
   20.7082   20.1839   24.3037 H   0  0  0  0  0  0  0  0  0  0  0  0
   19.4765   18.4071   24.0565 C   0  0  0  0  0  0  0  0  0  0  0  0
   19.6275   17.3257   23.9403 H   0  0  0  0  0  0  0  0  0  0  0  0
   18.9218   18.5297   24.9960 H   0  0  0  0  0  0  0  0  0  0  0  0
   18.5637   18.9235   22.9112 C   0  0  0  0  0  0  0  0  0  0  0  0
   18.3641   19.9967   23.0256 H   0  0  0  0  0  0  0  0  0  0  0  0
   17.5871   18.4359   23.0352 H   0  0  0  0  0  0  0  0  0  0  0  0
   19.0673   18.5991   21.4809 C   0  0  0  0  0  0  0  0  0  0  0  0
   18.2025   18.2962   20.8748 H   0  0  0  0  0  0  0  0  0  0  0  0
   19.7149   17.7152   21.4921 H   0  0  0  0  0  0  0  0  0  0  0  0
   21.4194   18.6310   25.4397 O   0  0  0  0  0  0  0  0  0  0  0  0
   20.7996   18.8845   26.1551 H   0  0  0  0  0  0  0  0  0  0  0  0
  1  2  1  0  0  0  0
  1  3  1  0  0  0  0
  1  4  1  0  0  0  0
  4  5  1  0  0  0  0
  4  6  1  0  0  0  0
  4  7  1  0  0  0  0
  7  8  1  0  0  0  0
  7  9  1  0  0  0  0
  7 10  1  0  0  0  0
 10 11  1  0  0  0  0
 10 12  1  0  0  0  0
 10 13  1  0  0  0  0
 13 14  1  0  0  0  0
 13 15  1  0  0  0  0
 15 16  1  0  0  0  0
 15 17  1  0  0  0  0
 15 18  1  0  0  0  0
 18 19  1  0  0  0  0
 18 20  1  0  0  0  0
  1 21  1  0  0  0  0
 18 21  1  0  0  0  0
 21 22  1  0  0  0  0
 21 23  1  0  0  0  0
 13 24  1  0  0  0  0
 24 25  1  0  0  0  0
M  END
> <VConfSearch Rank>
917

> <Conf_Id>
62

> <Delta U+W>
-1.779

> <U+W>
9.134

> <U>
11.364

> <W>
-2.230

> <W(PB)>
-4.359

> <W(SA)>
2.129

> <Valence>
16.582

> <Coulomb>
-8.150

> <VdW>
2.933

> <VdW6>
-12.531

> <VdW12>
15.464

> <Bond>
0.439

> <Angle>
5.099

> <Pdih>
11.044

> <Idih>
0.000

> <Tether>
0.000

$$$$
VeraChem MOL file


 25 25  0  0  0  0  0  0  0  0999 V2000     
   21.2641   18.3965   21.2422 C   0  0  0  0  0  0  0  0  0  0  0  0
   20.2140   18.1245   21.0860 H   0  0  0  0  0  0  0  0  0  0  0  0
   21.8011   17.9122   20.4154 H   0  0  0  0  0  0  0  0  0  0  0  0
   21.7924   17.7765   22.5598 C   0  0  0  0  0  0  0  0  0  0  0  0
   21.6926   16.6859   22.4733 H   0  0  0  0  0  0  0  0  0  0  0  0
   22.8702   17.9701   22.6453 H   0  0  0  0  0  0  0  0  0  0  0  0
   21.0971   18.2130   23.8746 C   0  0  0  0  0  0  0  0  0  0  0  0
   21.5111   19.1628   24.2318 H   0  0  0  0  0  0  0  0  0  0  0  0
   21.3780   17.4836   24.6467 H   0  0  0  0  0  0  0  0  0  0  0  0
   19.5477   18.2826   23.8140 C   0  0  0  0  0  0  0  0  0  0  0  0
   19.1542   17.6318   23.0235 H   0  0  0  0  0  0  0  0  0  0  0  0
   19.1672   17.8596   24.7530 H   0  0  0  0  0  0  0  0  0  0  0  0
   18.9633   19.7117   23.6816 C   0  0  0  0  0  0  0  0  0  0  0  0
   19.3866   20.3328   24.4842 H   0  0  0  0  0  0  0  0  0  0  0  0
   19.2094   20.4342   22.3335 C   0  0  0  0  0  0  0  0  0  0  0  0
   18.8039   19.8451   21.5020 H   0  0  0  0  0  0  0  0  0  0  0  0
   18.6130   21.3560   22.3513 H   0  0  0  0  0  0  0  0  0  0  0  0
   20.6834   20.8410   22.0664 C   0  0  0  0  0  0  0  0  0  0  0  0
   21.2315   20.9405   23.0102 H   0  0  0  0  0  0  0  0  0  0  0  0
   20.6875   21.8529   21.6385 H   0  0  0  0  0  0  0  0  0  0  0  0
   21.4553   19.9254   21.0822 C   0  0  0  0  0  0  0  0  0  0  0  0
   22.5258   20.1651   21.1372 H   0  0  0  0  0  0  0  0  0  0  0  0
   21.1437   20.1907   20.0627 H   0  0  0  0  0  0  0  0  0  0  0  0
   17.5564   19.6215   23.8679 O   0  0  0  0  0  0  0  0  0  0  0  0
   17.4127   19.2256   24.7526 H   0  0  0  0  0  0  0  0  0  0  0  0
  1  2  1  0  0  0  0
  1  3  1  0  0  0  0
  1  4  1  0  0  0  0
  4  5  1  0  0  0  0
  4  6  1  0  0  0  0
  4  7  1  0  0  0  0
  7  8  1  0  0  0  0
  7  9  1  0  0  0  0
  7 10  1  0  0  0  0
 10 11  1  0  0  0  0
 10 12  1  0  0  0  0
 10 13  1  0  0  0  0
 13 14  1  0  0  0  0
 13 15  1  0  0  0  0
 15 16  1  0  0  0  0
 15 17  1  0  0  0  0
 15 18  1  0  0  0  0
 18 19  1  0  0  0  0
 18 20  1  0  0  0  0
  1 21  1  0  0  0  0
 18 21  1  0  0  0  0
 21 22  1  0  0  0  0
 21 23  1  0  0  0  0
 13 24  1  0  0  0  0
 24 25  1  0  0  0  0
M  END
> <VConfSearch Rank>
918

> <Conf_Id>
121

> <Delta U+W>
-1.283

> <U+W>
9.630

> <U>
11.876

> <W>
-2.246

> <W(PB)>
-4.376

> <W(SA)>
2.130

> <Valence>
17.153

> <Coulomb>
-7.966

> <VdW>
2.689

> <VdW6>
-12.458

> <VdW12>
15.147

> <Bond>
0.421

> <Angle>
5.258

> <Pdih>
11.475

> <Idih>
0.000

> <Tether>
0.000

$$$$
VeraChem MOL file


 25 25  0  0  0  0  0  0  0  0999 V2000     
   20.6133   20.6330   21.4366 C   0  0  0  0  0  0  0  0  0  0  0  0
   20.2513   21.1451   22.3354 H   0  0  0  0  0  0  0  0  0  0  0  0
   20.7920   21.4391   20.7121 H   0  0  0  0  0  0  0  0  0  0  0  0
   19.5048   19.7240   20.8495 C   0  0  0  0  0  0  0  0  0  0  0  0
   18.6502   20.3676   20.5997 H   0  0  0  0  0  0  0  0  0  0  0  0
   19.8483   19.3029   19.8950 H   0  0  0  0  0  0  0  0  0  0  0  0
   18.9842   18.5737   21.7488 C   0  0  0  0  0  0  0  0  0  0  0  0
   19.6426   17.7006   21.6768 H   0  0  0  0  0  0  0  0  0  0  0  0
   18.0307   18.2345   21.3213 H   0  0  0  0  0  0  0  0  0  0  0  0
   18.7416   18.9514   23.2348 C   0  0  0  0  0  0  0  0  0  0  0  0
   18.5625   20.0276   23.3460 H   0  0  0  0  0  0  0  0  0  0  0  0
   17.8054   18.4697   23.5467 H   0  0  0  0  0  0  0  0  0  0  0  0
   19.8413   18.4792   24.2185 C   0  0  0  0  0  0  0  0  0  0  0  0
   19.9904   17.3998   24.0715 H   0  0  0  0  0  0  0  0  0  0  0  0
   21.2182   19.1803   24.1005 C   0  0  0  0  0  0  0  0  0  0  0  0
   21.1105   20.2637   24.2341 H   0  0  0  0  0  0  0  0  0  0  0  0
   21.8299   18.8439   24.9479 H   0  0  0  0  0  0  0  0  0  0  0  0
   22.0094   18.8532   22.8058 C   0  0  0  0  0  0  0  0  0  0  0  0
   21.6881   17.8909   22.3914 H   0  0  0  0  0  0  0  0  0  0  0  0
   23.0625   18.6973   23.0772 H   0  0  0  0  0  0  0  0  0  0  0  0
   21.9774   19.9535   21.7145 C   0  0  0  0  0  0  0  0  0  0  0  0
   22.3734   19.5382   20.7779 H   0  0  0  0  0  0  0  0  0  0  0  0
   22.6829   20.7416   22.0115 H   0  0  0  0  0  0  0  0  0  0  0  0
   19.3574   18.6978   25.5377 O   0  0  0  0  0  0  0  0  0  0  0  0
   20.0302   18.3338   26.1501 H   0  0  0  0  0  0  0  0  0  0  0  0
  1  2  1  0  0  0  0
  1  3  1  0  0  0  0
  1  4  1  0  0  0  0
  4  5  1  0  0  0  0
  4  6  1  0  0  0  0
  4  7  1  0  0  0  0
  7  8  1  0  0  0  0
  7  9  1  0  0  0  0
  7 10  1  0  0  0  0
 10 11  1  0  0  0  0
 10 12  1  0  0  0  0
 10 13  1  0  0  0  0
 13 14  1  0  0  0  0
 13 15  1  0  0  0  0
 15 16  1  0  0  0  0
 15 17  1  0  0  0  0
 15 18  1  0  0  0  0
 18 19  1  0  0  0  0
 18 20  1  0  0  0  0
  1 21  1  0  0  0  0
 18 21  1  0  0  0  0
 21 22  1  0  0  0  0
 21 23  1  0  0  0  0
 13 24  1  0  0  0  0
 24 25  1  0  0  0  0
M  END
> <VConfSearch Rank>
919

> <Conf_Id>
24

> <Delta U+W>
-1.236

> <U+W>
9.678

> <U>
11.876

> <W>
-2.199

> <W(PB)>
-4.335

> <W(SA)>
2.137

> <Valence>
17.153

> <Coulomb>
-7.966

> <VdW>
2.689

> <VdW6>
-12.458

> <VdW12>
15.147

> <Bond>
0.421

> <Angle>
5.258

> <Pdih>
11.475

> <Idih>
0.000

> <Tether>
0.000

$$$$
VeraChem MOL file


 25 25  0  0  0  0  0  0  0  0999 V2000     
   20.0701   17.1992   21.8590 C   0  0  0  0  0  0  0  0  0  0  0  0
   20.1859   16.9648   20.7921 H   0  0  0  0  0  0  0  0  0  0  0  0
   19.7905   16.2531   22.3423 H   0  0  0  0  0  0  0  0  0  0  0  0
   21.4453   17.6381   22.4285 C   0  0  0  0  0  0  0  0  0  0  0  0
   21.4517   17.5638   23.5234 H   0  0  0  0  0  0  0  0  0  0  0  0
   22.1817   16.8945   22.0941 H   0  0  0  0  0  0  0  0  0  0  0  0
   21.9478   19.0359   21.9900 C   0  0  0  0  0  0  0  0  0  0  0  0
   21.6373   19.2565   20.9598 H   0  0  0  0  0  0  0  0  0  0  0  0
   23.0449   18.9847   21.9586 H   0  0  0  0  0  0  0  0  0  0  0  0
   21.5782   20.2018   22.9501 C   0  0  0  0  0  0  0  0  0  0  0  0
   21.6116   19.8718   23.9963 H   0  0  0  0  0  0  0  0  0  0  0  0
   22.3745   20.9523   22.8526 H   0  0  0  0  0  0  0  0  0  0  0  0
   20.2306   20.8997   22.6433 C   0  0  0  0  0  0  0  0  0  0  0  0
   20.0293   20.8119   21.5674 H   0  0  0  0  0  0  0  0  0  0  0  0
   19.0110   20.3672   23.4375 C   0  0  0  0  0  0  0  0  0  0  0  0
   19.0895   20.6886   24.4844 H   0  0  0  0  0  0  0  0  0  0  0  0
   18.1139   20.8581   23.0376 H   0  0  0  0  0  0  0  0  0  0  0  0
   18.7783   18.8355   23.4182 C   0  0  0  0  0  0  0  0  0  0  0  0
   17.7720   18.6389   23.8125 H   0  0  0  0  0  0  0  0  0  0  0  0
   19.4567   18.3495   24.1290 H   0  0  0  0  0  0  0  0  0  0  0  0
   18.8948   18.1957   22.0117 C   0  0  0  0  0  0  0  0  0  0  0  0
   18.9600   18.9639   21.2324 H   0  0  0  0  0  0  0  0  0  0  0  0
   17.9630   17.6566   21.7929 H   0  0  0  0  0  0  0  0  0  0  0  0
   20.3627   22.2817   22.9505 O   0  0  0  0  0  0  0  0  0  0  0  0
   20.5616   22.3349   23.9079 H   0  0  0  0  0  0  0  0  0  0  0  0
  1  2  1  0  0  0  0
  1  3  1  0  0  0  0
  1  4  1  0  0  0  0
  4  5  1  0  0  0  0
  4  6  1  0  0  0  0
  4  7  1  0  0  0  0
  7  8  1  0  0  0  0
  7  9  1  0  0  0  0
  7 10  1  0  0  0  0
 10 11  1  0  0  0  0
 10 12  1  0  0  0  0
 10 13  1  0  0  0  0
 13 14  1  0  0  0  0
 13 15  1  0  0  0  0
 15 16  1  0  0  0  0
 15 17  1  0  0  0  0
 15 18  1  0  0  0  0
 18 19  1  0  0  0  0
 18 20  1  0  0  0  0
  1 21  1  0  0  0  0
 18 21  1  0  0  0  0
 21 22  1  0  0  0  0
 21 23  1  0  0  0  0
 13 24  1  0  0  0  0
 24 25  1  0  0  0  0
M  END
> <VConfSearch Rank>
920

> <Conf_Id>
167

> <Delta U+W>
0.388

> <U+W>
11.301

> <U>
13.202

> <W>
-1.901

> <W(PB)>
-4.065

> <W(SA)>
2.163

> <Valence>
18.957

> <Coulomb>
-8.753

> <VdW>
2.998

> <VdW6>
-12.294

> <VdW12>
15.292

> <Bond>
0.419

> <Angle>
4.543

> <Pdih>
13.996

> <Idih>
0.000

> <Tether>
0.000

$$$$
VeraChem MOL file


 25 25  0  0  0  0  0  0  0  0999 V2000     
   20.0911   20.8772   21.4224 C   0  0  0  0  0  0  0  0  0  0  0  0
   19.1337   21.4096   21.3426 H   0  0  0  0  0  0  0  0  0  0  0  0
   20.7884   21.4235   20.7726 H   0  0  0  0  0  0  0  0  0  0  0  0
   19.9223   19.4502   20.8389 C   0  0  0  0  0  0  0  0  0  0  0  0
   18.9602   19.0207   21.1401 H   0  0  0  0  0  0  0  0  0  0  0  0
   19.8439   19.5558   19.7481 H   0  0  0  0  0  0  0  0  0  0  0  0
   21.0787   18.4634   21.1451 C   0  0  0  0  0  0  0  0  0  0  0  0
   22.0178   19.0009   21.3292 H   0  0  0  0  0  0  0  0  0  0  0  0
   21.2593   17.8741   20.2357 H   0  0  0  0  0  0  0  0  0  0  0  0
   20.7885   17.4536   22.2889 C   0  0  0  0  0  0  0  0  0  0  0  0
   19.8678   16.9003   22.0624 H   0  0  0  0  0  0  0  0  0  0  0  0
   21.5927   16.7059   22.2811 H   0  0  0  0  0  0  0  0  0  0  0  0
   20.6972   18.0293   23.7240 C   0  0  0  0  0  0  0  0  0  0  0  0
   21.6049   18.6098   23.9366 H   0  0  0  0  0  0  0  0  0  0  0  0
   19.4427   18.9053   23.9761 C   0  0  0  0  0  0  0  0  0  0  0  0
   18.6600   18.6594   23.2515 H   0  0  0  0  0  0  0  0  0  0  0  0
   19.0040   18.6455   24.9487 H   0  0  0  0  0  0  0  0  0  0  0  0
   19.7023   20.4341   23.9858 C   0  0  0  0  0  0  0  0  0  0  0  0
   20.1553   20.6936   24.9524 H   0  0  0  0  0  0  0  0  0  0  0  0
   18.7380   20.9595   23.9583 H   0  0  0  0  0  0  0  0  0  0  0  0
   20.6226   20.9958   22.8730 C   0  0  0  0  0  0  0  0  0  0  0  0
   21.6262   20.5618   22.9473 H   0  0  0  0  0  0  0  0  0  0  0  0
   20.7683   22.0648   23.0799 H   0  0  0  0  0  0  0  0  0  0  0  0
   20.6570   16.9257   24.6210 O   0  0  0  0  0  0  0  0  0  0  0  0
   20.6692   17.2997   25.5269 H   0  0  0  0  0  0  0  0  0  0  0  0
  1  2  1  0  0  0  0
  1  3  1  0  0  0  0
  1  4  1  0  0  0  0
  4  5  1  0  0  0  0
  4  6  1  0  0  0  0
  4  7  1  0  0  0  0
  7  8  1  0  0  0  0
  7  9  1  0  0  0  0
  7 10  1  0  0  0  0
 10 11  1  0  0  0  0
 10 12  1  0  0  0  0
 10 13  1  0  0  0  0
 13 14  1  0  0  0  0
 13 15  1  0  0  0  0
 15 16  1  0  0  0  0
 15 17  1  0  0  0  0
 15 18  1  0  0  0  0
 18 19  1  0  0  0  0
 18 20  1  0  0  0  0
  1 21  1  0  0  0  0
 18 21  1  0  0  0  0
 21 22  1  0  0  0  0
 21 23  1  0  0  0  0
 13 24  1  0  0  0  0
 24 25  1  0  0  0  0
M  END
> <VConfSearch Rank>
921

> <Conf_Id>
60

> <Delta U+W>
-1.838

> <U+W>
9.075

> <U>
11.150

> <W>
-2.074

> <W(PB)>
-4.196

> <W(SA)>
2.121

> <Valence>
16.582

> <Coulomb>
-8.361

> <VdW>
2.928

> <VdW6>
-12.539

> <VdW12>
15.467

> <Bond>
0.441

> <Angle>
5.093

> <Pdih>
11.049

> <Idih>
0.000

> <Tether>
0.000

$$$$
VeraChem MOL file


 25 25  0  0  0  0  0  0  0  0999 V2000     
   21.4085   20.9426   22.5992 C   0  0  0  0  0  0  0  0  0  0  0  0
   21.7782   21.4153   23.5192 H   0  0  0  0  0  0  0  0  0  0  0  0
   21.7189   21.6060   21.7804 H   0  0  0  0  0  0  0  0  0  0  0  0
   19.8593   20.9278   22.6191 C   0  0  0  0  0  0  0  0  0  0  0  0
   19.5243   21.9729   22.6658 H   0  0  0  0  0  0  0  0  0  0  0  0
   19.4699   20.5563   21.6644 H   0  0  0  0  0  0  0  0  0  0  0  0
   19.1985   20.1805   23.8048 C   0  0  0  0  0  0  0  0  0  0  0  0
   18.1157   20.3561   23.7447 H   0  0  0  0  0  0  0  0  0  0  0  0
   19.5225   20.6397   24.7486 H   0  0  0  0  0  0  0  0  0  0  0  0
   19.4294   18.6492   23.8851 C   0  0  0  0  0  0  0  0  0  0  0  0
   20.4032   18.4370   24.3380 H   0  0  0  0  0  0  0  0  0  0  0  0
   18.7022   18.2497   24.6045 H   0  0  0  0  0  0  0  0  0  0  0  0
   19.2920   17.8943   22.5375 C   0  0  0  0  0  0  0  0  0  0  0  0
   18.7221   18.5058   21.8252 H   0  0  0  0  0  0  0  0  0  0  0  0
   20.6441   17.4962   21.8950 C   0  0  0  0  0  0  0  0  0  0  0  0
   21.2293   16.9124   22.6175 H   0  0  0  0  0  0  0  0  0  0  0  0
   20.4287   16.8099   21.0652 H   0  0  0  0  0  0  0  0  0  0  0  0
   21.5199   18.6489   21.3324 C   0  0  0  0  0  0  0  0  0  0  0  0
   20.9689   19.2231   20.5765 H   0  0  0  0  0  0  0  0  0  0  0  0
   22.3520   18.1822   20.7876 H   0  0  0  0  0  0  0  0  0  0  0  0
   22.1326   19.5848   22.4064 C   0  0  0  0  0  0  0  0  0  0  0  0
   23.1668   19.8105   22.1121 H   0  0  0  0  0  0  0  0  0  0  0  0
   22.2308   19.0598   23.3632 H   0  0  0  0  0  0  0  0  0  0  0  0
   18.5650   16.6941   22.7718 O   0  0  0  0  0  0  0  0  0  0  0  0
   17.6858   16.9605   23.1133 H   0  0  0  0  0  0  0  0  0  0  0  0
  1  2  1  0  0  0  0
  1  3  1  0  0  0  0
  1  4  1  0  0  0  0
  4  5  1  0  0  0  0
  4  6  1  0  0  0  0
  4  7  1  0  0  0  0
  7  8  1  0  0  0  0
  7  9  1  0  0  0  0
  7 10  1  0  0  0  0
 10 11  1  0  0  0  0
 10 12  1  0  0  0  0
 10 13  1  0  0  0  0
 13 14  1  0  0  0  0
 13 15  1  0  0  0  0
 15 16  1  0  0  0  0
 15 17  1  0  0  0  0
 15 18  1  0  0  0  0
 18 19  1  0  0  0  0
 18 20  1  0  0  0  0
  1 21  1  0  0  0  0
 18 21  1  0  0  0  0
 21 22  1  0  0  0  0
 21 23  1  0  0  0  0
 13 24  1  0  0  0  0
 24 25  1  0  0  0  0
M  END
> <VConfSearch Rank>
922

> <Conf_Id>
129

> <Delta U+W>
-1.846

> <U+W>
9.067

> <U>
11.150

> <W>
-2.083

> <W(PB)>
-4.217

> <W(SA)>
2.134

> <Valence>
16.583

> <Coulomb>
-8.361

> <VdW>
2.928

> <VdW6>
-12.539

> <VdW12>
15.467

> <Bond>
0.441

> <Angle>
5.093

> <Pdih>
11.049

> <Idih>
0.000

> <Tether>
0.000

$$$$
VeraChem MOL file


 25 25  0  0  0  0  0  0  0  0999 V2000     
   20.4164   18.9765   20.6048 C   0  0  0  0  0  0  0  0  0  0  0  0
   19.8317   19.6037   19.9184 H   0  0  0  0  0  0  0  0  0  0  0  0
   21.0087   18.3090   19.9641 H   0  0  0  0  0  0  0  0  0  0  0  0
   19.4534   18.0885   21.4321 C   0  0  0  0  0  0  0  0  0  0  0  0
   18.9028   17.4562   20.7223 H   0  0  0  0  0  0  0  0  0  0  0  0
   20.0209   17.3813   22.0478 H   0  0  0  0  0  0  0  0  0  0  0  0
   18.4033   18.8365   22.2912 C   0  0  0  0  0  0  0  0  0  0  0  0
   17.7294   18.0821   22.7199 H   0  0  0  0  0  0  0  0  0  0  0  0
   17.7766   19.4587   21.6380 H   0  0  0  0  0  0  0  0  0  0  0  0
   18.9398   19.7096   23.4553 C   0  0  0  0  0  0  0  0  0  0  0  0
   19.2649   20.6843   23.0775 H   0  0  0  0  0  0  0  0  0  0  0  0
   18.0840   19.9359   24.1056 H   0  0  0  0  0  0  0  0  0  0  0  0
   20.0652   19.0579   24.2998 C   0  0  0  0  0  0  0  0  0  0  0  0
   20.0484   17.9687   24.1612 H   0  0  0  0  0  0  0  0  0  0  0  0
   21.4861   19.5907   23.9868 C   0  0  0  0  0  0  0  0  0  0  0  0
   21.4989   20.6831   24.0948 H   0  0  0  0  0  0  0  0  0  0  0  0
   22.1642   19.2067   24.7607 H   0  0  0  0  0  0  0  0  0  0  0  0
   22.0906   19.2078   22.6087 C   0  0  0  0  0  0  0  0  0  0  0  0
   22.1304   18.1173   22.4902 H   0  0  0  0  0  0  0  0  0  0  0  0
   23.1399   19.5333   22.6173 H   0  0  0  0  0  0  0  0  0  0  0  0
   21.4050   19.8772   21.3896 C   0  0  0  0  0  0  0  0  0  0  0  0
   22.1886   20.1863   20.6843 H   0  0  0  0  0  0  0  0  0  0  0  0
   20.9211   20.8145   21.6866 H   0  0  0  0  0  0  0  0  0  0  0  0
   19.8053   19.3294   25.6713 O   0  0  0  0  0  0  0  0  0  0  0  0
   19.8297   20.3033   25.7699 H   0  0  0  0  0  0  0  0  0  0  0  0
  1  2  1  0  0  0  0
  1  3  1  0  0  0  0
  1  4  1  0  0  0  0
  4  5  1  0  0  0  0
  4  6  1  0  0  0  0
  4  7  1  0  0  0  0
  7  8  1  0  0  0  0
  7  9  1  0  0  0  0
  7 10  1  0  0  0  0
 10 11  1  0  0  0  0
 10 12  1  0  0  0  0
 10 13  1  0  0  0  0
 13 14  1  0  0  0  0
 13 15  1  0  0  0  0
 15 16  1  0  0  0  0
 15 17  1  0  0  0  0
 15 18  1  0  0  0  0
 18 19  1  0  0  0  0
 18 20  1  0  0  0  0
  1 21  1  0  0  0  0
 18 21  1  0  0  0  0
 21 22  1  0  0  0  0
 21 23  1  0  0  0  0
 13 24  1  0  0  0  0
 24 25  1  0  0  0  0
M  END
> <VConfSearch Rank>
923

> <Conf_Id>
140

> <Delta U+W>
-1.702

> <U+W>
9.211

> <U>
11.181

> <W>
-1.969

> <W(PB)>
-4.093

> <W(SA)>
2.124

> <Valence>
16.954

> <Coulomb>
-8.661

> <VdW>
2.887

> <VdW6>
-12.561

> <VdW12>
15.448

> <Bond>
0.433

> <Angle>
5.120

> <Pdih>
11.401

> <Idih>
0.000

> <Tether>
0.000

$$$$
VeraChem MOL file


 25 25  0  0  0  0  0  0  0  0999 V2000     
   18.2530   19.5005   22.4475 C   0  0  0  0  0  0  0  0  0  0  0  0
   17.7725   19.4753   21.4601 H   0  0  0  0  0  0  0  0  0  0  0  0
   17.4490   19.7235   23.1623 H   0  0  0  0  0  0  0  0  0  0  0  0
   19.2595   20.6795   22.4865 C   0  0  0  0  0  0  0  0  0  0  0  0
   19.8099   20.7488   21.5415 H   0  0  0  0  0  0  0  0  0  0  0  0
   18.6696   21.6055   22.5271 H   0  0  0  0  0  0  0  0  0  0  0  0
   20.2388   20.6788   23.6888 C   0  0  0  0  0  0  0  0  0  0  0  0
   19.8166   20.1323   24.5420 H   0  0  0  0  0  0  0  0  0  0  0  0
   20.3380   21.7169   24.0344 H   0  0  0  0  0  0  0  0  0  0  0  0
   21.6694   20.1711   23.3625 C   0  0  0  0  0  0  0  0  0  0  0  0
   22.0821   20.7633   22.5354 H   0  0  0  0  0  0  0  0  0  0  0  0
   22.3025   20.3924   24.2323 H   0  0  0  0  0  0  0  0  0  0  0  0
   21.8204   18.6625   23.0424 C   0  0  0  0  0  0  0  0  0  0  0  0
   21.3794   18.0737   23.8576 H   0  0  0  0  0  0  0  0  0  0  0  0
   21.1959   18.2325   21.6898 C   0  0  0  0  0  0  0  0  0  0  0  0
   21.1089   19.0946   21.0208 H   0  0  0  0  0  0  0  0  0  0  0  0
   21.8846   17.5497   21.1739 H   0  0  0  0  0  0  0  0  0  0  0  0
   19.8329   17.5007   21.7993 C   0  0  0  0  0  0  0  0  0  0  0  0
   20.0314   16.4649   22.1074 H   0  0  0  0  0  0  0  0  0  0  0  0
   19.3831   17.4328   20.7996 H   0  0  0  0  0  0  0  0  0  0  0  0
   18.7962   18.0902   22.7883 C   0  0  0  0  0  0  0  0  0  0  0  0
   19.1862   18.0689   23.8123 H   0  0  0  0  0  0  0  0  0  0  0  0
   17.9371   17.4058   22.8059 H   0  0  0  0  0  0  0  0  0  0  0  0
   23.2129   18.3776   22.9994 O   0  0  0  0  0  0  0  0  0  0  0  0
   23.5830   18.9159   22.2698 H   0  0  0  0  0  0  0  0  0  0  0  0
  1  2  1  0  0  0  0
  1  3  1  0  0  0  0
  1  4  1  0  0  0  0
  4  5  1  0  0  0  0
  4  6  1  0  0  0  0
  4  7  1  0  0  0  0
  7  8  1  0  0  0  0
  7  9  1  0  0  0  0
  7 10  1  0  0  0  0
 10 11  1  0  0  0  0
 10 12  1  0  0  0  0
 10 13  1  0  0  0  0
 13 14  1  0  0  0  0
 13 15  1  0  0  0  0
 15 16  1  0  0  0  0
 15 17  1  0  0  0  0
 15 18  1  0  0  0  0
 18 19  1  0  0  0  0
 18 20  1  0  0  0  0
  1 21  1  0  0  0  0
 18 21  1  0  0  0  0
 21 22  1  0  0  0  0
 21 23  1  0  0  0  0
 13 24  1  0  0  0  0
 24 25  1  0  0  0  0
M  END
> <VConfSearch Rank>
924

> <Conf_Id>
68

> <Delta U+W>
-1.765

> <U+W>
9.148

> <U>
11.181

> <W>
-2.032

> <W(PB)>
-4.147

> <W(SA)>
2.114

> <Valence>
16.955

> <Coulomb>
-8.661

> <VdW>
2.887

> <VdW6>
-12.561

> <VdW12>
15.448

> <Bond>
0.433

> <Angle>
5.121

> <Pdih>
11.402

> <Idih>
0.000

> <Tether>
0.000

$$$$
VeraChem MOL file


 25 25  0  0  0  0  0  0  0  0999 V2000     
   20.8988   20.4968   21.4985 C   0  0  0  0  0  0  0  0  0  0  0  0
   21.2818   21.1816   20.7294 H   0  0  0  0  0  0  0  0  0  0  0  0
   21.1263   20.9984   22.4458 H   0  0  0  0  0  0  0  0  0  0  0  0
   21.6806   19.1621   21.3865 C   0  0  0  0  0  0  0  0  0  0  0  0
   21.1385   18.4367   20.7663 H   0  0  0  0  0  0  0  0  0  0  0  0
   22.6097   19.3689   20.8379 H   0  0  0  0  0  0  0  0  0  0  0  0
   22.0879   18.5303   22.7436 C   0  0  0  0  0  0  0  0  0  0  0  0
   22.6693   19.2591   23.3249 H   0  0  0  0  0  0  0  0  0  0  0  0
   22.7796   17.7034   22.5323 H   0  0  0  0  0  0  0  0  0  0  0  0
   20.9390   17.9713   23.6246 C   0  0  0  0  0  0  0  0  0  0  0  0
   20.3648   17.2191   23.0705 H   0  0  0  0  0  0  0  0  0  0  0  0
   21.4122   17.4223   24.4500 H   0  0  0  0  0  0  0  0  0  0  0  0
   20.0029   19.0533   24.2228 C   0  0  0  0  0  0  0  0  0  0  0  0
   20.5175   20.0210   24.2040 H   0  0  0  0  0  0  0  0  0  0  0  0
   18.6342   19.1919   23.5120 C   0  0  0  0  0  0  0  0  0  0  0  0
   17.9889   18.3639   23.8339 H   0  0  0  0  0  0  0  0  0  0  0  0
   18.1485   20.1085   23.8714 H   0  0  0  0  0  0  0  0  0  0  0  0
   18.6389   19.1988   21.9615 C   0  0  0  0  0  0  0  0  0  0  0  0
   17.5915   19.2264   21.6315 H   0  0  0  0  0  0  0  0  0  0  0  0
   19.0254   18.2488   21.5750 H   0  0  0  0  0  0  0  0  0  0  0  0
   19.3661   20.3896   21.2882 C   0  0  0  0  0  0  0  0  0  0  0  0
   18.8959   21.3298   21.6069 H   0  0  0  0  0  0  0  0  0  0  0  0
   19.1811   20.3176   20.2076 H   0  0  0  0  0  0  0  0  0  0  0  0
   19.7469   18.7285   25.5836 O   0  0  0  0  0  0  0  0  0  0  0  0
   19.3042   17.8551   25.5813 H   0  0  0  0  0  0  0  0  0  0  0  0
  1  2  1  0  0  0  0
  1  3  1  0  0  0  0
  1  4  1  0  0  0  0
  4  5  1  0  0  0  0
  4  6  1  0  0  0  0
  4  7  1  0  0  0  0
  7  8  1  0  0  0  0
  7  9  1  0  0  0  0
  7 10  1  0  0  0  0
 10 11  1  0  0  0  0
 10 12  1  0  0  0  0
 10 13  1  0  0  0  0
 13 14  1  0  0  0  0
 13 15  1  0  0  0  0
 15 16  1  0  0  0  0
 15 17  1  0  0  0  0
 15 18  1  0  0  0  0
 18 19  1  0  0  0  0
 18 20  1  0  0  0  0
  1 21  1  0  0  0  0
 18 21  1  0  0  0  0
 21 22  1  0  0  0  0
 21 23  1  0  0  0  0
 13 24  1  0  0  0  0
 24 25  1  0  0  0  0
M  END
> <VConfSearch Rank>
925

> <Conf_Id>
165

> <Delta U+W>
-1.999

> <U+W>
8.915

> <U>
10.935

> <W>
-2.020

> <W(PB)>
-4.135

> <W(SA)>
2.115

> <Valence>
16.757

> <Coulomb>
-8.731

> <VdW>
2.908

> <VdW6>
-12.597

> <VdW12>
15.506

> <Bond>
0.434

> <Angle>
5.069

> <Pdih>
11.254

> <Idih>
0.000

> <Tether>
0.000

$$$$
VeraChem MOL file


 25 25  0  0  0  0  0  0  0  0999 V2000     
   21.9537   18.4621   23.0441 C   0  0  0  0  0  0  0  0  0  0  0  0
   22.9201   18.0472   23.3618 H   0  0  0  0  0  0  0  0  0  0  0  0
   21.9102   18.2552   21.9689 H   0  0  0  0  0  0  0  0  0  0  0  0
   22.0069   19.9895   23.3081 C   0  0  0  0  0  0  0  0  0  0  0  0
   22.4898   20.1434   24.2828 H   0  0  0  0  0  0  0  0  0  0  0  0
   22.6741   20.4559   22.5706 H   0  0  0  0  0  0  0  0  0  0  0  0
   20.6589   20.7528   23.3354 C   0  0  0  0  0  0  0  0  0  0  0  0
   20.8753   21.7890   23.6288 H   0  0  0  0  0  0  0  0  0  0  0  0
   20.0189   20.3667   24.1370 H   0  0  0  0  0  0  0  0  0  0  0  0
   19.8784   20.8056   21.9967 C   0  0  0  0  0  0  0  0  0  0  0  0
   19.0125   21.4644   22.1469 H   0  0  0  0  0  0  0  0  0  0  0  0
   20.5046   21.2962   21.2404 H   0  0  0  0  0  0  0  0  0  0  0  0
   19.3691   19.4610   21.4220 C   0  0  0  0  0  0  0  0  0  0  0  0
   20.2033   18.9314   20.9471 H   0  0  0  0  0  0  0  0  0  0  0  0
   18.7049   18.5233   22.4631 C   0  0  0  0  0  0  0  0  0  0  0  0
   18.3440   19.0931   23.3274 H   0  0  0  0  0  0  0  0  0  0  0  0
   17.8034   18.0873   22.0118 H   0  0  0  0  0  0  0  0  0  0  0  0
   19.5958   17.3396   22.9259 C   0  0  0  0  0  0  0  0  0  0  0  0
   19.9200   16.7646   22.0477 H   0  0  0  0  0  0  0  0  0  0  0  0
   18.9651   16.6551   23.5093 H   0  0  0  0  0  0  0  0  0  0  0  0
   20.8321   17.6959   23.7928 C   0  0  0  0  0  0  0  0  0  0  0  0
   21.2595   16.7475   24.1461 H   0  0  0  0  0  0  0  0  0  0  0  0
   20.5287   18.2288   24.7030 H   0  0  0  0  0  0  0  0  0  0  0  0
   18.4131   19.7642   20.4122 O   0  0  0  0  0  0  0  0  0  0  0  0
   18.8714   20.3191   19.7471 H   0  0  0  0  0  0  0  0  0  0  0  0
  1  2  1  0  0  0  0
  1  3  1  0  0  0  0
  1  4  1  0  0  0  0
  4  5  1  0  0  0  0
  4  6  1  0  0  0  0
  4  7  1  0  0  0  0
  7  8  1  0  0  0  0
  7  9  1  0  0  0  0
  7 10  1  0  0  0  0
 10 11  1  0  0  0  0
 10 12  1  0  0  0  0
 10 13  1  0  0  0  0
 13 14  1  0  0  0  0
 13 15  1  0  0  0  0
 15 16  1  0  0  0  0
 15 17  1  0  0  0  0
 15 18  1  0  0  0  0
 18 19  1  0  0  0  0
 18 20  1  0  0  0  0
  1 21  1  0  0  0  0
 18 21  1  0  0  0  0
 21 22  1  0  0  0  0
 21 23  1  0  0  0  0
 13 24  1  0  0  0  0
 24 25  1  0  0  0  0
M  END
> <VConfSearch Rank>
926

> <Conf_Id>
133

> <Delta U+W>
-2.139

> <U+W>
8.774

> <U>
10.905

> <W>
-2.131

> <W(PB)>
-4.281

> <W(SA)>
2.150

> <Valence>
16.378

> <Coulomb>
-8.448

> <VdW>
2.976

> <VdW6>
-12.570

> <VdW12>
15.545

> <Bond>
0.439

> <Angle>
5.049

> <Pdih>
10.889

> <Idih>
0.000

> <Tether>
0.000

$$$$
VeraChem MOL file


 25 25  0  0  0  0  0  0  0  0999 V2000     
   21.6608   20.3708   22.2169 C   0  0  0  0  0  0  0  0  0  0  0  0
   22.5369   20.9972   21.9998 H   0  0  0  0  0  0  0  0  0  0  0  0
   20.8135   20.9450   21.8254 H   0  0  0  0  0  0  0  0  0  0  0  0
   21.5500   20.2161   23.7562 C   0  0  0  0  0  0  0  0  0  0  0  0
   22.0371   19.2935   24.0970 H   0  0  0  0  0  0  0  0  0  0  0  0
   22.1296   21.0303   24.2123 H   0  0  0  0  0  0  0  0  0  0  0  0
   20.1078   20.3172   24.3191 C   0  0  0  0  0  0  0  0  0  0  0  0
   19.6602   21.2703   24.0055 H   0  0  0  0  0  0  0  0  0  0  0  0
   20.1799   20.3721   25.4138 H   0  0  0  0  0  0  0  0  0  0  0  0
   19.1397   19.1561   23.9674 C   0  0  0  0  0  0  0  0  0  0  0  0
   19.5534   18.1970   24.3006 H   0  0  0  0  0  0  0  0  0  0  0  0
   18.2337   19.3016   24.5713 H   0  0  0  0  0  0  0  0  0  0  0  0
   18.7275   19.0908   22.4741 C   0  0  0  0  0  0  0  0  0  0  0  0
   18.9138   20.0665   22.0104 H   0  0  0  0  0  0  0  0  0  0  0  0
   19.4446   17.9902   21.6542 C   0  0  0  0  0  0  0  0  0  0  0  0
   18.9835   17.0240   21.9001 H   0  0  0  0  0  0  0  0  0  0  0  0
   19.2438   18.1590   20.5884 H   0  0  0  0  0  0  0  0  0  0  0  0
   20.9743   17.8394   21.8579 C   0  0  0  0  0  0  0  0  0  0  0  0
   21.2995   16.9747   21.2636 H   0  0  0  0  0  0  0  0  0  0  0  0
   21.1972   17.5617   22.8944 H   0  0  0  0  0  0  0  0  0  0  0  0
   21.8411   19.0488   21.4262 C   0  0  0  0  0  0  0  0  0  0  0  0
   21.6818   19.2476   20.3578 H   0  0  0  0  0  0  0  0  0  0  0  0
   22.8933   18.7461   21.5171 H   0  0  0  0  0  0  0  0  0  0  0  0
   17.3297   18.8329   22.4020 O   0  0  0  0  0  0  0  0  0  0  0  0
   17.0896   18.8418   21.4519 H   0  0  0  0  0  0  0  0  0  0  0  0
  1  2  1  0  0  0  0
  1  3  1  0  0  0  0
  1  4  1  0  0  0  0
  4  5  1  0  0  0  0
  4  6  1  0  0  0  0
  4  7  1  0  0  0  0
  7  8  1  0  0  0  0
  7  9  1  0  0  0  0
  7 10  1  0  0  0  0
 10 11  1  0  0  0  0
 10 12  1  0  0  0  0
 10 13  1  0  0  0  0
 13 14  1  0  0  0  0
 13 15  1  0  0  0  0
 15 16  1  0  0  0  0
 15 17  1  0  0  0  0
 15 18  1  0  0  0  0
 18 19  1  0  0  0  0
 18 20  1  0  0  0  0
  1 21  1  0  0  0  0
 18 21  1  0  0  0  0
 21 22  1  0  0  0  0
 21 23  1  0  0  0  0
 13 24  1  0  0  0  0
 24 25  1  0  0  0  0
M  END
> <VConfSearch Rank>
927

> <Conf_Id>
95

> <Delta U+W>
-2.190

> <U+W>
8.723

> <U>
10.905

> <W>
-2.182

> <W(PB)>
-4.296

> <W(SA)>
2.114

> <Valence>
16.377

> <Coulomb>
-8.448

> <VdW>
2.976

> <VdW6>
-12.570

> <VdW12>
15.546

> <Bond>
0.439

> <Angle>
5.049

> <Pdih>
10.889

> <Idih>
0.000

> <Tether>
0.000

$$$$
VeraChem MOL file


 25 25  0  0  0  0  0  0  0  0999 V2000     
   19.1938   19.1978   21.2026 C   0  0  0  0  0  0  0  0  0  0  0  0
   18.4401   19.2066   20.4034 H   0  0  0  0  0  0  0  0  0  0  0  0
   20.1103   18.8990   20.6840 H   0  0  0  0  0  0  0  0  0  0  0  0
   18.7555   18.1127   22.2296 C   0  0  0  0  0  0  0  0  0  0  0  0
   17.6575   18.1197   22.2653 H   0  0  0  0  0  0  0  0  0  0  0  0
   19.0284   17.1225   21.8402 H   0  0  0  0  0  0  0  0  0  0  0  0
   19.2549   18.2434   23.6925 C   0  0  0  0  0  0  0  0  0  0  0  0
   18.7526   17.4672   24.2858 H   0  0  0  0  0  0  0  0  0  0  0  0
   18.8777   19.1772   24.1211 H   0  0  0  0  0  0  0  0  0  0  0  0
   20.7850   18.0954   23.9445 C   0  0  0  0  0  0  0  0  0  0  0  0
   21.0324   18.5598   24.9081 H   0  0  0  0  0  0  0  0  0  0  0  0
   20.9875   17.0238   24.0706 H   0  0  0  0  0  0  0  0  0  0  0  0
   21.7612   18.6231   22.8626 C   0  0  0  0  0  0  0  0  0  0  0  0
   21.5296   18.1159   21.9204 H   0  0  0  0  0  0  0  0  0  0  0  0
   21.7924   20.1613   22.6314 C   0  0  0  0  0  0  0  0  0  0  0  0
   22.4939   20.5977   23.3552 H   0  0  0  0  0  0  0  0  0  0  0  0
   22.2309   20.3523   21.6437 H   0  0  0  0  0  0  0  0  0  0  0  0
   20.4644   20.9563   22.7555 C   0  0  0  0  0  0  0  0  0  0  0  0
   20.7074   22.0239   22.6667 H   0  0  0  0  0  0  0  0  0  0  0  0
   20.0826   20.8652   23.7773 H   0  0  0  0  0  0  0  0  0  0  0  0
   19.3449   20.6538   21.7169 C   0  0  0  0  0  0  0  0  0  0  0  0
   19.5326   21.2858   20.8381 H   0  0  0  0  0  0  0  0  0  0  0  0
   18.3828   20.9953   22.1221 H   0  0  0  0  0  0  0  0  0  0  0  0
   23.0733   18.2263   23.2442 O   0  0  0  0  0  0  0  0  0  0  0  0
   23.0615   17.2499   23.3244 H   0  0  0  0  0  0  0  0  0  0  0  0
  1  2  1  0  0  0  0
  1  3  1  0  0  0  0
  1  4  1  0  0  0  0
  4  5  1  0  0  0  0
  4  6  1  0  0  0  0
  4  7  1  0  0  0  0
  7  8  1  0  0  0  0
  7  9  1  0  0  0  0
  7 10  1  0  0  0  0
 10 11  1  0  0  0  0
 10 12  1  0  0  0  0
 10 13  1  0  0  0  0
 13 14  1  0  0  0  0
 13 15  1  0  0  0  0
 15 16  1  0  0  0  0
 15 17  1  0  0  0  0
 15 18  1  0  0  0  0
 18 19  1  0  0  0  0
 18 20  1  0  0  0  0
  1 21  1  0  0  0  0
 18 21  1  0  0  0  0
 21 22  1  0  0  0  0
 21 23  1  0  0  0  0
 13 24  1  0  0  0  0
 24 25  1  0  0  0  0
M  END
> <VConfSearch Rank>
928

> <Conf_Id>
161

> <Delta U+W>
2.120

> <U+W>
13.033

> <U>
15.076

> <W>
-2.043

> <W(PB)>
-4.186

> <W(SA)>
2.143

> <Valence>
18.884

> <Coulomb>
-8.074

> <VdW>
4.266

> <VdW6>
-13.486

> <VdW12>
17.752

> <Bond>
0.713

> <Angle>
8.955

> <Pdih>
9.215

> <Idih>
0.000

> <Tether>
0.000

$$$$
VeraChem MOL file


 25 25  0  0  0  0  0  0  0  0999 V2000     
   20.1477   18.1705   24.3135 C   0  0  0  0  0  0  0  0  0  0  0  0
   20.2508   17.4507   25.1371 H   0  0  0  0  0  0  0  0  0  0  0  0
   19.2161   18.7092   24.5282 H   0  0  0  0  0  0  0  0  0  0  0  0
   20.0038   17.3708   22.9946 C   0  0  0  0  0  0  0  0  0  0  0  0
   20.9896   17.1263   22.5768 H   0  0  0  0  0  0  0  0  0  0  0  0
   19.5516   16.4042   23.2562 H   0  0  0  0  0  0  0  0  0  0  0  0
   19.0850   18.0217   21.9234 C   0  0  0  0  0  0  0  0  0  0  0  0
   18.2214   18.5154   22.3890 H   0  0  0  0  0  0  0  0  0  0  0  0
   18.6631   17.2013   21.3266 H   0  0  0  0  0  0  0  0  0  0  0  0
   19.7974   18.9774   20.9317 C   0  0  0  0  0  0  0  0  0  0  0  0
   20.8142   18.6173   20.7332 H   0  0  0  0  0  0  0  0  0  0  0  0
   19.2782   18.9044   19.9669 H   0  0  0  0  0  0  0  0  0  0  0  0
   19.8061   20.4792   21.3141 C   0  0  0  0  0  0  0  0  0  0  0  0
   18.7799   20.8599   21.2100 H   0  0  0  0  0  0  0  0  0  0  0  0
   20.2846   20.8226   22.7437 C   0  0  0  0  0  0  0  0  0  0  0  0
   20.4579   21.9057   22.7978 H   0  0  0  0  0  0  0  0  0  0  0  0
   19.4640   20.6425   23.4465 H   0  0  0  0  0  0  0  0  0  0  0  0
   21.5738   20.0862   23.1964 C   0  0  0  0  0  0  0  0  0  0  0  0
   22.3260   20.8340   23.4823 H   0  0  0  0  0  0  0  0  0  0  0  0
   22.0279   19.5333   22.3663 H   0  0  0  0  0  0  0  0  0  0  0  0
   21.3649   19.1293   24.3945 C   0  0  0  0  0  0  0  0  0  0  0  0
   21.2686   19.7274   25.3110 H   0  0  0  0  0  0  0  0  0  0  0  0
   22.2787   18.5330   24.5218 H   0  0  0  0  0  0  0  0  0  0  0  0
   20.6429   21.1617   20.3909 O   0  0  0  0  0  0  0  0  0  0  0  0
   21.5585   20.8962   20.6122 H   0  0  0  0  0  0  0  0  0  0  0  0
  1  2  1  0  0  0  0
  1  3  1  0  0  0  0
  1  4  1  0  0  0  0
  4  5  1  0  0  0  0
  4  6  1  0  0  0  0
  4  7  1  0  0  0  0
  7  8  1  0  0  0  0
  7  9  1  0  0  0  0
  7 10  1  0  0  0  0
 10 11  1  0  0  0  0
 10 12  1  0  0  0  0
 10 13  1  0  0  0  0
 13 14  1  0  0  0  0
 13 15  1  0  0  0  0
 15 16  1  0  0  0  0
 15 17  1  0  0  0  0
 15 18  1  0  0  0  0
 18 19  1  0  0  0  0
 18 20  1  0  0  0  0
  1 21  1  0  0  0  0
 18 21  1  0  0  0  0
 21 22  1  0  0  0  0
 21 23  1  0  0  0  0
 13 24  1  0  0  0  0
 24 25  1  0  0  0  0
M  END
> <VConfSearch Rank>
929

> <Conf_Id>
164

> <Delta U+W>
0.008

> <U+W>
10.922

> <U>
12.433

> <W>
-1.511

> <W(PB)>
-3.669

> <W(SA)>
2.157

> <Valence>
19.007

> <Coulomb>
-9.373

> <VdW>
2.799

> <VdW6>
-12.597

> <VdW12>
15.396

> <Bond>
0.425

> <Angle>
4.784

> <Pdih>
13.799

> <Idih>
0.000

> <Tether>
0.000

$$$$
VeraChem MOL file


 25 25  0  0  0  0  0  0  0  0999 V2000     
   19.8285   20.7063   21.7204 C   0  0  0  0  0  0  0  0  0  0  0  0
   20.8574   20.4982   21.4056 H   0  0  0  0  0  0  0  0  0  0  0  0
   19.5461   21.6093   21.1623 H   0  0  0  0  0  0  0  0  0  0  0  0
   19.7861   21.0648   23.2268 C   0  0  0  0  0  0  0  0  0  0  0  0
   20.4129   21.9555   23.3706 H   0  0  0  0  0  0  0  0  0  0  0  0
   18.7670   21.3722   23.4981 H   0  0  0  0  0  0  0  0  0  0  0  0
   20.2671   19.9810   24.2252 C   0  0  0  0  0  0  0  0  0  0  0  0
   19.4608   19.2705   24.4401 H   0  0  0  0  0  0  0  0  0  0  0  0
   20.4530   20.4837   25.1842 H   0  0  0  0  0  0  0  0  0  0  0  0
   21.5606   19.2284   23.8138 C   0  0  0  0  0  0  0  0  0  0  0  0
   22.1673   19.8349   23.1306 H   0  0  0  0  0  0  0  0  0  0  0  0
   22.1718   19.1117   24.7188 H   0  0  0  0  0  0  0  0  0  0  0  0
   21.3331   17.8091   23.2356 C   0  0  0  0  0  0  0  0  0  0  0  0
   20.7185   17.2428   23.9499 H   0  0  0  0  0  0  0  0  0  0  0  0
   20.6549   17.7283   21.8450 C   0  0  0  0  0  0  0  0  0  0  0  0
   21.2318   18.2855   21.0970 H   0  0  0  0  0  0  0  0  0  0  0  0
   20.7028   16.6786   21.5255 H   0  0  0  0  0  0  0  0  0  0  0  0
   19.1613   18.1495   21.8214 C   0  0  0  0  0  0  0  0  0  0  0  0
   18.7130   18.0320   22.8145 H   0  0  0  0  0  0  0  0  0  0  0  0
   18.6143   17.4384   21.1873 H   0  0  0  0  0  0  0  0  0  0  0  0
   18.8825   19.5682   21.2626 C   0  0  0  0  0  0  0  0  0  0  0  0
   17.8446   19.8444   21.4929 H   0  0  0  0  0  0  0  0  0  0  0  0
   18.9391   19.5145   20.1668 H   0  0  0  0  0  0  0  0  0  0  0  0
   22.6018   17.1771   23.1335 O   0  0  0  0  0  0  0  0  0  0  0  0
   23.1220   17.7041   22.4929 H   0  0  0  0  0  0  0  0  0  0  0  0
  1  2  1  0  0  0  0
  1  3  1  0  0  0  0
  1  4  1  0  0  0  0
  4  5  1  0  0  0  0
  4  6  1  0  0  0  0
  4  7  1  0  0  0  0
  7  8  1  0  0  0  0
  7  9  1  0  0  0  0
  7 10  1  0  0  0  0
 10 11  1  0  0  0  0
 10 12  1  0  0  0  0
 10 13  1  0  0  0  0
 13 14  1  0  0  0  0
 13 15  1  0  0  0  0
 15 16  1  0  0  0  0
 15 17  1  0  0  0  0
 15 18  1  0  0  0  0
 18 19  1  0  0  0  0
 18 20  1  0  0  0  0
  1 21  1  0  0  0  0
 18 21  1  0  0  0  0
 21 22  1  0  0  0  0
 21 23  1  0  0  0  0
 13 24  1  0  0  0  0
 24 25  1  0  0  0  0
M  END
> <VConfSearch Rank>
930

> <Conf_Id>
15

> <Delta U+W>
-1.271

> <U+W>
9.643

> <U>
11.413

> <W>
-1.770

> <W(PB)>
-3.908

> <W(SA)>
2.138

> <Valence>
17.496

> <Coulomb>
-8.736

> <VdW>
2.653

> <VdW6>
-12.485

> <VdW12>
15.138

> <Bond>
0.414

> <Angle>
5.295

> <Pdih>
11.787

> <Idih>
0.000

> <Tether>
0.000

$$$$
VeraChem MOL file


 25 25  0  0  0  0  0  0  0  0999 V2000     
   20.5495   21.1298   22.5928 C   0  0  0  0  0  0  0  0  0  0  0  0
   20.8120   22.1832   22.4247 H   0  0  0  0  0  0  0  0  0  0  0  0
   20.1928   21.0925   23.6299 H   0  0  0  0  0  0  0  0  0  0  0  0
   19.4020   20.7859   21.6070 C   0  0  0  0  0  0  0  0  0  0  0  0
   18.5146   21.3620   21.9026 H   0  0  0  0  0  0  0  0  0  0  0  0
   19.6730   21.1482   20.6059 H   0  0  0  0  0  0  0  0  0  0  0  0
   19.0086   19.2934   21.4928 C   0  0  0  0  0  0  0  0  0  0  0  0
   19.7338   18.7705   20.8585 H   0  0  0  0  0  0  0  0  0  0  0  0
   18.0596   19.2322   20.9429 H   0  0  0  0  0  0  0  0  0  0  0  0
   18.8410   18.5758   22.8575 C   0  0  0  0  0  0  0  0  0  0  0  0
   18.8752   19.2942   23.6840 H   0  0  0  0  0  0  0  0  0  0  0  0
   17.8327   18.1438   22.9008 H   0  0  0  0  0  0  0  0  0  0  0  0
   19.8494   17.4310   23.1080 C   0  0  0  0  0  0  0  0  0  0  0  0
   19.5516   16.5817   22.4764 H   0  0  0  0  0  0  0  0  0  0  0  0
   21.3365   17.7354   22.7911 C   0  0  0  0  0  0  0  0  0  0  0  0
   21.9258   16.8942   23.1801 H   0  0  0  0  0  0  0  0  0  0  0  0
   21.5025   17.7074   21.7075 H   0  0  0  0  0  0  0  0  0  0  0  0
   21.9266   19.0458   23.3775 C   0  0  0  0  0  0  0  0  0  0  0  0
   22.9943   18.8590   23.5574 H   0  0  0  0  0  0  0  0  0  0  0  0
   21.5018   19.2649   24.3656 H   0  0  0  0  0  0  0  0  0  0  0  0
   21.8401   20.2864   22.4463 C   0  0  0  0  0  0  0  0  0  0  0  0
   22.0079   20.0083   21.3971 H   0  0  0  0  0  0  0  0  0  0  0  0
   22.6811   20.9420   22.7110 H   0  0  0  0  0  0  0  0  0  0  0  0
   19.7497   17.0423   24.4709 O   0  0  0  0  0  0  0  0  0  0  0  0
   20.1124   17.7886   24.9892 H   0  0  0  0  0  0  0  0  0  0  0  0
  1  2  1  0  0  0  0
  1  3  1  0  0  0  0
  1  4  1  0  0  0  0
  4  5  1  0  0  0  0
  4  6  1  0  0  0  0
  4  7  1  0  0  0  0
  7  8  1  0  0  0  0
  7  9  1  0  0  0  0
  7 10  1  0  0  0  0
 10 11  1  0  0  0  0
 10 12  1  0  0  0  0
 10 13  1  0  0  0  0
 13 14  1  0  0  0  0
 13 15  1  0  0  0  0
 15 16  1  0  0  0  0
 15 17  1  0  0  0  0
 15 18  1  0  0  0  0
 18 19  1  0  0  0  0
 18 20  1  0  0  0  0
  1 21  1  0  0  0  0
 18 21  1  0  0  0  0
 21 22  1  0  0  0  0
 21 23  1  0  0  0  0
 13 24  1  0  0  0  0
 24 25  1  0  0  0  0
M  END
> <VConfSearch Rank>
931

> <Conf_Id>
115

> <Delta U+W>
0.038

> <U+W>
10.952

> <U>
12.526

> <W>
-1.575

> <W(PB)>
-3.698

> <W(SA)>
2.123

> <Valence>
19.016

> <Coulomb>
-9.226

> <VdW>
2.737

> <VdW6>
-12.612

> <VdW12>
15.349

> <Bond>
0.421

> <Angle>
4.883

> <Pdih>
13.711

> <Idih>
0.000

> <Tether>
0.000

$$$$
VeraChem MOL file


 25 25  0  0  0  0  0  0  0  0999 V2000     
   20.8231   20.2563   20.8327 C   0  0  0  0  0  0  0  0  0  0  0  0
   21.1468   20.2888   19.7834 H   0  0  0  0  0  0  0  0  0  0  0  0
   20.4353   21.2603   21.0521 H   0  0  0  0  0  0  0  0  0  0  0  0
   22.0763   19.9714   21.6928 C   0  0  0  0  0  0  0  0  0  0  0  0
   22.5350   19.0211   21.3878 H   0  0  0  0  0  0  0  0  0  0  0  0
   22.8189   20.7462   21.4577 H   0  0  0  0  0  0  0  0  0  0  0  0
   21.8419   19.9850   23.2211 C   0  0  0  0  0  0  0  0  0  0  0  0
   21.1800   20.8165   23.4979 H   0  0  0  0  0  0  0  0  0  0  0  0
   22.8055   20.2081   23.6994 H   0  0  0  0  0  0  0  0  0  0  0  0
   21.3343   18.6377   23.8017 C   0  0  0  0  0  0  0  0  0  0  0  0
   21.4476   17.8228   23.0758 H   0  0  0  0  0  0  0  0  0  0  0  0
   21.9918   18.3747   24.6413 H   0  0  0  0  0  0  0  0  0  0  0  0
   19.8827   18.6762   24.3302 C   0  0  0  0  0  0  0  0  0  0  0  0
   19.6957   19.6593   24.7854 H   0  0  0  0  0  0  0  0  0  0  0  0
   18.8006   18.4038   23.2618 C   0  0  0  0  0  0  0  0  0  0  0  0
   18.9356   17.3993   22.8397 H   0  0  0  0  0  0  0  0  0  0  0  0
   17.8288   18.3852   23.7722 H   0  0  0  0  0  0  0  0  0  0  0  0
   18.7107   19.4514   22.1254 C   0  0  0  0  0  0  0  0  0  0  0  0
   18.8155   20.4663   22.5314 H   0  0  0  0  0  0  0  0  0  0  0  0
   17.6912   19.4051   21.7183 H   0  0  0  0  0  0  0  0  0  0  0  0
   19.6910   19.2086   20.9481 C   0  0  0  0  0  0  0  0  0  0  0  0
   19.1064   19.2563   20.0191 H   0  0  0  0  0  0  0  0  0  0  0  0
   20.1094   18.1937   20.9757 H   0  0  0  0  0  0  0  0  0  0  0  0
   19.7531   17.6765   25.3339 O   0  0  0  0  0  0  0  0  0  0  0  0
   18.8447   17.7523   25.6936 H   0  0  0  0  0  0  0  0  0  0  0  0
  1  2  1  0  0  0  0
  1  3  1  0  0  0  0
  1  4  1  0  0  0  0
  4  5  1  0  0  0  0
  4  6  1  0  0  0  0
  4  7  1  0  0  0  0
  7  8  1  0  0  0  0
  7  9  1  0  0  0  0
  7 10  1  0  0  0  0
 10 11  1  0  0  0  0
 10 12  1  0  0  0  0
 10 13  1  0  0  0  0
 13 14  1  0  0  0  0
 13 15  1  0  0  0  0
 15 16  1  0  0  0  0
 15 17  1  0  0  0  0
 15 18  1  0  0  0  0
 18 19  1  0  0  0  0
 18 20  1  0  0  0  0
  1 21  1  0  0  0  0
 18 21  1  0  0  0  0
 21 22  1  0  0  0  0
 21 23  1  0  0  0  0
 13 24  1  0  0  0  0
 24 25  1  0  0  0  0
M  END
> <VConfSearch Rank>
932

> <Conf_Id>
30

> <Delta U+W>
0.000

> <U+W>
10.913

> <U>
13.140

> <W>
-2.227

> <W(PB)>
-4.367

> <W(SA)>
2.140

> <Valence>
19.155

> <Coulomb>
-8.157

> <VdW>
2.142

> <VdW6>
-11.576

> <VdW12>
13.718

> <Bond>
0.294

> <Angle>
3.547

> <Pdih>
15.314

> <Idih>
0.000

> <Tether>
0.000

$$$$
VeraChem MOL file


 25 25  0  0  0  0  0  0  0  0999 V2000     
   20.4687   19.5518   20.5440 C   0  0  0  0  0  0  0  0  0  0  0  0
   20.2715   20.4145   19.8929 H   0  0  0  0  0  0  0  0  0  0  0  0
   20.7498   18.7304   19.8710 H   0  0  0  0  0  0  0  0  0  0  0  0
   19.1504   19.1640   21.2580 C   0  0  0  0  0  0  0  0  0  0  0  0
   18.3416   19.1949   20.5152 H   0  0  0  0  0  0  0  0  0  0  0  0
   19.1970   18.1151   21.5729 H   0  0  0  0  0  0  0  0  0  0  0  0
   18.7688   20.0862   22.4436 C   0  0  0  0  0  0  0  0  0  0  0  0
   17.7597   20.4842   22.2704 H   0  0  0  0  0  0  0  0  0  0  0  0
   19.4159   20.9704   22.4786 H   0  0  0  0  0  0  0  0  0  0  0  0
   18.7758   19.3788   23.8224 C   0  0  0  0  0  0  0  0  0  0  0  0
   18.6819   20.1435   24.6049 H   0  0  0  0  0  0  0  0  0  0  0  0
   17.8739   18.7576   23.8986 H   0  0  0  0  0  0  0  0  0  0  0  0
   19.9951   18.4777   24.1405 C   0  0  0  0  0  0  0  0  0  0  0  0
   19.9455   17.5710   23.5228 H   0  0  0  0  0  0  0  0  0  0  0  0
   21.3772   19.1437   23.9314 C   0  0  0  0  0  0  0  0  0  0  0  0
   21.3155   20.2211   24.1312 H   0  0  0  0  0  0  0  0  0  0  0  0
   22.0654   18.7471   24.6898 H   0  0  0  0  0  0  0  0  0  0  0  0
   22.0327   18.8731   22.5477 C   0  0  0  0  0  0  0  0  0  0  0  0
   21.8300   17.8495   22.2048 H   0  0  0  0  0  0  0  0  0  0  0  0
   23.1204   18.9208   22.6954 H   0  0  0  0  0  0  0  0  0  0  0  0
   21.6840   19.9017   21.4435 C   0  0  0  0  0  0  0  0  0  0  0  0
   22.5556   19.9939   20.7811 H   0  0  0  0  0  0  0  0  0  0  0  0
   21.5630   20.8991   21.8851 H   0  0  0  0  0  0  0  0  0  0  0  0
   19.8855   18.0889   25.5047 O   0  0  0  0  0  0  0  0  0  0  0  0
   20.6138   17.4562   25.6774 H   0  0  0  0  0  0  0  0  0  0  0  0
  1  2  1  0  0  0  0
  1  3  1  0  0  0  0
  1  4  1  0  0  0  0
  4  5  1  0  0  0  0
  4  6  1  0  0  0  0
  4  7  1  0  0  0  0
  7  8  1  0  0  0  0
  7  9  1  0  0  0  0
  7 10  1  0  0  0  0
 10 11  1  0  0  0  0
 10 12  1  0  0  0  0
 10 13  1  0  0  0  0
 13 14  1  0  0  0  0
 13 15  1  0  0  0  0
 15 16  1  0  0  0  0
 15 17  1  0  0  0  0
 15 18  1  0  0  0  0
 18 19  1  0  0  0  0
 18 20  1  0  0  0  0
  1 21  1  0  0  0  0
 18 21  1  0  0  0  0
 21 22  1  0  0  0  0
 21 23  1  0  0  0  0
 13 24  1  0  0  0  0
 24 25  1  0  0  0  0
M  END
> <VConfSearch Rank>
933

> <Conf_Id>
162

> <Delta U+W>
0.219

> <U+W>
11.132

> <U>
13.296

> <W>
-2.164

> <W(PB)>
-4.311

> <W(SA)>
2.148

> <Valence>
18.607

> <Coulomb>
-8.339

> <VdW>
3.028

> <VdW6>
-12.271

> <VdW12>
15.299

> <Bond>
0.423

> <Angle>
4.488

> <Pdih>
13.696

> <Idih>
0.000

> <Tether>
0.000

$$$$
VeraChem MOL file


 25 25  0  0  0  0  0  0  0  0999 V2000     
   18.8572   18.7686   21.4230 C   0  0  0  0  0  0  0  0  0  0  0  0
   18.9067   17.7462   21.8185 H   0  0  0  0  0  0  0  0  0  0  0  0
   18.0229   18.7519   20.7084 H   0  0  0  0  0  0  0  0  0  0  0  0
   18.4942   19.7577   22.5586 C   0  0  0  0  0  0  0  0  0  0  0  0
   18.7804   20.7831   22.2888 H   0  0  0  0  0  0  0  0  0  0  0  0
   17.3979   19.7715   22.6306 H   0  0  0  0  0  0  0  0  0  0  0  0
   19.0327   19.3763   23.9658 C   0  0  0  0  0  0  0  0  0  0  0  0
   19.0017   18.2896   24.1214 H   0  0  0  0  0  0  0  0  0  0  0  0
   18.3292   19.7946   24.6987 H   0  0  0  0  0  0  0  0  0  0  0  0
   20.4333   19.9439   24.3142 C   0  0  0  0  0  0  0  0  0  0  0  0
   20.5652   20.9277   23.8473 H   0  0  0  0  0  0  0  0  0  0  0  0
   20.4569   20.1384   25.3944 H   0  0  0  0  0  0  0  0  0  0  0  0
   21.6437   19.0272   24.0046 C   0  0  0  0  0  0  0  0  0  0  0  0
   21.6240   18.1911   24.7185 H   0  0  0  0  0  0  0  0  0  0  0  0
   21.6954   18.4173   22.5835 C   0  0  0  0  0  0  0  0  0  0  0  0
   22.6879   17.9745   22.4291 H   0  0  0  0  0  0  0  0  0  0  0  0
   21.0072   17.5665   22.5365 H   0  0  0  0  0  0  0  0  0  0  0  0
   21.4132   19.4214   21.4347 C   0  0  0  0  0  0  0  0  0  0  0  0
   22.2713   19.4237   20.7491 H   0  0  0  0  0  0  0  0  0  0  0  0
   21.3586   20.4478   21.8165 H   0  0  0  0  0  0  0  0  0  0  0  0
   20.1387   19.1052   20.6153 C   0  0  0  0  0  0  0  0  0  0  0  0
   20.3514   18.2612   19.9451 H   0  0  0  0  0  0  0  0  0  0  0  0
   19.9306   19.9618   19.9599 H   0  0  0  0  0  0  0  0  0  0  0  0
   22.8286   19.7860   24.2153 O   0  0  0  0  0  0  0  0  0  0  0  0
   23.5820   19.1938   24.0132 H   0  0  0  0  0  0  0  0  0  0  0  0
  1  2  1  0  0  0  0
  1  3  1  0  0  0  0
  1  4  1  0  0  0  0
  4  5  1  0  0  0  0
  4  6  1  0  0  0  0
  4  7  1  0  0  0  0
  7  8  1  0  0  0  0
  7  9  1  0  0  0  0
  7 10  1  0  0  0  0
 10 11  1  0  0  0  0
 10 12  1  0  0  0  0
 10 13  1  0  0  0  0
 13 14  1  0  0  0  0
 13 15  1  0  0  0  0
 15 16  1  0  0  0  0
 15 17  1  0  0  0  0
 15 18  1  0  0  0  0
 18 19  1  0  0  0  0
 18 20  1  0  0  0  0
  1 21  1  0  0  0  0
 18 21  1  0  0  0  0
 21 22  1  0  0  0  0
 21 23  1  0  0  0  0
 13 24  1  0  0  0  0
 24 25  1  0  0  0  0
M  END
> <VConfSearch Rank>
934

> <Conf_Id>
155

> <Delta U+W>
0.339

> <U+W>
11.252

> <U>
13.420

> <W>
-2.167

> <W(PB)>
-4.325

> <W(SA)>
2.157

> <Valence>
18.609

> <Coulomb>
-8.052

> <VdW>
2.863

> <VdW6>
-12.524

> <VdW12>
15.387

> <Bond>
0.430

> <Angle>
4.724

> <Pdih>
13.455

> <Idih>
0.000

> <Tether>
0.000

$$$$
VeraChem MOL file


 25 25  0  0  0  0  0  0  0  0999 V2000     
   21.9051   19.4921   23.9166 C   0  0  0  0  0  0  0  0  0  0  0  0
   22.8762   19.5962   23.4142 H   0  0  0  0  0  0  0  0  0  0  0  0
   22.1189   19.5922   24.9895 H   0  0  0  0  0  0  0  0  0  0  0  0
   20.9964   20.6869   23.5248 C   0  0  0  0  0  0  0  0  0  0  0  0
   20.0742   20.6480   24.1132 H   0  0  0  0  0  0  0  0  0  0  0  0
   21.4863   21.6054   23.8756 H   0  0  0  0  0  0  0  0  0  0  0  0
   20.6807   20.8859   22.0135 C   0  0  0  0  0  0  0  0  0  0  0  0
   21.4966   21.4819   21.5827 H   0  0  0  0  0  0  0  0  0  0  0  0
   19.7801   21.5076   21.9168 H   0  0  0  0  0  0  0  0  0  0  0  0
   20.5238   19.6220   21.1248 C   0  0  0  0  0  0  0  0  0  0  0  0
   20.4484   19.9607   20.0833 H   0  0  0  0  0  0  0  0  0  0  0  0
   21.4601   19.0572   21.1349 H   0  0  0  0  0  0  0  0  0  0  0  0
   19.3194   18.6762   21.4065 C   0  0  0  0  0  0  0  0  0  0  0  0
   19.5768   17.6810   21.0167 H   0  0  0  0  0  0  0  0  0  0  0  0
   18.8648   18.5081   22.8780 C   0  0  0  0  0  0  0  0  0  0  0  0
   18.5438   19.4792   23.2660 H   0  0  0  0  0  0  0  0  0  0  0  0
   17.9416   17.9137   22.8722 H   0  0  0  0  0  0  0  0  0  0  0  0
   19.8459   17.8121   23.8687 C   0  0  0  0  0  0  0  0  0  0  0  0
   19.6789   16.7291   23.7904 H   0  0  0  0  0  0  0  0  0  0  0  0
   19.5616   18.0784   24.8957 H   0  0  0  0  0  0  0  0  0  0  0  0
   21.3675   18.0499   23.6825 C   0  0  0  0  0  0  0  0  0  0  0  0
   21.6770   17.6732   22.7025 H   0  0  0  0  0  0  0  0  0  0  0  0
   21.8941   17.3919   24.3873 H   0  0  0  0  0  0  0  0  0  0  0  0
   18.1986   19.1697   20.6809 O   0  0  0  0  0  0  0  0  0  0  0  0
   18.4719   19.2264   19.7421 H   0  0  0  0  0  0  0  0  0  0  0  0
  1  2  1  0  0  0  0
  1  3  1  0  0  0  0
  1  4  1  0  0  0  0
  4  5  1  0  0  0  0
  4  6  1  0  0  0  0
  4  7  1  0  0  0  0
  7  8  1  0  0  0  0
  7  9  1  0  0  0  0
  7 10  1  0  0  0  0
 10 11  1  0  0  0  0
 10 12  1  0  0  0  0
 10 13  1  0  0  0  0
 13 14  1  0  0  0  0
 13 15  1  0  0  0  0
 15 16  1  0  0  0  0
 15 17  1  0  0  0  0
 15 18  1  0  0  0  0
 18 19  1  0  0  0  0
 18 20  1  0  0  0  0
  1 21  1  0  0  0  0
 18 21  1  0  0  0  0
 21 22  1  0  0  0  0
 21 23  1  0  0  0  0
 13 24  1  0  0  0  0
 24 25  1  0  0  0  0
M  END
> <VConfSearch Rank>
935

> <Conf_Id>
146

> <Delta U+W>
2.553

> <U+W>
13.466

> <U>
15.643

> <W>
-2.176

> <W(PB)>
-4.307

> <W(SA)>
2.131

> <Valence>
18.916

> <Coulomb>
-7.506

> <VdW>
4.232

> <VdW6>
-13.632

> <VdW12>
17.864

> <Bond>
0.735

> <Angle>
9.140

> <Pdih>
9.042

> <Idih>
0.000

> <Tether>
0.000

$$$$
VeraChem MOL file


 25 25  0  0  0  0  0  0  0  0999 V2000     
   22.1926   18.4141   22.9408 C   0  0  0  0  0  0  0  0  0  0  0  0
   23.1141   18.8915   22.5811 H   0  0  0  0  0  0  0  0  0  0  0  0
   22.5122   17.4822   23.4271 H   0  0  0  0  0  0  0  0  0  0  0  0
   21.3116   18.0239   21.7276 C   0  0  0  0  0  0  0  0  0  0  0  0
   21.8903   17.3157   21.1192 H   0  0  0  0  0  0  0  0  0  0  0  0
   20.4376   17.4520   22.0595 H   0  0  0  0  0  0  0  0  0  0  0  0
   20.8805   19.1845   20.7962 C   0  0  0  0  0  0  0  0  0  0  0  0
   20.3689   18.7413   19.9308 H   0  0  0  0  0  0  0  0  0  0  0  0
   21.7750   19.6779   20.3927 H   0  0  0  0  0  0  0  0  0  0  0  0
   19.9419   20.2606   21.4019 C   0  0  0  0  0  0  0  0  0  0  0  0
   20.5213   20.9923   21.9737 H   0  0  0  0  0  0  0  0  0  0  0  0
   19.5261   20.8351   20.5631 H   0  0  0  0  0  0  0  0  0  0  0  0
   18.7774   19.7084   22.2639 C   0  0  0  0  0  0  0  0  0  0  0  0
   18.6027   18.6532   22.0145 H   0  0  0  0  0  0  0  0  0  0  0  0
   18.9997   19.8446   23.7916 C   0  0  0  0  0  0  0  0  0  0  0  0
   19.2067   20.8955   24.0335 H   0  0  0  0  0  0  0  0  0  0  0  0
   18.0535   19.6055   24.2944 H   0  0  0  0  0  0  0  0  0  0  0  0
   20.0977   18.9468   24.4239 C   0  0  0  0  0  0  0  0  0  0  0  0
   19.8931   17.8859   24.2301 H   0  0  0  0  0  0  0  0  0  0  0  0
   20.0157   19.0598   25.5136 H   0  0  0  0  0  0  0  0  0  0  0  0
   21.5500   19.3166   24.0257 C   0  0  0  0  0  0  0  0  0  0  0  0
   22.1799   19.2404   24.9227 H   0  0  0  0  0  0  0  0  0  0  0  0
   21.6133   20.3719   23.7375 H   0  0  0  0  0  0  0  0  0  0  0  0
   17.6016   20.4421   21.9404 O   0  0  0  0  0  0  0  0  0  0  0  0
   16.8676   20.0403   22.4504 H   0  0  0  0  0  0  0  0  0  0  0  0
  1  2  1  0  0  0  0
  1  3  1  0  0  0  0
  1  4  1  0  0  0  0
  4  5  1  0  0  0  0
  4  6  1  0  0  0  0
  4  7  1  0  0  0  0
  7  8  1  0  0  0  0
  7  9  1  0  0  0  0
  7 10  1  0  0  0  0
 10 11  1  0  0  0  0
 10 12  1  0  0  0  0
 10 13  1  0  0  0  0
 13 14  1  0  0  0  0
 13 15  1  0  0  0  0
 15 16  1  0  0  0  0
 15 17  1  0  0  0  0
 15 18  1  0  0  0  0
 18 19  1  0  0  0  0
 18 20  1  0  0  0  0
  1 21  1  0  0  0  0
 18 21  1  0  0  0  0
 21 22  1  0  0  0  0
 21 23  1  0  0  0  0
 13 24  1  0  0  0  0
 24 25  1  0  0  0  0
M  END
> <VConfSearch Rank>
936

> <Conf_Id>
62

> <Delta U+W>
-1.779

> <U+W>
9.134

> <U>
11.364

> <W>
-2.230

> <W(PB)>
-4.359

> <W(SA)>
2.129

> <Valence>
16.582

> <Coulomb>
-8.150

> <VdW>
2.933

> <VdW6>
-12.531

> <VdW12>
15.464

> <Bond>
0.439

> <Angle>
5.099

> <Pdih>
11.044

> <Idih>
0.000

> <Tether>
0.000

$$$$
VeraChem MOL file


 25 25  0  0  0  0  0  0  0  0999 V2000     
   22.1967   19.1050   22.3143 C   0  0  0  0  0  0  0  0  0  0  0  0
   21.9166   18.0725   22.5524 H   0  0  0  0  0  0  0  0  0  0  0  0
   23.2774   19.0610   22.1224 H   0  0  0  0  0  0  0  0  0  0  0  0
   21.9851   20.0199   23.5463 C   0  0  0  0  0  0  0  0  0  0  0  0
   22.6185   19.6327   24.3561 H   0  0  0  0  0  0  0  0  0  0  0  0
   22.3698   21.0242   23.3228 H   0  0  0  0  0  0  0  0  0  0  0  0
   20.5403   20.1450   24.0936 C   0  0  0  0  0  0  0  0  0  0  0  0
   19.9763   20.8919   23.5236 H   0  0  0  0  0  0  0  0  0  0  0  0
   20.6129   20.5687   25.1046 H   0  0  0  0  0  0  0  0  0  0  0  0
   19.7469   18.8138   24.1816 C   0  0  0  0  0  0  0  0  0  0  0  0
   20.4249   17.9542   24.2497 H   0  0  0  0  0  0  0  0  0  0  0  0
   19.1984   18.8256   25.1326 H   0  0  0  0  0  0  0  0  0  0  0  0
   18.7080   18.5975   23.0524 C   0  0  0  0  0  0  0  0  0  0  0  0
   18.0546   19.4809   23.0114 H   0  0  0  0  0  0  0  0  0  0  0  0
   19.2756   18.3525   21.6319 C   0  0  0  0  0  0  0  0  0  0  0  0
   19.9380   17.4784   21.6280 H   0  0  0  0  0  0  0  0  0  0  0  0
   18.4275   18.0742   20.9923 H   0  0  0  0  0  0  0  0  0  0  0  0
   19.9643   19.5812   20.9795 C   0  0  0  0  0  0  0  0  0  0  0  0
   19.5858   20.5115   21.4179 H   0  0  0  0  0  0  0  0  0  0  0  0
   19.6552   19.6283   19.9264 H   0  0  0  0  0  0  0  0  0  0  0  0
   21.5142   19.5604   21.0004 C   0  0  0  0  0  0  0  0  0  0  0  0
   21.8879   20.5553   20.7230 H   0  0  0  0  0  0  0  0  0  0  0  0
   21.8513   18.8837   20.2033 H   0  0  0  0  0  0  0  0  0  0  0  0
   17.9223   17.4643   23.4002 O   0  0  0  0  0  0  0  0  0  0  0  0
   17.5137   17.6590   24.2693 H   0  0  0  0  0  0  0  0  0  0  0  0
  1  2  1  0  0  0  0
  1  3  1  0  0  0  0
  1  4  1  0  0  0  0
  4  5  1  0  0  0  0
  4  6  1  0  0  0  0
  4  7  1  0  0  0  0
  7  8  1  0  0  0  0
  7  9  1  0  0  0  0
  7 10  1  0  0  0  0
 10 11  1  0  0  0  0
 10 12  1  0  0  0  0
 10 13  1  0  0  0  0
 13 14  1  0  0  0  0
 13 15  1  0  0  0  0
 15 16  1  0  0  0  0
 15 17  1  0  0  0  0
 15 18  1  0  0  0  0
 18 19  1  0  0  0  0
 18 20  1  0  0  0  0
  1 21  1  0  0  0  0
 18 21  1  0  0  0  0
 21 22  1  0  0  0  0
 21 23  1  0  0  0  0
 13 24  1  0  0  0  0
 24 25  1  0  0  0  0
M  END
> <VConfSearch Rank>
937

> <Conf_Id>
121

> <Delta U+W>
-1.283

> <U+W>
9.630

> <U>
11.876

> <W>
-2.246

> <W(PB)>
-4.376

> <W(SA)>
2.130

> <Valence>
17.153

> <Coulomb>
-7.966

> <VdW>
2.689

> <VdW6>
-12.458

> <VdW12>
15.147

> <Bond>
0.421

> <Angle>
5.258

> <Pdih>
11.475

> <Idih>
0.000

> <Tether>
0.000

$$$$
VeraChem MOL file


 25 25  0  0  0  0  0  0  0  0999 V2000     
   21.1377   18.0073   23.8059 C   0  0  0  0  0  0  0  0  0  0  0  0
   21.5424   17.7662   22.8163 H   0  0  0  0  0  0  0  0  0  0  0  0
   21.6155   17.2865   24.4832 H   0  0  0  0  0  0  0  0  0  0  0  0
   19.6130   17.7360   23.8464 C   0  0  0  0  0  0  0  0  0  0  0  0
   19.4629   16.6703   23.6259 H   0  0  0  0  0  0  0  0  0  0  0  0
   19.2455   17.8818   24.8711 H   0  0  0  0  0  0  0  0  0  0  0  0
   18.7241   18.5507   22.8722 C   0  0  0  0  0  0  0  0  0  0  0  0
   18.4908   19.5344   23.2952 H   0  0  0  0  0  0  0  0  0  0  0  0
   17.7535   18.0394   22.8148 H   0  0  0  0  0  0  0  0  0  0  0  0
   19.2808   18.6963   21.4305 C   0  0  0  0  0  0  0  0  0  0  0  0
   19.9737   17.8812   21.1890 H   0  0  0  0  0  0  0  0  0  0  0  0
   18.4369   18.5715   20.7392 H   0  0  0  0  0  0  0  0  0  0  0  0
   19.9250   20.0689   21.1127 C   0  0  0  0  0  0  0  0  0  0  0  0
   19.2004   20.8544   21.3716 H   0  0  0  0  0  0  0  0  0  0  0  0
   21.2615   20.3854   21.8304 C   0  0  0  0  0  0  0  0  0  0  0  0
   22.0111   19.6175   21.6027 H   0  0  0  0  0  0  0  0  0  0  0  0
   21.6554   21.3125   21.3938 H   0  0  0  0  0  0  0  0  0  0  0  0
   21.1432   20.6137   23.3611 C   0  0  0  0  0  0  0  0  0  0  0  0
   20.1274   20.9284   23.6257 H   0  0  0  0  0  0  0  0  0  0  0  0
   21.7750   21.4714   23.6300 H   0  0  0  0  0  0  0  0  0  0  0  0
   21.5914   19.4218   24.2450 C   0  0  0  0  0  0  0  0  0  0  0  0
   21.2663   19.6026   25.2786 H   0  0  0  0  0  0  0  0  0  0  0  0
   22.6895   19.4204   24.2751 H   0  0  0  0  0  0  0  0  0  0  0  0
   20.1662   20.1140   19.7119 O   0  0  0  0  0  0  0  0  0  0  0  0
   20.5095   21.0098   19.5124 H   0  0  0  0  0  0  0  0  0  0  0  0
  1  2  1  0  0  0  0
  1  3  1  0  0  0  0
  1  4  1  0  0  0  0
  4  5  1  0  0  0  0
  4  6  1  0  0  0  0
  4  7  1  0  0  0  0
  7  8  1  0  0  0  0
  7  9  1  0  0  0  0
  7 10  1  0  0  0  0
 10 11  1  0  0  0  0
 10 12  1  0  0  0  0
 10 13  1  0  0  0  0
 13 14  1  0  0  0  0
 13 15  1  0  0  0  0
 15 16  1  0  0  0  0
 15 17  1  0  0  0  0
 15 18  1  0  0  0  0
 18 19  1  0  0  0  0
 18 20  1  0  0  0  0
  1 21  1  0  0  0  0
 18 21  1  0  0  0  0
 21 22  1  0  0  0  0
 21 23  1  0  0  0  0
 13 24  1  0  0  0  0
 24 25  1  0  0  0  0
M  END
> <VConfSearch Rank>
938

> <Conf_Id>
24

> <Delta U+W>
-1.236

> <U+W>
9.678

> <U>
11.876

> <W>
-2.199

> <W(PB)>
-4.335

> <W(SA)>
2.137

> <Valence>
17.153

> <Coulomb>
-7.966

> <VdW>
2.689

> <VdW6>
-12.458

> <VdW12>
15.147

> <Bond>
0.421

> <Angle>
5.258

> <Pdih>
11.475

> <Idih>
0.000

> <Tether>
0.000

$$$$
VeraChem MOL file


 25 25  0  0  0  0  0  0  0  0999 V2000     
   21.0502   17.2153   22.9624 C   0  0  0  0  0  0  0  0  0  0  0  0
   21.6099   16.6649   22.1939 H   0  0  0  0  0  0  0  0  0  0  0  0
   20.9562   16.5257   23.8124 H   0  0  0  0  0  0  0  0  0  0  0  0
   21.8963   18.4310   23.4253 C   0  0  0  0  0  0  0  0  0  0  0  0
   21.5379   18.8055   24.3926 H   0  0  0  0  0  0  0  0  0  0  0  0
   22.9090   18.0567   23.6288 H   0  0  0  0  0  0  0  0  0  0  0  0
   22.0152   19.6001   22.4164 C   0  0  0  0  0  0  0  0  0  0  0  0
   22.0361   19.2243   21.3845 H   0  0  0  0  0  0  0  0  0  0  0  0
   22.9991   20.0617   22.5779 H   0  0  0  0  0  0  0  0  0  0  0  0
   20.9560   20.7264   22.5827 C   0  0  0  0  0  0  0  0  0  0  0  0
   20.7254   20.8920   23.6428 H   0  0  0  0  0  0  0  0  0  0  0  0
   21.4294   21.6551   22.2357 H   0  0  0  0  0  0  0  0  0  0  0  0
   19.6547   20.5261   21.7682 C   0  0  0  0  0  0  0  0  0  0  0  0
   19.8917   19.9394   20.8708 H   0  0  0  0  0  0  0  0  0  0  0  0
   18.4911   19.8451   22.5325 C   0  0  0  0  0  0  0  0  0  0  0  0
   18.0782   20.5475   23.2684 H   0  0  0  0  0  0  0  0  0  0  0  0
   17.6854   19.6557   21.8110 H   0  0  0  0  0  0  0  0  0  0  0  0
   18.8154   18.5167   23.2612 C   0  0  0  0  0  0  0  0  0  0  0  0
   17.8657   18.0443   23.5469 H   0  0  0  0  0  0  0  0  0  0  0  0
   19.3185   18.7297   24.2115 H   0  0  0  0  0  0  0  0  0  0  0  0
   19.6341   17.5126   22.4111 C   0  0  0  0  0  0  0  0  0  0  0  0
   19.7070   17.8446   21.3689 H   0  0  0  0  0  0  0  0  0  0  0  0
   19.0835   16.5632   22.3622 H   0  0  0  0  0  0  0  0  0  0  0  0
   19.1912   21.8019   21.3451 O   0  0  0  0  0  0  0  0  0  0  0  0
   19.0060   22.3134   22.1593 H   0  0  0  0  0  0  0  0  0  0  0  0
  1  2  1  0  0  0  0
  1  3  1  0  0  0  0
  1  4  1  0  0  0  0
  4  5  1  0  0  0  0
  4  6  1  0  0  0  0
  4  7  1  0  0  0  0
  7  8  1  0  0  0  0
  7  9  1  0  0  0  0
  7 10  1  0  0  0  0
 10 11  1  0  0  0  0
 10 12  1  0  0  0  0
 10 13  1  0  0  0  0
 13 14  1  0  0  0  0
 13 15  1  0  0  0  0
 15 16  1  0  0  0  0
 15 17  1  0  0  0  0
 15 18  1  0  0  0  0
 18 19  1  0  0  0  0
 18 20  1  0  0  0  0
  1 21  1  0  0  0  0
 18 21  1  0  0  0  0
 21 22  1  0  0  0  0
 21 23  1  0  0  0  0
 13 24  1  0  0  0  0
 24 25  1  0  0  0  0
M  END
> <VConfSearch Rank>
939

> <Conf_Id>
167

> <Delta U+W>
0.388

> <U+W>
11.301

> <U>
13.202

> <W>
-1.901

> <W(PB)>
-4.065

> <W(SA)>
2.163

> <Valence>
18.957

> <Coulomb>
-8.753

> <VdW>
2.998

> <VdW6>
-12.294

> <VdW12>
15.292

> <Bond>
0.419

> <Angle>
4.543

> <Pdih>
13.996

> <Idih>
0.000

> <Tether>
0.000

$$$$
VeraChem MOL file


 25 25  0  0  0  0  0  0  0  0999 V2000     
   20.0500   19.5414   24.6802 C   0  0  0  0  0  0  0  0  0  0  0  0
   19.4482   18.8536   25.2895 H   0  0  0  0  0  0  0  0  0  0  0  0
   20.4343   20.2968   25.3793 H   0  0  0  0  0  0  0  0  0  0  0  0
   19.1198   20.2629   23.6706 C   0  0  0  0  0  0  0  0  0  0  0  0
   18.3858   19.5642   23.2538 H   0  0  0  0  0  0  0  0  0  0  0  0
   18.5174   20.9807   24.2442 H   0  0  0  0  0  0  0  0  0  0  0  0
   19.8398   21.0370   22.5361 C   0  0  0  0  0  0  0  0  0  0  0  0
   20.8503   21.3368   22.8424 H   0  0  0  0  0  0  0  0  0  0  0  0
   19.2956   21.9789   22.3821 H   0  0  0  0  0  0  0  0  0  0  0  0
   19.8738   20.3048   21.1668 C   0  0  0  0  0  0  0  0  0  0  0  0
   18.8497   20.0518   20.8626 H   0  0  0  0  0  0  0  0  0  0  0  0
   20.2363   21.0215   20.4180 H   0  0  0  0  0  0  0  0  0  0  0  0
   20.7609   19.0386   21.0723 C   0  0  0  0  0  0  0  0  0  0  0  0
   21.7769   19.2859   21.4082 H   0  0  0  0  0  0  0  0  0  0  0  0
   20.2226   17.8269   21.8765 C   0  0  0  0  0  0  0  0  0  0  0  0
   19.1472   17.9373   22.0489 H   0  0  0  0  0  0  0  0  0  0  0  0
   20.3083   16.9165   21.2685 H   0  0  0  0  0  0  0  0  0  0  0  0
   20.9542   17.5522   23.2159 C   0  0  0  0  0  0  0  0  0  0  0  0
   21.9067   17.0560   22.9849 H   0  0  0  0  0  0  0  0  0  0  0  0
   20.3723   16.8240   23.7970 H   0  0  0  0  0  0  0  0  0  0  0  0
   21.2714   18.7803   24.1059 C   0  0  0  0  0  0  0  0  0  0  0  0
   21.9400   19.4733   23.5825 H   0  0  0  0  0  0  0  0  0  0  0  0
   21.8612   18.4199   24.9597 H   0  0  0  0  0  0  0  0  0  0  0  0
   20.8258   18.6686   19.7001 O   0  0  0  0  0  0  0  0  0  0  0  0
   21.4436   17.9099   19.6428 H   0  0  0  0  0  0  0  0  0  0  0  0
  1  2  1  0  0  0  0
  1  3  1  0  0  0  0
  1  4  1  0  0  0  0
  4  5  1  0  0  0  0
  4  6  1  0  0  0  0
  4  7  1  0  0  0  0
  7  8  1  0  0  0  0
  7  9  1  0  0  0  0
  7 10  1  0  0  0  0
 10 11  1  0  0  0  0
 10 12  1  0  0  0  0
 10 13  1  0  0  0  0
 13 14  1  0  0  0  0
 13 15  1  0  0  0  0
 15 16  1  0  0  0  0
 15 17  1  0  0  0  0
 15 18  1  0  0  0  0
 18 19  1  0  0  0  0
 18 20  1  0  0  0  0
  1 21  1  0  0  0  0
 18 21  1  0  0  0  0
 21 22  1  0  0  0  0
 21 23  1  0  0  0  0
 13 24  1  0  0  0  0
 24 25  1  0  0  0  0
M  END
> <VConfSearch Rank>
940

> <Conf_Id>
60

> <Delta U+W>
-1.838

> <U+W>
9.075

> <U>
11.150

> <W>
-2.074

> <W(PB)>
-4.196

> <W(SA)>
2.121

> <Valence>
16.582

> <Coulomb>
-8.361

> <VdW>
2.928

> <VdW6>
-12.539

> <VdW12>
15.467

> <Bond>
0.441

> <Angle>
5.093

> <Pdih>
11.049

> <Idih>
0.000

> <Tether>
0.000

$$$$
VeraChem MOL file


 25 25  0  0  0  0  0  0  0  0999 V2000     
   20.5188   21.0541   21.7947 C   0  0  0  0  0  0  0  0  0  0  0  0
   21.4397   21.6419   21.9085 H   0  0  0  0  0  0  0  0  0  0  0  0
   19.8376   21.6827   21.2051 H   0  0  0  0  0  0  0  0  0  0  0  0
   19.8688   20.8478   23.1859 C   0  0  0  0  0  0  0  0  0  0  0  0
   19.6325   21.8434   23.5857 H   0  0  0  0  0  0  0  0  0  0  0  0
   18.8954   20.3548   23.0820 H   0  0  0  0  0  0  0  0  0  0  0  0
   20.7368   20.1222   24.2447 C   0  0  0  0  0  0  0  0  0  0  0  0
   20.1926   20.1559   25.1985 H   0  0  0  0  0  0  0  0  0  0  0  0
   21.6608   20.6929   24.4088 H   0  0  0  0  0  0  0  0  0  0  0  0
   21.1033   18.6431   23.9571 C   0  0  0  0  0  0  0  0  0  0  0  0
   21.9555   18.5912   23.2720 H   0  0  0  0  0  0  0  0  0  0  0  0
   21.4820   18.2154   24.8949 H   0  0  0  0  0  0  0  0  0  0  0  0
   19.9371   17.7707   23.4246 C   0  0  0  0  0  0  0  0  0  0  0  0
   18.9769   18.2469   23.6644 H   0  0  0  0  0  0  0  0  0  0  0  0
   19.9987   17.4936   21.9018 C   0  0  0  0  0  0  0  0  0  0  0  0
   20.9710   17.0476   21.6549 H   0  0  0  0  0  0  0  0  0  0  0  0
   19.2523   16.7212   21.6738 H   0  0  0  0  0  0  0  0  0  0  0  0
   19.7283   18.6973   20.9583 C   0  0  0  0  0  0  0  0  0  0  0  0
   18.7421   19.1355   21.1591 H   0  0  0  0  0  0  0  0  0  0  0  0
   19.6611   18.2957   19.9380 H   0  0  0  0  0  0  0  0  0  0  0  0
   20.8327   19.7860   20.9588 C   0  0  0  0  0  0  0  0  0  0  0  0
   20.9883   20.1144   19.9220 H   0  0  0  0  0  0  0  0  0  0  0  0
   21.7961   19.3563   21.2552 H   0  0  0  0  0  0  0  0  0  0  0  0
   19.9848   16.5120   24.0860 O   0  0  0  0  0  0  0  0  0  0  0  0
   19.8756   16.6935   25.0429 H   0  0  0  0  0  0  0  0  0  0  0  0
  1  2  1  0  0  0  0
  1  3  1  0  0  0  0
  1  4  1  0  0  0  0
  4  5  1  0  0  0  0
  4  6  1  0  0  0  0
  4  7  1  0  0  0  0
  7  8  1  0  0  0  0
  7  9  1  0  0  0  0
  7 10  1  0  0  0  0
 10 11  1  0  0  0  0
 10 12  1  0  0  0  0
 10 13  1  0  0  0  0
 13 14  1  0  0  0  0
 13 15  1  0  0  0  0
 15 16  1  0  0  0  0
 15 17  1  0  0  0  0
 15 18  1  0  0  0  0
 18 19  1  0  0  0  0
 18 20  1  0  0  0  0
  1 21  1  0  0  0  0
 18 21  1  0  0  0  0
 21 22  1  0  0  0  0
 21 23  1  0  0  0  0
 13 24  1  0  0  0  0
 24 25  1  0  0  0  0
M  END
> <VConfSearch Rank>
941

> <Conf_Id>
129

> <Delta U+W>
-1.846

> <U+W>
9.067

> <U>
11.150

> <W>
-2.083

> <W(PB)>
-4.217

> <W(SA)>
2.134

> <Valence>
16.583

> <Coulomb>
-8.361

> <VdW>
2.928

> <VdW6>
-12.539

> <VdW12>
15.467

> <Bond>
0.441

> <Angle>
5.093

> <Pdih>
11.049

> <Idih>
0.000

> <Tether>
0.000

$$$$
VeraChem MOL file


 25 25  0  0  0  0  0  0  0  0999 V2000     
   21.4779   20.8712   22.4436 C   0  0  0  0  0  0  0  0  0  0  0  0
   21.1224   21.8701   22.7307 H   0  0  0  0  0  0  0  0  0  0  0  0
   22.5071   21.0144   22.0872 H   0  0  0  0  0  0  0  0  0  0  0  0
   20.6417   20.3554   21.2458 C   0  0  0  0  0  0  0  0  0  0  0  0
   20.7915   21.0601   20.4165 H   0  0  0  0  0  0  0  0  0  0  0  0
   21.0480   19.4065   20.8775 H   0  0  0  0  0  0  0  0  0  0  0  0
   19.1145   20.2388   21.4791 C   0  0  0  0  0  0  0  0  0  0  0  0
   18.6524   19.9769   20.5174 H   0  0  0  0  0  0  0  0  0  0  0  0
   18.7114   21.2256   21.7441 H   0  0  0  0  0  0  0  0  0  0  0  0
   18.6407   19.2022   22.5309 C   0  0  0  0  0  0  0  0  0  0  0  0
   18.7213   19.6227   23.5385 H   0  0  0  0  0  0  0  0  0  0  0  0
   17.5627   19.0593   22.3757 H   0  0  0  0  0  0  0  0  0  0  0  0
   19.3535   17.8266   22.4640 C   0  0  0  0  0  0  0  0  0  0  0  0
   19.8123   17.6953   21.4750 H   0  0  0  0  0  0  0  0  0  0  0  0
   20.4292   17.6130   23.5585 C   0  0  0  0  0  0  0  0  0  0  0  0
   19.9811   17.7734   24.5478 H   0  0  0  0  0  0  0  0  0  0  0  0
   20.7251   16.5556   23.5333 H   0  0  0  0  0  0  0  0  0  0  0  0
   21.7253   18.4602   23.4427 C   0  0  0  0  0  0  0  0  0  0  0  0
   22.2192   18.2867   22.4779 H   0  0  0  0  0  0  0  0  0  0  0  0
   22.4269   18.0776   24.1965 H   0  0  0  0  0  0  0  0  0  0  0  0
   21.5366   19.9762   23.7085 C   0  0  0  0  0  0  0  0  0  0  0  0
   22.3863   20.3255   24.3112 H   0  0  0  0  0  0  0  0  0  0  0  0
   20.6619   20.1496   24.3453 H   0  0  0  0  0  0  0  0  0  0  0  0
   18.3734   16.8099   22.6312 O   0  0  0  0  0  0  0  0  0  0  0  0
   17.9830   16.9454   23.5190 H   0  0  0  0  0  0  0  0  0  0  0  0
  1  2  1  0  0  0  0
  1  3  1  0  0  0  0
  1  4  1  0  0  0  0
  4  5  1  0  0  0  0
  4  6  1  0  0  0  0
  4  7  1  0  0  0  0
  7  8  1  0  0  0  0
  7  9  1  0  0  0  0
  7 10  1  0  0  0  0
 10 11  1  0  0  0  0
 10 12  1  0  0  0  0
 10 13  1  0  0  0  0
 13 14  1  0  0  0  0
 13 15  1  0  0  0  0
 15 16  1  0  0  0  0
 15 17  1  0  0  0  0
 15 18  1  0  0  0  0
 18 19  1  0  0  0  0
 18 20  1  0  0  0  0
  1 21  1  0  0  0  0
 18 21  1  0  0  0  0
 21 22  1  0  0  0  0
 21 23  1  0  0  0  0
 13 24  1  0  0  0  0
 24 25  1  0  0  0  0
M  END
> <VConfSearch Rank>
942

> <Conf_Id>
140

> <Delta U+W>
-1.702

> <U+W>
9.211

> <U>
11.181

> <W>
-1.969

> <W(PB)>
-4.093

> <W(SA)>
2.124

> <Valence>
16.954

> <Coulomb>
-8.661

> <VdW>
2.887

> <VdW6>
-12.561

> <VdW12>
15.448

> <Bond>
0.433

> <Angle>
5.120

> <Pdih>
11.401

> <Idih>
0.000

> <Tether>
0.000

$$$$
VeraChem MOL file


 25 25  0  0  0  0  0  0  0  0999 V2000     
   19.6608   19.0285   20.6858 C   0  0  0  0  0  0  0  0  0  0  0  0
   19.2114   18.1012   20.3055 H   0  0  0  0  0  0  0  0  0  0  0  0
   19.6789   19.7203   19.8325 H   0  0  0  0  0  0  0  0  0  0  0  0
   21.1295   18.7443   21.0941 C   0  0  0  0  0  0  0  0  0  0  0  0
   21.2084   17.7777   21.6042 H   0  0  0  0  0  0  0  0  0  0  0  0
   21.7018   18.6105   20.1659 H   0  0  0  0  0  0  0  0  0  0  0  0
   21.8157   19.8577   21.9271 C   0  0  0  0  0  0  0  0  0  0  0  0
   21.3515   20.8345   21.7395 H   0  0  0  0  0  0  0  0  0  0  0  0
   22.8469   19.9557   21.5611 H   0  0  0  0  0  0  0  0  0  0  0  0
   21.9010   19.5716   23.4509 C   0  0  0  0  0  0  0  0  0  0  0  0
   22.4072   18.6104   23.6092 H   0  0  0  0  0  0  0  0  0  0  0  0
   22.5602   20.3317   23.8912 H   0  0  0  0  0  0  0  0  0  0  0  0
   20.5686   19.5893   24.2417 C   0  0  0  0  0  0  0  0  0  0  0  0
   20.0505   20.5397   24.0567 H   0  0  0  0  0  0  0  0  0  0  0  0
   19.6202   18.4057   23.9189 C   0  0  0  0  0  0  0  0  0  0  0  0
   20.1880   17.5667   23.5039 H   0  0  0  0  0  0  0  0  0  0  0  0
   19.1951   18.0169   24.8542 H   0  0  0  0  0  0  0  0  0  0  0  0
   18.4268   18.7547   22.9919 C   0  0  0  0  0  0  0  0  0  0  0  0
   17.6719   19.2749   23.5973 H   0  0  0  0  0  0  0  0  0  0  0  0
   17.9502   17.8231   22.6579 H   0  0  0  0  0  0  0  0  0  0  0  0
   18.7304   19.6445   21.7605 C   0  0  0  0  0  0  0  0  0  0  0  0
   19.1090   20.6231   22.0771 H   0  0  0  0  0  0  0  0  0  0  0  0
   17.7708   19.8645   21.2731 H   0  0  0  0  0  0  0  0  0  0  0  0
   20.8974   19.5310   25.6239 O   0  0  0  0  0  0  0  0  0  0  0  0
   21.3605   18.6793   25.7624 H   0  0  0  0  0  0  0  0  0  0  0  0
  1  2  1  0  0  0  0
  1  3  1  0  0  0  0
  1  4  1  0  0  0  0
  4  5  1  0  0  0  0
  4  6  1  0  0  0  0
  4  7  1  0  0  0  0
  7  8  1  0  0  0  0
  7  9  1  0  0  0  0
  7 10  1  0  0  0  0
 10 11  1  0  0  0  0
 10 12  1  0  0  0  0
 10 13  1  0  0  0  0
 13 14  1  0  0  0  0
 13 15  1  0  0  0  0
 15 16  1  0  0  0  0
 15 17  1  0  0  0  0
 15 18  1  0  0  0  0
 18 19  1  0  0  0  0
 18 20  1  0  0  0  0
  1 21  1  0  0  0  0
 18 21  1  0  0  0  0
 21 22  1  0  0  0  0
 21 23  1  0  0  0  0
 13 24  1  0  0  0  0
 24 25  1  0  0  0  0
M  END
> <VConfSearch Rank>
943

> <Conf_Id>
68

> <Delta U+W>
-1.765

> <U+W>
9.148

> <U>
11.181

> <W>
-2.032

> <W(PB)>
-4.147

> <W(SA)>
2.114

> <Valence>
16.955

> <Coulomb>
-8.661

> <VdW>
2.887

> <VdW6>
-12.561

> <VdW12>
15.448

> <Bond>
0.433

> <Angle>
5.121

> <Pdih>
11.402

> <Idih>
0.000

> <Tether>
0.000

$$$$
VeraChem MOL file


 25 25  0  0  0  0  0  0  0  0999 V2000     
   21.7900   20.2186   22.8358 C   0  0  0  0  0  0  0  0  0  0  0  0
   22.7493   20.7294   22.9967 H   0  0  0  0  0  0  0  0  0  0  0  0
   21.0965   21.0228   22.5654 H   0  0  0  0  0  0  0  0  0  0  0  0
   21.3657   19.5594   24.1740 C   0  0  0  0  0  0  0  0  0  0  0  0
   21.6812   18.5090   24.2153 H   0  0  0  0  0  0  0  0  0  0  0  0
   21.9242   20.0571   24.9787 H   0  0  0  0  0  0  0  0  0  0  0  0
   19.8592   19.6957   24.5181 C   0  0  0  0  0  0  0  0  0  0  0  0
   19.5799   20.7583   24.5171 H   0  0  0  0  0  0  0  0  0  0  0  0
   19.7215   19.3563   25.5538 H   0  0  0  0  0  0  0  0  0  0  0  0
   18.8664   18.9038   23.6259 C   0  0  0  0  0  0  0  0  0  0  0  0
   19.1114   17.8350   23.6383 H   0  0  0  0  0  0  0  0  0  0  0  0
   17.8812   18.9793   24.1057 H   0  0  0  0  0  0  0  0  0  0  0  0
   18.7497   19.4289   22.1715 C   0  0  0  0  0  0  0  0  0  0  0  0
   19.1180   20.4606   22.1334 H   0  0  0  0  0  0  0  0  0  0  0  0
   19.5000   18.5824   21.1139 C   0  0  0  0  0  0  0  0  0  0  0  0
   18.9080   17.6818   20.9045 H   0  0  0  0  0  0  0  0  0  0  0  0
   19.5285   19.1485   20.1738 H   0  0  0  0  0  0  0  0  0  0  0  0
   20.9371   18.1196   21.4671 C   0  0  0  0  0  0  0  0  0  0  0  0
   21.2837   17.4752   20.6477 H   0  0  0  0  0  0  0  0  0  0  0  0
   20.9240   17.4655   22.3465 H   0  0  0  0  0  0  0  0  0  0  0  0
   21.9891   19.2425   21.6472 C   0  0  0  0  0  0  0  0  0  0  0  0
   22.0637   19.8232   20.7178 H   0  0  0  0  0  0  0  0  0  0  0  0
   22.9671   18.7580   21.7727 H   0  0  0  0  0  0  0  0  0  0  0  0
   17.3753   19.4489   21.8061 O   0  0  0  0  0  0  0  0  0  0  0  0
   17.0600   18.5235   21.8631 H   0  0  0  0  0  0  0  0  0  0  0  0
  1  2  1  0  0  0  0
  1  3  1  0  0  0  0
  1  4  1  0  0  0  0
  4  5  1  0  0  0  0
  4  6  1  0  0  0  0
  4  7  1  0  0  0  0
  7  8  1  0  0  0  0
  7  9  1  0  0  0  0
  7 10  1  0  0  0  0
 10 11  1  0  0  0  0
 10 12  1  0  0  0  0
 10 13  1  0  0  0  0
 13 14  1  0  0  0  0
 13 15  1  0  0  0  0
 15 16  1  0  0  0  0
 15 17  1  0  0  0  0
 15 18  1  0  0  0  0
 18 19  1  0  0  0  0
 18 20  1  0  0  0  0
  1 21  1  0  0  0  0
 18 21  1  0  0  0  0
 21 22  1  0  0  0  0
 21 23  1  0  0  0  0
 13 24  1  0  0  0  0
 24 25  1  0  0  0  0
M  END
> <VConfSearch Rank>
944

> <Conf_Id>
165

> <Delta U+W>
-1.999

> <U+W>
8.915

> <U>
10.935

> <W>
-2.020

> <W(PB)>
-4.135

> <W(SA)>
2.115

> <Valence>
16.757

> <Coulomb>
-8.731

> <VdW>
2.908

> <VdW6>
-12.597

> <VdW12>
15.506

> <Bond>
0.434

> <Angle>
5.069

> <Pdih>
11.254

> <Idih>
0.000

> <Tether>
0.000

$$$$
VeraChem MOL file


 25 25  0  0  0  0  0  0  0  0999 V2000     
   18.9189   19.9771   23.5513 C   0  0  0  0  0  0  0  0  0  0  0  0
   18.0310   20.4025   24.0390 H   0  0  0  0  0  0  0  0  0  0  0  0
   19.7629   20.4078   24.1017 H   0  0  0  0  0  0  0  0  0  0  0  0
   18.9107   20.4728   22.0818 C   0  0  0  0  0  0  0  0  0  0  0  0
   17.8771   20.4117   21.7144 H   0  0  0  0  0  0  0  0  0  0  0  0
   19.1682   21.5405   22.0640 H   0  0  0  0  0  0  0  0  0  0  0  0
   19.8054   19.7124   21.0709 C   0  0  0  0  0  0  0  0  0  0  0  0
   19.6025   20.1301   20.0754 H   0  0  0  0  0  0  0  0  0  0  0  0
   19.4933   18.6642   20.9995 H   0  0  0  0  0  0  0  0  0  0  0  0
   21.3346   19.8076   21.3084 C   0  0  0  0  0  0  0  0  0  0  0  0
   21.8302   19.3169   20.4598 H   0  0  0  0  0  0  0  0  0  0  0  0
   21.6350   20.8624   21.2657 H   0  0  0  0  0  0  0  0  0  0  0  0
   21.8869   19.1874   22.6153 C   0  0  0  0  0  0  0  0  0  0  0  0
   21.6865   19.8676   23.4514 H   0  0  0  0  0  0  0  0  0  0  0  0
   21.3161   17.7870   22.9577 C   0  0  0  0  0  0  0  0  0  0  0  0
   20.9340   17.2905   22.0579 H   0  0  0  0  0  0  0  0  0  0  0  0
   22.1418   17.1515   23.3057 H   0  0  0  0  0  0  0  0  0  0  0  0
   20.2417   17.7847   24.0778 C   0  0  0  0  0  0  0  0  0  0  0  0
   20.6558   18.2578   24.9787 H   0  0  0  0  0  0  0  0  0  0  0  0
   20.0512   16.7391   24.3556 H   0  0  0  0  0  0  0  0  0  0  0  0
   18.8768   18.4375   23.7348 C   0  0  0  0  0  0  0  0  0  0  0  0
   18.1997   18.2234   24.5731 H   0  0  0  0  0  0  0  0  0  0  0  0
   18.4186   17.9480   22.8658 H   0  0  0  0  0  0  0  0  0  0  0  0
   23.2985   19.0771   22.4711 O   0  0  0  0  0  0  0  0  0  0  0  0
   23.6363   19.9811   22.3003 H   0  0  0  0  0  0  0  0  0  0  0  0
  1  2  1  0  0  0  0
  1  3  1  0  0  0  0
  1  4  1  0  0  0  0
  4  5  1  0  0  0  0
  4  6  1  0  0  0  0
  4  7  1  0  0  0  0
  7  8  1  0  0  0  0
  7  9  1  0  0  0  0
  7 10  1  0  0  0  0
 10 11  1  0  0  0  0
 10 12  1  0  0  0  0
 10 13  1  0  0  0  0
 13 14  1  0  0  0  0
 13 15  1  0  0  0  0
 15 16  1  0  0  0  0
 15 17  1  0  0  0  0
 15 18  1  0  0  0  0
 18 19  1  0  0  0  0
 18 20  1  0  0  0  0
  1 21  1  0  0  0  0
 18 21  1  0  0  0  0
 21 22  1  0  0  0  0
 21 23  1  0  0  0  0
 13 24  1  0  0  0  0
 24 25  1  0  0  0  0
M  END
> <VConfSearch Rank>
945

> <Conf_Id>
133

> <Delta U+W>
-2.139

> <U+W>
8.774

> <U>
10.905

> <W>
-2.131

> <W(PB)>
-4.281

> <W(SA)>
2.150

> <Valence>
16.378

> <Coulomb>
-8.448

> <VdW>
2.976

> <VdW6>
-12.570

> <VdW12>
15.545

> <Bond>
0.439

> <Angle>
5.049

> <Pdih>
10.889

> <Idih>
0.000

> <Tether>
0.000

$$$$
VeraChem MOL file


 25 25  0  0  0  0  0  0  0  0999 V2000     
   19.0421   20.2878   21.8197 C   0  0  0  0  0  0  0  0  0  0  0  0
   18.2434   20.9078   21.3898 H   0  0  0  0  0  0  0  0  0  0  0  0
   19.7538   20.1541   20.9973 H   0  0  0  0  0  0  0  0  0  0  0  0
   18.4242   18.9265   22.2328 C   0  0  0  0  0  0  0  0  0  0  0  0
   18.1369   18.9277   23.2921 H   0  0  0  0  0  0  0  0  0  0  0  0
   17.4810   18.8112   21.6813 H   0  0  0  0  0  0  0  0  0  0  0  0
   19.2966   17.6873   21.9008 C   0  0  0  0  0  0  0  0  0  0  0  0
   19.5290   17.6824   20.8271 H   0  0  0  0  0  0  0  0  0  0  0  0
   18.6841   16.7919   22.0734 H   0  0  0  0  0  0  0  0  0  0  0  0
   20.6106   17.5233   22.7103 C   0  0  0  0  0  0  0  0  0  0  0  0
   20.3982   17.4941   23.7856 H   0  0  0  0  0  0  0  0  0  0  0  0
   21.0113   16.5289   22.4712 H   0  0  0  0  0  0  0  0  0  0  0  0
   21.7000   18.5797   22.3914 C   0  0  0  0  0  0  0  0  0  0  0  0
   21.4810   19.0341   21.4181 H   0  0  0  0  0  0  0  0  0  0  0  0
   21.8477   19.6956   23.4547 C   0  0  0  0  0  0  0  0  0  0  0  0
   22.3954   19.2820   24.3122 H   0  0  0  0  0  0  0  0  0  0  0  0
   22.4839   20.4902   23.0439 H   0  0  0  0  0  0  0  0  0  0  0  0
   20.5427   20.3307   24.0002 C   0  0  0  0  0  0  0  0  0  0  0  0
   20.8290   21.0402   24.7885 H   0  0  0  0  0  0  0  0  0  0  0  0
   19.9357   19.5768   24.5144 H   0  0  0  0  0  0  0  0  0  0  0  0
   19.6811   21.1058   22.9720 C   0  0  0  0  0  0  0  0  0  0  0  0
   20.2757   21.9233   22.5420 H   0  0  0  0  0  0  0  0  0  0  0  0
   18.8676   21.5923   23.5274 H   0  0  0  0  0  0  0  0  0  0  0  0
   22.9559   17.9177   22.2914 O   0  0  0  0  0  0  0  0  0  0  0  0
   23.6156   18.5995   22.0457 H   0  0  0  0  0  0  0  0  0  0  0  0
  1  2  1  0  0  0  0
  1  3  1  0  0  0  0
  1  4  1  0  0  0  0
  4  5  1  0  0  0  0
  4  6  1  0  0  0  0
  4  7  1  0  0  0  0
  7  8  1  0  0  0  0
  7  9  1  0  0  0  0
  7 10  1  0  0  0  0
 10 11  1  0  0  0  0
 10 12  1  0  0  0  0
 10 13  1  0  0  0  0
 13 14  1  0  0  0  0
 13 15  1  0  0  0  0
 15 16  1  0  0  0  0
 15 17  1  0  0  0  0
 15 18  1  0  0  0  0
 18 19  1  0  0  0  0
 18 20  1  0  0  0  0
  1 21  1  0  0  0  0
 18 21  1  0  0  0  0
 21 22  1  0  0  0  0
 21 23  1  0  0  0  0
 13 24  1  0  0  0  0
 24 25  1  0  0  0  0
M  END
> <VConfSearch Rank>
946

> <Conf_Id>
95

> <Delta U+W>
-2.190

> <U+W>
8.723

> <U>
10.905

> <W>
-2.182

> <W(PB)>
-4.296

> <W(SA)>
2.114

> <Valence>
16.377

> <Coulomb>
-8.448

> <VdW>
2.976

> <VdW6>
-12.570

> <VdW12>
15.546

> <Bond>
0.439

> <Angle>
5.049

> <Pdih>
10.889

> <Idih>
0.000

> <Tether>
0.000

$$$$
VeraChem MOL file


 25 25  0  0  0  0  0  0  0  0999 V2000     
   18.9965   17.9261   22.3486 C   0  0  0  0  0  0  0  0  0  0  0  0
   18.1718   17.2523   22.0790 H   0  0  0  0  0  0  0  0  0  0  0  0
   19.3179   17.5552   23.3270 H   0  0  0  0  0  0  0  0  0  0  0  0
   18.3951   19.3576   22.4652 C   0  0  0  0  0  0  0  0  0  0  0  0
   17.6038   19.4433   21.7081 H   0  0  0  0  0  0  0  0  0  0  0  0
   17.8844   19.4518   23.4331 H   0  0  0  0  0  0  0  0  0  0  0  0
   19.3428   20.5695   22.2659 C   0  0  0  0  0  0  0  0  0  0  0  0
   18.7250   21.4779   22.2652 H   0  0  0  0  0  0  0  0  0  0  0  0
   19.7574   20.5414   21.2533 H   0  0  0  0  0  0  0  0  0  0  0  0
   20.4690   20.7811   23.3211 C   0  0  0  0  0  0  0  0  0  0  0  0
   21.2537   21.4103   22.8810 H   0  0  0  0  0  0  0  0  0  0  0  0
   20.0365   21.3737   24.1378 H   0  0  0  0  0  0  0  0  0  0  0  0
   21.1221   19.5286   23.9584 C   0  0  0  0  0  0  0  0  0  0  0  0
   20.3313   18.9372   24.4313 H   0  0  0  0  0  0  0  0  0  0  0  0
   21.9624   18.6166   23.0188 C   0  0  0  0  0  0  0  0  0  0  0  0
   22.9823   19.0221   22.9777 H   0  0  0  0  0  0  0  0  0  0  0  0
   22.0561   17.6299   23.4899 H   0  0  0  0  0  0  0  0  0  0  0  0
   21.4917   18.4315   21.5507 C   0  0  0  0  0  0  0  0  0  0  0  0
   22.2624   17.8506   21.0260 H   0  0  0  0  0  0  0  0  0  0  0  0
   21.5097   19.3997   21.0404 H   0  0  0  0  0  0  0  0  0  0  0  0
   20.1339   17.7070   21.3163 C   0  0  0  0  0  0  0  0  0  0  0  0
   20.3377   16.6279   21.2889 H   0  0  0  0  0  0  0  0  0  0  0  0
   19.7649   17.9602   20.3132 H   0  0  0  0  0  0  0  0  0  0  0  0
   21.9875   19.9806   24.9934 O   0  0  0  0  0  0  0  0  0  0  0  0
   21.4371   20.4999   25.6158 H   0  0  0  0  0  0  0  0  0  0  0  0
  1  2  1  0  0  0  0
  1  3  1  0  0  0  0
  1  4  1  0  0  0  0
  4  5  1  0  0  0  0
  4  6  1  0  0  0  0
  4  7  1  0  0  0  0
  7  8  1  0  0  0  0
  7  9  1  0  0  0  0
  7 10  1  0  0  0  0
 10 11  1  0  0  0  0
 10 12  1  0  0  0  0
 10 13  1  0  0  0  0
 13 14  1  0  0  0  0
 13 15  1  0  0  0  0
 15 16  1  0  0  0  0
 15 17  1  0  0  0  0
 15 18  1  0  0  0  0
 18 19  1  0  0  0  0
 18 20  1  0  0  0  0
  1 21  1  0  0  0  0
 18 21  1  0  0  0  0
 21 22  1  0  0  0  0
 21 23  1  0  0  0  0
 13 24  1  0  0  0  0
 24 25  1  0  0  0  0
M  END
> <VConfSearch Rank>
947

> <Conf_Id>
161

> <Delta U+W>
2.120

> <U+W>
13.033

> <U>
15.076

> <W>
-2.043

> <W(PB)>
-4.186

> <W(SA)>
2.143

> <Valence>
18.884

> <Coulomb>
-8.074

> <VdW>
4.266

> <VdW6>
-13.486

> <VdW12>
17.752

> <Bond>
0.713

> <Angle>
8.955

> <Pdih>
9.215

> <Idih>
0.000

> <Tether>
0.000

$$$$
VeraChem MOL file


 25 25  0  0  0  0  0  0  0  0999 V2000     
   19.0964   18.0164   23.6453 C   0  0  0  0  0  0  0  0  0  0  0  0
   18.3649   17.2609   23.9635 H   0  0  0  0  0  0  0  0  0  0  0  0
   19.2486   18.6479   24.5297 H   0  0  0  0  0  0  0  0  0  0  0  0
   18.4591   18.8488   22.5048 C   0  0  0  0  0  0  0  0  0  0  0  0
   18.6236   18.3675   21.5314 H   0  0  0  0  0  0  0  0  0  0  0  0
   17.3719   18.8229   22.6613 H   0  0  0  0  0  0  0  0  0  0  0  0
   18.8726   20.3464   22.4685 C   0  0  0  0  0  0  0  0  0  0  0  0
   18.9766   20.7536   23.4833 H   0  0  0  0  0  0  0  0  0  0  0  0
   18.0337   20.8962   22.0199 H   0  0  0  0  0  0  0  0  0  0  0  0
   20.1267   20.6670   21.6148 C   0  0  0  0  0  0  0  0  0  0  0  0
   20.1684   19.9962   20.7481 H   0  0  0  0  0  0  0  0  0  0  0  0
   19.9929   21.6705   21.1895 H   0  0  0  0  0  0  0  0  0  0  0  0
   21.4814   20.6852   22.3674 C   0  0  0  0  0  0  0  0  0  0  0  0
   21.4914   21.5677   23.0230 H   0  0  0  0  0  0  0  0  0  0  0  0
   21.7973   19.4523   23.2456 C   0  0  0  0  0  0  0  0  0  0  0  0
   22.8586   19.4919   23.5251 H   0  0  0  0  0  0  0  0  0  0  0  0
   21.2614   19.5458   24.1962 H   0  0  0  0  0  0  0  0  0  0  0  0
   21.5063   18.0818   22.5777 C   0  0  0  0  0  0  0  0  0  0  0  0
   22.4292   17.4860   22.5770 H   0  0  0  0  0  0  0  0  0  0  0  0
   21.2482   18.2023   21.5194 H   0  0  0  0  0  0  0  0  0  0  0  0
   20.4015   17.2592   23.2831 C   0  0  0  0  0  0  0  0  0  0  0  0
   20.8156   16.8309   24.2060 H   0  0  0  0  0  0  0  0  0  0  0  0
   20.1490   16.4026   22.6433 H   0  0  0  0  0  0  0  0  0  0  0  0
   22.5164   20.8196   21.4036 O   0  0  0  0  0  0  0  0  0  0  0  0
   22.5612   19.9605   20.9369 H   0  0  0  0  0  0  0  0  0  0  0  0
  1  2  1  0  0  0  0
  1  3  1  0  0  0  0
  1  4  1  0  0  0  0
  4  5  1  0  0  0  0
  4  6  1  0  0  0  0
  4  7  1  0  0  0  0
  7  8  1  0  0  0  0
  7  9  1  0  0  0  0
  7 10  1  0  0  0  0
 10 11  1  0  0  0  0
 10 12  1  0  0  0  0
 10 13  1  0  0  0  0
 13 14  1  0  0  0  0
 13 15  1  0  0  0  0
 15 16  1  0  0  0  0
 15 17  1  0  0  0  0
 15 18  1  0  0  0  0
 18 19  1  0  0  0  0
 18 20  1  0  0  0  0
  1 21  1  0  0  0  0
 18 21  1  0  0  0  0
 21 22  1  0  0  0  0
 21 23  1  0  0  0  0
 13 24  1  0  0  0  0
 24 25  1  0  0  0  0
M  END
> <VConfSearch Rank>
948

> <Conf_Id>
164

> <Delta U+W>
0.008

> <U+W>
10.922

> <U>
12.433

> <W>
-1.511

> <W(PB)>
-3.669

> <W(SA)>
2.157

> <Valence>
19.007

> <Coulomb>
-9.373

> <VdW>
2.799

> <VdW6>
-12.597

> <VdW12>
15.396

> <Bond>
0.425

> <Angle>
4.784

> <Pdih>
13.799

> <Idih>
0.000

> <Tether>
0.000

$$$$
VeraChem MOL file


 25 25  0  0  0  0  0  0  0  0999 V2000     
   19.1230   20.4677   23.1993 C   0  0  0  0  0  0  0  0  0  0  0  0
   20.0752   21.0006   23.0977 H   0  0  0  0  0  0  0  0  0  0  0  0
   18.4126   21.2337   23.5388 H   0  0  0  0  0  0  0  0  0  0  0  0
   19.2175   19.4002   24.3179 C   0  0  0  0  0  0  0  0  0  0  0  0
   19.4592   19.9242   25.2528 H   0  0  0  0  0  0  0  0  0  0  0  0
   18.2273   18.9520   24.4763 H   0  0  0  0  0  0  0  0  0  0  0  0
   20.2579   18.2670   24.1274 C   0  0  0  0  0  0  0  0  0  0  0  0
   19.8488   17.4712   23.4947 H   0  0  0  0  0  0  0  0  0  0  0  0
   20.4023   17.7919   25.1074 H   0  0  0  0  0  0  0  0  0  0  0  0
   21.6449   18.7225   23.6006 C   0  0  0  0  0  0  0  0  0  0  0  0
   21.8298   19.7762   23.8419 H   0  0  0  0  0  0  0  0  0  0  0  0
   22.4061   18.1594   24.1571 H   0  0  0  0  0  0  0  0  0  0  0  0
   21.8919   18.4507   22.0954 C   0  0  0  0  0  0  0  0  0  0  0  0
   21.6896   17.3876   21.9017 H   0  0  0  0  0  0  0  0  0  0  0  0
   21.0596   19.2906   21.0943 C   0  0  0  0  0  0  0  0  0  0  0  0
   21.2253   20.3630   21.2531 H   0  0  0  0  0  0  0  0  0  0  0  0
   21.4568   19.0809   20.0920 H   0  0  0  0  0  0  0  0  0  0  0  0
   19.5433   18.9607   21.0674 C   0  0  0  0  0  0  0  0  0  0  0  0
   19.3655   17.9402   21.4254 H   0  0  0  0  0  0  0  0  0  0  0  0
   19.2141   18.9453   20.0194 H   0  0  0  0  0  0  0  0  0  0  0  0
   18.6336   19.9671   21.8174 C   0  0  0  0  0  0  0  0  0  0  0  0
   17.6312   19.5307   21.9238 H   0  0  0  0  0  0  0  0  0  0  0  0
   18.5068   20.8487   21.1743 H   0  0  0  0  0  0  0  0  0  0  0  0
   23.2653   18.7029   21.8319 O   0  0  0  0  0  0  0  0  0  0  0  0
   23.4112   19.6539   22.0135 H   0  0  0  0  0  0  0  0  0  0  0  0
  1  2  1  0  0  0  0
  1  3  1  0  0  0  0
  1  4  1  0  0  0  0
  4  5  1  0  0  0  0
  4  6  1  0  0  0  0
  4  7  1  0  0  0  0
  7  8  1  0  0  0  0
  7  9  1  0  0  0  0
  7 10  1  0  0  0  0
 10 11  1  0  0  0  0
 10 12  1  0  0  0  0
 10 13  1  0  0  0  0
 13 14  1  0  0  0  0
 13 15  1  0  0  0  0
 15 16  1  0  0  0  0
 15 17  1  0  0  0  0
 15 18  1  0  0  0  0
 18 19  1  0  0  0  0
 18 20  1  0  0  0  0
  1 21  1  0  0  0  0
 18 21  1  0  0  0  0
 21 22  1  0  0  0  0
 21 23  1  0  0  0  0
 13 24  1  0  0  0  0
 24 25  1  0  0  0  0
M  END
> <VConfSearch Rank>
949

> <Conf_Id>
15

> <Delta U+W>
-1.271

> <U+W>
9.643

> <U>
11.413

> <W>
-1.770

> <W(PB)>
-3.908

> <W(SA)>
2.138

> <Valence>
17.496

> <Coulomb>
-8.736

> <VdW>
2.653

> <VdW6>
-12.485

> <VdW12>
15.138

> <Bond>
0.414

> <Angle>
5.295

> <Pdih>
11.787

> <Idih>
0.000

> <Tether>
0.000

$$$$
VeraChem MOL file


 25 25  0  0  0  0  0  0  0  0999 V2000     
   18.8291   18.0802   22.9447 C   0  0  0  0  0  0  0  0  0  0  0  0
   18.1030   17.2862   23.1667 H   0  0  0  0  0  0  0  0  0  0  0  0
   18.3320   18.7130   22.1986 H   0  0  0  0  0  0  0  0  0  0  0  0
   19.0583   18.8658   24.2627 C   0  0  0  0  0  0  0  0  0  0  0  0
   18.1236   19.3835   24.5179 H   0  0  0  0  0  0  0  0  0  0  0  0
   19.2349   18.1500   25.0770 H   0  0  0  0  0  0  0  0  0  0  0  0
   20.2124   19.8970   24.2644 C   0  0  0  0  0  0  0  0  0  0  0  0
   21.1693   19.3764   24.3878 H   0  0  0  0  0  0  0  0  0  0  0  0
   20.1131   20.5182   25.1650 H   0  0  0  0  0  0  0  0  0  0  0  0
   20.2372   20.8230   23.0205 C   0  0  0  0  0  0  0  0  0  0  0  0
   19.3302   20.6948   22.4194 H   0  0  0  0  0  0  0  0  0  0  0  0
   20.2033   21.8654   23.3633 H   0  0  0  0  0  0  0  0  0  0  0  0
   21.4907   20.6662   22.1293 C   0  0  0  0  0  0  0  0  0  0  0  0
   22.3343   21.1339   22.6570 H   0  0  0  0  0  0  0  0  0  0  0  0
   21.9174   19.2164   21.7822 C   0  0  0  0  0  0  0  0  0  0  0  0
   22.7033   19.2878   21.0182 H   0  0  0  0  0  0  0  0  0  0  0  0
   22.4149   18.7553   22.6438 H   0  0  0  0  0  0  0  0  0  0  0  0
   20.8125   18.2674   21.2458 C   0  0  0  0  0  0  0  0  0  0  0  0
   21.3064   17.5587   20.5669 H   0  0  0  0  0  0  0  0  0  0  0  0
   20.0917   18.8106   20.6211 H   0  0  0  0  0  0  0  0  0  0  0  0
   20.0857   17.4195   22.3259 C   0  0  0  0  0  0  0  0  0  0  0  0
   20.7818   17.0935   23.1103 H   0  0  0  0  0  0  0  0  0  0  0  0
   19.7504   16.4964   21.8332 H   0  0  0  0  0  0  0  0  0  0  0  0
   21.2641   21.3715   20.9170 O   0  0  0  0  0  0  0  0  0  0  0  0
   20.5750   20.8678   20.4390 H   0  0  0  0  0  0  0  0  0  0  0  0
  1  2  1  0  0  0  0
  1  3  1  0  0  0  0
  1  4  1  0  0  0  0
  4  5  1  0  0  0  0
  4  6  1  0  0  0  0
  4  7  1  0  0  0  0
  7  8  1  0  0  0  0
  7  9  1  0  0  0  0
  7 10  1  0  0  0  0
 10 11  1  0  0  0  0
 10 12  1  0  0  0  0
 10 13  1  0  0  0  0
 13 14  1  0  0  0  0
 13 15  1  0  0  0  0
 15 16  1  0  0  0  0
 15 17  1  0  0  0  0
 15 18  1  0  0  0  0
 18 19  1  0  0  0  0
 18 20  1  0  0  0  0
  1 21  1  0  0  0  0
 18 21  1  0  0  0  0
 21 22  1  0  0  0  0
 21 23  1  0  0  0  0
 13 24  1  0  0  0  0
 24 25  1  0  0  0  0
M  END
> <VConfSearch Rank>
950

> <Conf_Id>
115

> <Delta U+W>
0.038

> <U+W>
10.952

> <U>
12.526

> <W>
-1.575

> <W(PB)>
-3.698

> <W(SA)>
2.123

> <Valence>
19.016

> <Coulomb>
-9.226

> <VdW>
2.737

> <VdW6>
-12.612

> <VdW12>
15.349

> <Bond>
0.421

> <Angle>
4.883

> <Pdih>
13.711

> <Idih>
0.000

> <Tether>
0.000

$$$$
VeraChem MOL file


 25 25  0  0  0  0  0  0  0  0999 V2000     
   19.2349   17.4554   23.0447 C   0  0  0  0  0  0  0  0  0  0  0  0
   18.8371   16.6651   23.6960 H   0  0  0  0  0  0  0  0  0  0  0  0
   18.7119   17.3374   22.0860 H   0  0  0  0  0  0  0  0  0  0  0  0
   20.7464   17.1842   22.8619 C   0  0  0  0  0  0  0  0  0  0  0  0
   21.2498   17.1815   23.8381 H   0  0  0  0  0  0  0  0  0  0  0  0
   20.8519   16.1621   22.4728 H   0  0  0  0  0  0  0  0  0  0  0  0
   21.4730   18.1412   21.8888 C   0  0  0  0  0  0  0  0  0  0  0  0
   20.8516   18.3285   21.0030 H   0  0  0  0  0  0  0  0  0  0  0  0
   22.3627   17.6161   21.5147 H   0  0  0  0  0  0  0  0  0  0  0  0
   21.9529   19.4678   22.5366 C   0  0  0  0  0  0  0  0  0  0  0  0
   21.9104   19.4151   23.6317 H   0  0  0  0  0  0  0  0  0  0  0  0
   23.0169   19.5860   22.2908 H   0  0  0  0  0  0  0  0  0  0  0  0
   21.2086   20.7275   22.0393 C   0  0  0  0  0  0  0  0  0  0  0  0
   20.9763   20.6052   20.9717 H   0  0  0  0  0  0  0  0  0  0  0  0
   19.9049   21.0491   22.8030 C   0  0  0  0  0  0  0  0  0  0  0  0
   20.1275   21.2354   23.8620 H   0  0  0  0  0  0  0  0  0  0  0  0
   19.5154   21.9968   22.4085 H   0  0  0  0  0  0  0  0  0  0  0  0
   18.7809   19.9925   22.6729 C   0  0  0  0  0  0  0  0  0  0  0  0
   18.7170   19.6271   21.6392 H   0  0  0  0  0  0  0  0  0  0  0  0
   17.8273   20.5052   22.8593 H   0  0  0  0  0  0  0  0  0  0  0  0
   18.8813   18.8194   23.6827 C   0  0  0  0  0  0  0  0  0  0  0  0
   17.8971   18.7113   24.1591 H   0  0  0  0  0  0  0  0  0  0  0  0
   19.5757   19.0512   24.5011 H   0  0  0  0  0  0  0  0  0  0  0  0
   22.0792   21.8421   22.1919 O   0  0  0  0  0  0  0  0  0  0  0  0
   21.6112   22.6198   21.8224 H   0  0  0  0  0  0  0  0  0  0  0  0
  1  2  1  0  0  0  0
  1  3  1  0  0  0  0
  1  4  1  0  0  0  0
  4  5  1  0  0  0  0
  4  6  1  0  0  0  0
  4  7  1  0  0  0  0
  7  8  1  0  0  0  0
  7  9  1  0  0  0  0
  7 10  1  0  0  0  0
 10 11  1  0  0  0  0
 10 12  1  0  0  0  0
 10 13  1  0  0  0  0
 13 14  1  0  0  0  0
 13 15  1  0  0  0  0
 15 16  1  0  0  0  0
 15 17  1  0  0  0  0
 15 18  1  0  0  0  0
 18 19  1  0  0  0  0
 18 20  1  0  0  0  0
  1 21  1  0  0  0  0
 18 21  1  0  0  0  0
 21 22  1  0  0  0  0
 21 23  1  0  0  0  0
 13 24  1  0  0  0  0
 24 25  1  0  0  0  0
M  END
> <VConfSearch Rank>
951

> <Conf_Id>
30

> <Delta U+W>
0.000

> <U+W>
10.913

> <U>
13.140

> <W>
-2.227

> <W(PB)>
-4.367

> <W(SA)>
2.140

> <Valence>
19.155

> <Coulomb>
-8.157

> <VdW>
2.142

> <VdW6>
-11.576

> <VdW12>
13.718

> <Bond>
0.294

> <Angle>
3.547

> <Pdih>
15.314

> <Idih>
0.000

> <Tether>
0.000

$$$$
VeraChem MOL file


 25 25  0  0  0  0  0  0  0  0999 V2000     
   20.7365   20.8224   24.0287 C   0  0  0  0  0  0  0  0  0  0  0  0
   20.1214   21.6046   24.4940 H   0  0  0  0  0  0  0  0  0  0  0  0
   21.7651   21.0161   24.3622 H   0  0  0  0  0  0  0  0  0  0  0  0
   20.6827   21.0045   22.4918 C   0  0  0  0  0  0  0  0  0  0  0  0
   20.7917   22.0758   22.2741 H   0  0  0  0  0  0  0  0  0  0  0  0
   21.5632   20.5383   22.0347 H   0  0  0  0  0  0  0  0  0  0  0  0
   19.3759   20.4960   21.8318 C   0  0  0  0  0  0  0  0  0  0  0  0
   18.9258   21.3193   21.2605 H   0  0  0  0  0  0  0  0  0  0  0  0
   18.6266   20.2390   22.5895 H   0  0  0  0  0  0  0  0  0  0  0  0
   19.5783   19.2982   20.8696 C   0  0  0  0  0  0  0  0  0  0  0  0
   18.5916   18.8953   20.6053 H   0  0  0  0  0  0  0  0  0  0  0  0
   20.0109   19.6741   19.9333 H   0  0  0  0  0  0  0  0  0  0  0  0
   20.4783   18.1415   21.3718 C   0  0  0  0  0  0  0  0  0  0  0  0
   21.5233   18.4786   21.3908 H   0  0  0  0  0  0  0  0  0  0  0  0
   20.1130   17.5833   22.7690 C   0  0  0  0  0  0  0  0  0  0  0  0
   19.0327   17.6677   22.9430 H   0  0  0  0  0  0  0  0  0  0  0  0
   20.3239   16.5056   22.7718 H   0  0  0  0  0  0  0  0  0  0  0  0
   20.9146   18.1986   23.9508 C   0  0  0  0  0  0  0  0  0  0  0  0
   21.9566   18.3957   23.6649 H   0  0  0  0  0  0  0  0  0  0  0  0
   20.9680   17.4301   24.7343 H   0  0  0  0  0  0  0  0  0  0  0  0
   20.2748   19.4533   24.5953 C   0  0  0  0  0  0  0  0  0  0  0  0
   20.5271   19.4488   25.6646 H   0  0  0  0  0  0  0  0  0  0  0  0
   19.1808   19.3727   24.5668 H   0  0  0  0  0  0  0  0  0  0  0  0
   20.3724   17.0853   20.4244 O   0  0  0  0  0  0  0  0  0  0  0  0
   21.0038   16.3902   20.7047 H   0  0  0  0  0  0  0  0  0  0  0  0
  1  2  1  0  0  0  0
  1  3  1  0  0  0  0
  1  4  1  0  0  0  0
  4  5  1  0  0  0  0
  4  6  1  0  0  0  0
  4  7  1  0  0  0  0
  7  8  1  0  0  0  0
  7  9  1  0  0  0  0
  7 10  1  0  0  0  0
 10 11  1  0  0  0  0
 10 12  1  0  0  0  0
 10 13  1  0  0  0  0
 13 14  1  0  0  0  0
 13 15  1  0  0  0  0
 15 16  1  0  0  0  0
 15 17  1  0  0  0  0
 15 18  1  0  0  0  0
 18 19  1  0  0  0  0
 18 20  1  0  0  0  0
  1 21  1  0  0  0  0
 18 21  1  0  0  0  0
 21 22  1  0  0  0  0
 21 23  1  0  0  0  0
 13 24  1  0  0  0  0
 24 25  1  0  0  0  0
M  END
> <VConfSearch Rank>
952

> <Conf_Id>
162

> <Delta U+W>
0.219

> <U+W>
11.132

> <U>
13.296

> <W>
-2.164

> <W(PB)>
-4.311

> <W(SA)>
2.148

> <Valence>
18.607

> <Coulomb>
-8.339

> <VdW>
3.028

> <VdW6>
-12.271

> <VdW12>
15.299

> <Bond>
0.423

> <Angle>
4.488

> <Pdih>
13.696

> <Idih>
0.000

> <Tether>
0.000

$$$$
VeraChem MOL file


 25 25  0  0  0  0  0  0  0  0999 V2000     
   19.0109   20.6831   23.0010 C   0  0  0  0  0  0  0  0  0  0  0  0
   19.4418   21.2127   22.1419 H   0  0  0  0  0  0  0  0  0  0  0  0
   18.1775   21.3180   23.3316 H   0  0  0  0  0  0  0  0  0  0  0  0
   18.4246   19.3240   22.5442 C   0  0  0  0  0  0  0  0  0  0  0  0
   18.3170   18.6396   23.3964 H   0  0  0  0  0  0  0  0  0  0  0  0
   17.4005   19.5194   22.1974 H   0  0  0  0  0  0  0  0  0  0  0  0
   19.1756   18.6412   21.3671 C   0  0  0  0  0  0  0  0  0  0  0  0
   19.5336   19.3834   20.6411 H   0  0  0  0  0  0  0  0  0  0  0  0
   18.4340   18.0387   20.8247 H   0  0  0  0  0  0  0  0  0  0  0  0
   20.3188   17.6787   21.7814 C   0  0  0  0  0  0  0  0  0  0  0  0
   20.0650   17.1804   22.7252 H   0  0  0  0  0  0  0  0  0  0  0  0
   20.3630   16.8714   21.0388 H   0  0  0  0  0  0  0  0  0  0  0  0
   21.7409   18.2900   21.8535 C   0  0  0  0  0  0  0  0  0  0  0  0
   22.0692   18.5007   20.8254 H   0  0  0  0  0  0  0  0  0  0  0  0
   21.8820   19.6033   22.6594 C   0  0  0  0  0  0  0  0  0  0  0  0
   22.9499   19.8088   22.8087 H   0  0  0  0  0  0  0  0  0  0  0  0
   21.5274   20.4376   22.0446 H   0  0  0  0  0  0  0  0  0  0  0  0
   21.1777   19.5962   24.0419 C   0  0  0  0  0  0  0  0  0  0  0  0
   21.9228   19.8140   24.8189 H   0  0  0  0  0  0  0  0  0  0  0  0
   20.8047   18.5946   24.2862 H   0  0  0  0  0  0  0  0  0  0  0  0
   20.0270   20.6232   24.1723 C   0  0  0  0  0  0  0  0  0  0  0  0
   20.4612   21.6243   24.2992 H   0  0  0  0  0  0  0  0  0  0  0  0
   19.4834   20.4134   25.1035 H   0  0  0  0  0  0  0  0  0  0  0  0
   22.6052   17.3139   22.4229 O   0  0  0  0  0  0  0  0  0  0  0  0
   23.4970   17.7166   22.4634 H   0  0  0  0  0  0  0  0  0  0  0  0
  1  2  1  0  0  0  0
  1  3  1  0  0  0  0
  1  4  1  0  0  0  0
  4  5  1  0  0  0  0
  4  6  1  0  0  0  0
  4  7  1  0  0  0  0
  7  8  1  0  0  0  0
  7  9  1  0  0  0  0
  7 10  1  0  0  0  0
 10 11  1  0  0  0  0
 10 12  1  0  0  0  0
 10 13  1  0  0  0  0
 13 14  1  0  0  0  0
 13 15  1  0  0  0  0
 15 16  1  0  0  0  0
 15 17  1  0  0  0  0
 15 18  1  0  0  0  0
 18 19  1  0  0  0  0
 18 20  1  0  0  0  0
  1 21  1  0  0  0  0
 18 21  1  0  0  0  0
 21 22  1  0  0  0  0
 21 23  1  0  0  0  0
 13 24  1  0  0  0  0
 24 25  1  0  0  0  0
M  END
> <VConfSearch Rank>
953

> <Conf_Id>
155

> <Delta U+W>
0.339

> <U+W>
11.252

> <U>
13.420

> <W>
-2.167

> <W(PB)>
-4.325

> <W(SA)>
2.157

> <Valence>
18.609

> <Coulomb>
-8.052

> <VdW>
2.863

> <VdW6>
-12.524

> <VdW12>
15.387

> <Bond>
0.430

> <Angle>
4.724

> <Pdih>
13.455

> <Idih>
0.000

> <Tether>
0.000

$$$$
VeraChem MOL file


 25 25  0  0  0  0  0  0  0  0999 V2000     
   19.7408   18.0592   21.1567 C   0  0  0  0  0  0  0  0  0  0  0  0
   20.5527   17.6627   20.5322 H   0  0  0  0  0  0  0  0  0  0  0  0
   18.8156   17.6522   20.7265 H   0  0  0  0  0  0  0  0  0  0  0  0
   19.8665   17.4763   22.5889 C   0  0  0  0  0  0  0  0  0  0  0  0
   18.9950   17.7764   23.1792 H   0  0  0  0  0  0  0  0  0  0  0  0
   19.7623   16.3854   22.5135 H   0  0  0  0  0  0  0  0  0  0  0  0
   21.1853   17.7567   23.3672 C   0  0  0  0  0  0  0  0  0  0  0  0
   21.9061   16.9777   23.0842 H   0  0  0  0  0  0  0  0  0  0  0  0
   21.0027   17.6120   24.4407 H   0  0  0  0  0  0  0  0  0  0  0  0
   21.8873   19.1249   23.1507 C   0  0  0  0  0  0  0  0  0  0  0  0
   22.8574   19.0804   23.6629 H   0  0  0  0  0  0  0  0  0  0  0  0
   22.1668   19.2228   22.0980 H   0  0  0  0  0  0  0  0  0  0  0  0
   21.1511   20.4083   23.6358 C   0  0  0  0  0  0  0  0  0  0  0  0
   21.5450   21.2581   23.0602 H   0  0  0  0  0  0  0  0  0  0  0  0
   19.6058   20.4359   23.5282 C   0  0  0  0  0  0  0  0  0  0  0  0
   19.1903   19.6346   24.1462 H   0  0  0  0  0  0  0  0  0  0  0  0
   19.2570   21.3519   24.0232 H   0  0  0  0  0  0  0  0  0  0  0  0
   18.9742   20.4216   22.1037 C   0  0  0  0  0  0  0  0  0  0  0  0
   18.9246   21.4624   21.7556 H   0  0  0  0  0  0  0  0  0  0  0  0
   17.9303   20.0892   22.1815 H   0  0  0  0  0  0  0  0  0  0  0  0
   19.6877   19.6066   20.9932 C   0  0  0  0  0  0  0  0  0  0  0  0
   20.6897   20.0155   20.8292 H   0  0  0  0  0  0  0  0  0  0  0  0
   19.1695   19.8125   20.0466 H   0  0  0  0  0  0  0  0  0  0  0  0
   21.4740   20.6036   25.0083 O   0  0  0  0  0  0  0  0  0  0  0  0
   22.4510   20.6377   25.0671 H   0  0  0  0  0  0  0  0  0  0  0  0
  1  2  1  0  0  0  0
  1  3  1  0  0  0  0
  1  4  1  0  0  0  0
  4  5  1  0  0  0  0
  4  6  1  0  0  0  0
  4  7  1  0  0  0  0
  7  8  1  0  0  0  0
  7  9  1  0  0  0  0
  7 10  1  0  0  0  0
 10 11  1  0  0  0  0
 10 12  1  0  0  0  0
 10 13  1  0  0  0  0
 13 14  1  0  0  0  0
 13 15  1  0  0  0  0
 15 16  1  0  0  0  0
 15 17  1  0  0  0  0
 15 18  1  0  0  0  0
 18 19  1  0  0  0  0
 18 20  1  0  0  0  0
  1 21  1  0  0  0  0
 18 21  1  0  0  0  0
 21 22  1  0  0  0  0
 21 23  1  0  0  0  0
 13 24  1  0  0  0  0
 24 25  1  0  0  0  0
M  END
> <VConfSearch Rank>
954

> <Conf_Id>
146

> <Delta U+W>
2.553

> <U+W>
13.466

> <U>
15.643

> <W>
-2.176

> <W(PB)>
-4.307

> <W(SA)>
2.131

> <Valence>
18.916

> <Coulomb>
-7.506

> <VdW>
4.232

> <VdW6>
-13.632

> <VdW12>
17.864

> <Bond>
0.735

> <Angle>
9.140

> <Pdih>
9.042

> <Idih>
0.000

> <Tether>
0.000

$$$$
VeraChem MOL file


 25 25  0  0  0  0  0  0  0  0999 V2000     
   18.5888   19.4342   21.5334 C   0  0  0  0  0  0  0  0  0  0  0  0
   18.5769   19.3052   20.4426 H   0  0  0  0  0  0  0  0  0  0  0  0
   17.5518   19.6615   21.8160 H   0  0  0  0  0  0  0  0  0  0  0  0
   19.4478   20.6725   21.8924 C   0  0  0  0  0  0  0  0  0  0  0  0
   18.9791   21.5437   21.4148 H   0  0  0  0  0  0  0  0  0  0  0  0
   19.3860   20.8808   22.9666 H   0  0  0  0  0  0  0  0  0  0  0  0
   20.9260   20.6349   21.4298 C   0  0  0  0  0  0  0  0  0  0  0  0
   21.3663   21.6171   21.6495 H   0  0  0  0  0  0  0  0  0  0  0  0
   20.9620   20.5301   20.3370 H   0  0  0  0  0  0  0  0  0  0  0  0
   21.8356   19.5537   22.0696 C   0  0  0  0  0  0  0  0  0  0  0  0
   21.6980   18.5929   21.5636 H   0  0  0  0  0  0  0  0  0  0  0  0
   22.8744   19.8337   21.8482 H   0  0  0  0  0  0  0  0  0  0  0  0
   21.6736   19.3797   23.6018 C   0  0  0  0  0  0  0  0  0  0  0  0
   21.2094   20.2795   24.0275 H   0  0  0  0  0  0  0  0  0  0  0  0
   20.8505   18.1332   24.0147 C   0  0  0  0  0  0  0  0  0  0  0  0
   21.2978   17.2392   23.5605 H   0  0  0  0  0  0  0  0  0  0  0  0
   20.9579   18.0002   25.0992 H   0  0  0  0  0  0  0  0  0  0  0  0
   19.3297   18.1612   23.7018 C   0  0  0  0  0  0  0  0  0  0  0  0
   18.8496   19.0258   24.1780 H   0  0  0  0  0  0  0  0  0  0  0  0
   18.8860   17.2825   24.1898 H   0  0  0  0  0  0  0  0  0  0  0  0
   18.9737   18.0855   22.1945 C   0  0  0  0  0  0  0  0  0  0  0  0
   18.1122   17.4133   22.0804 H   0  0  0  0  0  0  0  0  0  0  0  0
   19.7773   17.5956   21.6333 H   0  0  0  0  0  0  0  0  0  0  0  0
   22.9706   19.2375   24.1700 O   0  0  0  0  0  0  0  0  0  0  0  0
   22.8506   19.1884   25.1413 H   0  0  0  0  0  0  0  0  0  0  0  0
  1  2  1  0  0  0  0
  1  3  1  0  0  0  0
  1  4  1  0  0  0  0
  4  5  1  0  0  0  0
  4  6  1  0  0  0  0
  4  7  1  0  0  0  0
  7  8  1  0  0  0  0
  7  9  1  0  0  0  0
  7 10  1  0  0  0  0
 10 11  1  0  0  0  0
 10 12  1  0  0  0  0
 10 13  1  0  0  0  0
 13 14  1  0  0  0  0
 13 15  1  0  0  0  0
 15 16  1  0  0  0  0
 15 17  1  0  0  0  0
 15 18  1  0  0  0  0
 18 19  1  0  0  0  0
 18 20  1  0  0  0  0
  1 21  1  0  0  0  0
 18 21  1  0  0  0  0
 21 22  1  0  0  0  0
 21 23  1  0  0  0  0
 13 24  1  0  0  0  0
 24 25  1  0  0  0  0
M  END
> <VConfSearch Rank>
955

> <Conf_Id>
62

> <Delta U+W>
-1.779

> <U+W>
9.134

> <U>
11.364

> <W>
-2.230

> <W(PB)>
-4.359

> <W(SA)>
2.129

> <Valence>
16.582

> <Coulomb>
-8.150

> <VdW>
2.933

> <VdW6>
-12.531

> <VdW12>
15.464

> <Bond>
0.439

> <Angle>
5.099

> <Pdih>
11.044

> <Idih>
0.000

> <Tether>
0.000

$$$$
VeraChem MOL file


 25 25  0  0  0  0  0  0  0  0999 V2000     
   20.4529   18.4031   20.9825 C   0  0  0  0  0  0  0  0  0  0  0  0
   19.9802   17.6422   21.6141 H   0  0  0  0  0  0  0  0  0  0  0  0
   20.5241   17.9346   19.9915 H   0  0  0  0  0  0  0  0  0  0  0  0
   21.8985   18.6828   21.4641 C   0  0  0  0  0  0  0  0  0  0  0  0
   22.4552   17.7379   21.3996 H   0  0  0  0  0  0  0  0  0  0  0  0
   22.3902   19.3658   20.7583 H   0  0  0  0  0  0  0  0  0  0  0  0
   22.0695   19.2363   22.9018 C   0  0  0  0  0  0  0  0  0  0  0  0
   21.9242   20.3225   22.9157 H   0  0  0  0  0  0  0  0  0  0  0  0
   23.1235   19.0969   23.1789 H   0  0  0  0  0  0  0  0  0  0  0  0
   21.1895   18.5550   23.9838 C   0  0  0  0  0  0  0  0  0  0  0  0
   20.9022   17.5415   23.6780 H   0  0  0  0  0  0  0  0  0  0  0  0
   21.8168   18.4214   24.8748 H   0  0  0  0  0  0  0  0  0  0  0  0
   19.9416   19.3660   24.4155 C   0  0  0  0  0  0  0  0  0  0  0  0
   20.2695   20.3745   24.7060 H   0  0  0  0  0  0  0  0  0  0  0  0
   18.8160   19.5111   23.3610 C   0  0  0  0  0  0  0  0  0  0  0  0
   18.4603   18.5246   23.0400 H   0  0  0  0  0  0  0  0  0  0  0  0
   17.9599   19.9748   23.8690 H   0  0  0  0  0  0  0  0  0  0  0  0
   19.1702   20.4039   22.1416 C   0  0  0  0  0  0  0  0  0  0  0  0
   19.9640   21.1130   22.4023 H   0  0  0  0  0  0  0  0  0  0  0  0
   18.3007   21.0361   21.9155 H   0  0  0  0  0  0  0  0  0  0  0  0
   19.5289   19.6385   20.8422 C   0  0  0  0  0  0  0  0  0  0  0  0
   19.9706   20.3425   20.1240 H   0  0  0  0  0  0  0  0  0  0  0  0
   18.5906   19.2967   20.3843 H   0  0  0  0  0  0  0  0  0  0  0  0
   19.3813   18.7226   25.5532 O   0  0  0  0  0  0  0  0  0  0  0  0
   20.0818   18.6975   26.2379 H   0  0  0  0  0  0  0  0  0  0  0  0
  1  2  1  0  0  0  0
  1  3  1  0  0  0  0
  1  4  1  0  0  0  0
  4  5  1  0  0  0  0
  4  6  1  0  0  0  0
  4  7  1  0  0  0  0
  7  8  1  0  0  0  0
  7  9  1  0  0  0  0
  7 10  1  0  0  0  0
 10 11  1  0  0  0  0
 10 12  1  0  0  0  0
 10 13  1  0  0  0  0
 13 14  1  0  0  0  0
 13 15  1  0  0  0  0
 15 16  1  0  0  0  0
 15 17  1  0  0  0  0
 15 18  1  0  0  0  0
 18 19  1  0  0  0  0
 18 20  1  0  0  0  0
  1 21  1  0  0  0  0
 18 21  1  0  0  0  0
 21 22  1  0  0  0  0
 21 23  1  0  0  0  0
 13 24  1  0  0  0  0
 24 25  1  0  0  0  0
M  END
> <VConfSearch Rank>
956

> <Conf_Id>
121

> <Delta U+W>
-1.283

> <U+W>
9.630

> <U>
11.876

> <W>
-2.246

> <W(PB)>
-4.376

> <W(SA)>
2.130

> <Valence>
17.153

> <Coulomb>
-7.966

> <VdW>
2.689

> <VdW6>
-12.458

> <VdW12>
15.147

> <Bond>
0.421

> <Angle>
5.258

> <Pdih>
11.475

> <Idih>
0.000

> <Tether>
0.000

$$$$
VeraChem MOL file


 25 25  0  0  0  0  0  0  0  0999 V2000     
   20.0247   18.6790   20.9239 C   0  0  0  0  0  0  0  0  0  0  0  0
   20.5175   19.6500   20.7992 H   0  0  0  0  0  0  0  0  0  0  0  0
   19.8507   18.3237   19.8991 H   0  0  0  0  0  0  0  0  0  0  0  0
   18.6379   18.8588   21.5903 C   0  0  0  0  0  0  0  0  0  0  0  0
   18.0392   19.5051   20.9340 H   0  0  0  0  0  0  0  0  0  0  0  0
   18.1168   17.8921   21.6106 H   0  0  0  0  0  0  0  0  0  0  0  0
   18.6119   19.4745   23.0127 C   0  0  0  0  0  0  0  0  0  0  0  0
   18.7992   18.7041   23.7692 H   0  0  0  0  0  0  0  0  0  0  0  0
   17.5813   19.8030   23.2046 H   0  0  0  0  0  0  0  0  0  0  0  0
   19.5551   20.6886   23.2273 C   0  0  0  0  0  0  0  0  0  0  0  0
   19.7738   21.1931   22.2784 H   0  0  0  0  0  0  0  0  0  0  0  0
   19.0070   21.4274   23.8269 H   0  0  0  0  0  0  0  0  0  0  0  0
   20.8663   20.3726   23.9894 C   0  0  0  0  0  0  0  0  0  0  0  0
   20.6018   19.8665   24.9290 H   0  0  0  0  0  0  0  0  0  0  0  0
   21.9038   19.4973   23.2417 C   0  0  0  0  0  0  0  0  0  0  0  0
   22.1885   19.9660   22.2918 H   0  0  0  0  0  0  0  0  0  0  0  0
   22.8203   19.4887   23.8461 H   0  0  0  0  0  0  0  0  0  0  0  0
   21.4804   18.0191   23.0302 C   0  0  0  0  0  0  0  0  0  0  0  0
   20.7389   17.7203   23.7798 H   0  0  0  0  0  0  0  0  0  0  0  0
   22.3505   17.3802   23.2350 H   0  0  0  0  0  0  0  0  0  0  0  0
   20.9835   17.6701   21.6040 C   0  0  0  0  0  0  0  0  0  0  0  0
   20.5121   16.6782   21.6236 H   0  0  0  0  0  0  0  0  0  0  0  0
   21.8653   17.5671   20.9570 H   0  0  0  0  0  0  0  0  0  0  0  0
   21.4906   21.6124   24.2986 O   0  0  0  0  0  0  0  0  0  0  0  0
   22.2815   21.4043   24.8383 H   0  0  0  0  0  0  0  0  0  0  0  0
  1  2  1  0  0  0  0
  1  3  1  0  0  0  0
  1  4  1  0  0  0  0
  4  5  1  0  0  0  0
  4  6  1  0  0  0  0
  4  7  1  0  0  0  0
  7  8  1  0  0  0  0
  7  9  1  0  0  0  0
  7 10  1  0  0  0  0
 10 11  1  0  0  0  0
 10 12  1  0  0  0  0
 10 13  1  0  0  0  0
 13 14  1  0  0  0  0
 13 15  1  0  0  0  0
 15 16  1  0  0  0  0
 15 17  1  0  0  0  0
 15 18  1  0  0  0  0
 18 19  1  0  0  0  0
 18 20  1  0  0  0  0
  1 21  1  0  0  0  0
 18 21  1  0  0  0  0
 21 22  1  0  0  0  0
 21 23  1  0  0  0  0
 13 24  1  0  0  0  0
 24 25  1  0  0  0  0
M  END
> <VConfSearch Rank>
957

> <Conf_Id>
24

> <Delta U+W>
-1.236

> <U+W>
9.678

> <U>
11.876

> <W>
-2.199

> <W(PB)>
-4.335

> <W(SA)>
2.137

> <Valence>
17.153

> <Coulomb>
-7.966

> <VdW>
2.689

> <VdW6>
-12.458

> <VdW12>
15.147

> <Bond>
0.421

> <Angle>
5.258

> <Pdih>
11.475

> <Idih>
0.000

> <Tether>
0.000

$$$$
VeraChem MOL file


 25 25  0  0  0  0  0  0  0  0999 V2000     
   19.2421   21.0060   23.1643 C   0  0  0  0  0  0  0  0  0  0  0  0
   19.5707   21.6649   23.9795 H   0  0  0  0  0  0  0  0  0  0  0  0
   18.3131   21.4492   22.7803 H   0  0  0  0  0  0  0  0  0  0  0  0
   20.2974   21.0496   22.0274 C   0  0  0  0  0  0  0  0  0  0  0  0
   19.8676   20.6823   21.0868 H   0  0  0  0  0  0  0  0  0  0  0  0
   20.5194   22.1088   21.8379 H   0  0  0  0  0  0  0  0  0  0  0  0
   21.6366   20.3268   22.3150 C   0  0  0  0  0  0  0  0  0  0  0  0
   21.9072   20.4144   23.3760 H   0  0  0  0  0  0  0  0  0  0  0  0
   22.4177   20.8741   21.7695 H   0  0  0  0  0  0  0  0  0  0  0  0
   21.7051   18.8484   21.8380 C   0  0  0  0  0  0  0  0  0  0  0  0
   21.1631   18.7176   20.8928 H   0  0  0  0  0  0  0  0  0  0  0  0
   22.7587   18.6433   21.6041 H   0  0  0  0  0  0  0  0  0  0  0  0
   21.2400   17.8025   22.8805 C   0  0  0  0  0  0  0  0  0  0  0  0
   21.4262   18.2046   23.8851 H   0  0  0  0  0  0  0  0  0  0  0  0
   19.7563   17.3687   22.7695 C   0  0  0  0  0  0  0  0  0  0  0  0
   19.6272   16.7354   21.8820 H   0  0  0  0  0  0  0  0  0  0  0  0
   19.5319   16.7281   23.6326 H   0  0  0  0  0  0  0  0  0  0  0  0
   18.6990   18.5000   22.7140 C   0  0  0  0  0  0  0  0  0  0  0  0
   17.7098   18.0499   22.8741 H   0  0  0  0  0  0  0  0  0  0  0  0
   18.6558   18.9162   21.7008 H   0  0  0  0  0  0  0  0  0  0  0  0
   18.9128   19.6177   23.7659 C   0  0  0  0  0  0  0  0  0  0  0  0
   19.6872   19.3368   24.4890 H   0  0  0  0  0  0  0  0  0  0  0  0
   17.9968   19.7165   24.3643 H   0  0  0  0  0  0  0  0  0  0  0  0
   22.0335   16.6329   22.7252 O   0  0  0  0  0  0  0  0  0  0  0  0
   21.8676   16.3041   21.8178 H   0  0  0  0  0  0  0  0  0  0  0  0
  1  2  1  0  0  0  0
  1  3  1  0  0  0  0
  1  4  1  0  0  0  0
  4  5  1  0  0  0  0
  4  6  1  0  0  0  0
  4  7  1  0  0  0  0
  7  8  1  0  0  0  0
  7  9  1  0  0  0  0
  7 10  1  0  0  0  0
 10 11  1  0  0  0  0
 10 12  1  0  0  0  0
 10 13  1  0  0  0  0
 13 14  1  0  0  0  0
 13 15  1  0  0  0  0
 15 16  1  0  0  0  0
 15 17  1  0  0  0  0
 15 18  1  0  0  0  0
 18 19  1  0  0  0  0
 18 20  1  0  0  0  0
  1 21  1  0  0  0  0
 18 21  1  0  0  0  0
 21 22  1  0  0  0  0
 21 23  1  0  0  0  0
 13 24  1  0  0  0  0
 24 25  1  0  0  0  0
M  END
> <VConfSearch Rank>
958

> <Conf_Id>
167

> <Delta U+W>
0.388

> <U+W>
11.301

> <U>
13.202

> <W>
-1.901

> <W(PB)>
-4.065

> <W(SA)>
2.163

> <Valence>
18.957

> <Coulomb>
-8.753

> <VdW>
2.998

> <VdW6>
-12.294

> <VdW12>
15.292

> <Bond>
0.419

> <Angle>
4.543

> <Pdih>
13.996

> <Idih>
0.000

> <Tether>
0.000

$$$$
VeraChem MOL file


 25 25  0  0  0  0  0  0  0  0999 V2000     
   18.3174   18.7528   22.4047 C   0  0  0  0  0  0  0  0  0  0  0  0
   18.0067   17.7348   22.1333 H   0  0  0  0  0  0  0  0  0  0  0  0
   17.3870   19.3266   22.5147 H   0  0  0  0  0  0  0  0  0  0  0  0
   19.1132   19.3666   21.2235 C   0  0  0  0  0  0  0  0  0  0  0  0
   19.7857   18.6224   20.7824 H   0  0  0  0  0  0  0  0  0  0  0  0
   18.3890   19.5855   20.4269 H   0  0  0  0  0  0  0  0  0  0  0  0
   19.8837   20.6732   21.5460 C   0  0  0  0  0  0  0  0  0  0  0  0
   19.4213   21.2069   22.3863 H   0  0  0  0  0  0  0  0  0  0  0  0
   19.7712   21.3442   20.6835 H   0  0  0  0  0  0  0  0  0  0  0  0
   21.4079   20.4901   21.7814 C   0  0  0  0  0  0  0  0  0  0  0  0
   21.8544   19.9915   20.9112 H   0  0  0  0  0  0  0  0  0  0  0  0
   21.8596   21.4905   21.8133 H   0  0  0  0  0  0  0  0  0  0  0  0
   21.8320   19.7427   23.0702 C   0  0  0  0  0  0  0  0  0  0  0  0
   21.3580   20.2231   23.9366 H   0  0  0  0  0  0  0  0  0  0  0  0
   21.4990   18.2281   23.0623 C   0  0  0  0  0  0  0  0  0  0  0  0
   21.3835   17.8734   22.0332 H   0  0  0  0  0  0  0  0  0  0  0  0
   22.3566   17.6625   23.4502 H   0  0  0  0  0  0  0  0  0  0  0  0
   20.2645   17.8243   23.9097 C   0  0  0  0  0  0  0  0  0  0  0  0
   20.5677   17.8164   24.9656 H   0  0  0  0  0  0  0  0  0  0  0  0
   19.9919   16.7875   23.6705 H   0  0  0  0  0  0  0  0  0  0  0  0
   19.0085   18.7239   23.7912 C   0  0  0  0  0  0  0  0  0  0  0  0
   19.2313   19.7431   24.1268 H   0  0  0  0  0  0  0  0  0  0  0  0
   18.2711   18.3502   24.5147 H   0  0  0  0  0  0  0  0  0  0  0  0
   23.2414   19.8878   23.1993 O   0  0  0  0  0  0  0  0  0  0  0  0
   23.4895   19.4718   24.0513 H   0  0  0  0  0  0  0  0  0  0  0  0
  1  2  1  0  0  0  0
  1  3  1  0  0  0  0
  1  4  1  0  0  0  0
  4  5  1  0  0  0  0
  4  6  1  0  0  0  0
  4  7  1  0  0  0  0
  7  8  1  0  0  0  0
  7  9  1  0  0  0  0
  7 10  1  0  0  0  0
 10 11  1  0  0  0  0
 10 12  1  0  0  0  0
 10 13  1  0  0  0  0
 13 14  1  0  0  0  0
 13 15  1  0  0  0  0
 15 16  1  0  0  0  0
 15 17  1  0  0  0  0
 15 18  1  0  0  0  0
 18 19  1  0  0  0  0
 18 20  1  0  0  0  0
  1 21  1  0  0  0  0
 18 21  1  0  0  0  0
 21 22  1  0  0  0  0
 21 23  1  0  0  0  0
 13 24  1  0  0  0  0
 24 25  1  0  0  0  0
M  END
> <VConfSearch Rank>
959

> <Conf_Id>
60

> <Delta U+W>
-1.838

> <U+W>
9.075

> <U>
11.150

> <W>
-2.074

> <W(PB)>
-4.196

> <W(SA)>
2.121

> <Valence>
16.582

> <Coulomb>
-8.361

> <VdW>
2.928

> <VdW6>
-12.539

> <VdW12>
15.467

> <Bond>
0.441

> <Angle>
5.093

> <Pdih>
11.049

> <Idih>
0.000

> <Tether>
0.000

$$$$
VeraChem MOL file


 25 25  0  0  0  0  0  0  0  0999 V2000     
   22.2856   18.5534   22.7005 C   0  0  0  0  0  0  0  0  0  0  0  0
   22.9157   18.7073   23.5870 H   0  0  0  0  0  0  0  0  0  0  0  0
   22.9329   18.0662   21.9585 H   0  0  0  0  0  0  0  0  0  0  0  0
   21.8737   19.9300   22.1208 C   0  0  0  0  0  0  0  0  0  0  0  0
   22.7972   20.4542   21.8394 H   0  0  0  0  0  0  0  0  0  0  0  0
   21.3331   19.7990   21.1765 H   0  0  0  0  0  0  0  0  0  0  0  0
   21.0873   20.8649   23.0739 C   0  0  0  0  0  0  0  0  0  0  0  0
   20.9719   21.8329   22.5674 H   0  0  0  0  0  0  0  0  0  0  0  0
   21.6947   21.0665   23.9666 H   0  0  0  0  0  0  0  0  0  0  0  0
   19.6802   20.3894   23.5196 C   0  0  0  0  0  0  0  0  0  0  0  0
   19.7662   19.6758   24.3452 H   0  0  0  0  0  0  0  0  0  0  0  0
   19.1707   21.2561   23.9614 H   0  0  0  0  0  0  0  0  0  0  0  0
   18.8014   19.7937   22.3892 C   0  0  0  0  0  0  0  0  0  0  0  0
   19.1811   20.1202   21.4118 H   0  0  0  0  0  0  0  0  0  0  0  0
   18.7109   18.2475   22.4068 C   0  0  0  0  0  0  0  0  0  0  0  0
   18.3627   17.9172   23.3942 H   0  0  0  0  0  0  0  0  0  0  0  0
   17.9230   17.9524   21.7012 H   0  0  0  0  0  0  0  0  0  0  0  0
   19.9970   17.4651   22.0246 C   0  0  0  0  0  0  0  0  0  0  0  0
   20.3420   17.7491   21.0221 H   0  0  0  0  0  0  0  0  0  0  0  0
   19.7152   16.4066   21.9416 H   0  0  0  0  0  0  0  0  0  0  0  0
   21.1489   17.5610   23.0585 C   0  0  0  0  0  0  0  0  0  0  0  0
   21.6071   16.5668   23.1518 H   0  0  0  0  0  0  0  0  0  0  0  0
   20.7520   17.7721   24.0579 H   0  0  0  0  0  0  0  0  0  0  0  0
   17.4793   20.2968   22.5414 O   0  0  0  0  0  0  0  0  0  0  0  0
   17.5388   21.2716   22.4596 H   0  0  0  0  0  0  0  0  0  0  0  0
  1  2  1  0  0  0  0
  1  3  1  0  0  0  0
  1  4  1  0  0  0  0
  4  5  1  0  0  0  0
  4  6  1  0  0  0  0
  4  7  1  0  0  0  0
  7  8  1  0  0  0  0
  7  9  1  0  0  0  0
  7 10  1  0  0  0  0
 10 11  1  0  0  0  0
 10 12  1  0  0  0  0
 10 13  1  0  0  0  0
 13 14  1  0  0  0  0
 13 15  1  0  0  0  0
 15 16  1  0  0  0  0
 15 17  1  0  0  0  0
 15 18  1  0  0  0  0
 18 19  1  0  0  0  0
 18 20  1  0  0  0  0
  1 21  1  0  0  0  0
 18 21  1  0  0  0  0
 21 22  1  0  0  0  0
 21 23  1  0  0  0  0
 13 24  1  0  0  0  0
 24 25  1  0  0  0  0
M  END
> <VConfSearch Rank>
960

> <Conf_Id>
129

> <Delta U+W>
-1.846

> <U+W>
9.067

> <U>
11.150

> <W>
-2.083

> <W(PB)>
-4.217

> <W(SA)>
2.134

> <Valence>
16.583

> <Coulomb>
-8.361

> <VdW>
2.928

> <VdW6>
-12.539

> <VdW12>
15.467

> <Bond>
0.441

> <Angle>
5.093

> <Pdih>
11.049

> <Idih>
0.000

> <Tether>
0.000

$$$$
VeraChem MOL file


 25 25  0  0  0  0  0  0  0  0999 V2000     
   20.6838   21.2355   22.6513 C   0  0  0  0  0  0  0  0  0  0  0  0
   21.7027   21.6002   22.4629 H   0  0  0  0  0  0  0  0  0  0  0  0
   20.0710   22.1345   22.8036 H   0  0  0  0  0  0  0  0  0  0  0  0
   20.6646   20.4332   23.9764 C   0  0  0  0  0  0  0  0  0  0  0  0
   20.9720   21.1195   24.7772 H   0  0  0  0  0  0  0  0  0  0  0  0
   19.6381   20.1497   24.2358 H   0  0  0  0  0  0  0  0  0  0  0  0
   21.6019   19.2014   24.0424 C   0  0  0  0  0  0  0  0  0  0  0  0
   21.5645   18.8124   25.0692 H   0  0  0  0  0  0  0  0  0  0  0  0
   22.6394   19.5259   23.8846 H   0  0  0  0  0  0  0  0  0  0  0  0
   21.2894   18.0272   23.0786 C   0  0  0  0  0  0  0  0  0  0  0  0
   21.6994   18.2348   22.0850 H   0  0  0  0  0  0  0  0  0  0  0  0
   21.8587   17.1591   23.4375 H   0  0  0  0  0  0  0  0  0  0  0  0
   19.7899   17.6465   22.9726 C   0  0  0  0  0  0  0  0  0  0  0  0
   19.2489   18.0256   23.8498 H   0  0  0  0  0  0  0  0  0  0  0  0
   19.0937   18.1539   21.6846 C   0  0  0  0  0  0  0  0  0  0  0  0
   19.6495   17.8020   20.8058 H   0  0  0  0  0  0  0  0  0  0  0  0
   18.1083   17.6724   21.6265 H   0  0  0  0  0  0  0  0  0  0  0  0
   18.8692   19.6858   21.5660 C   0  0  0  0  0  0  0  0  0  0  0  0
   18.2775   20.0595   22.4115 H   0  0  0  0  0  0  0  0  0  0  0  0
   18.2393   19.8499   20.6810 H   0  0  0  0  0  0  0  0  0  0  0  0
   20.1631   20.5196   21.3782 C   0  0  0  0  0  0  0  0  0  0  0  0
   19.9617   21.2986   20.6301 H   0  0  0  0  0  0  0  0  0  0  0  0
   20.9534   19.9081   20.9283 H   0  0  0  0  0  0  0  0  0  0  0  0
   19.6904   16.2280   22.9753 O   0  0  0  0  0  0  0  0  0  0  0  0
   20.1752   15.9152   22.1841 H   0  0  0  0  0  0  0  0  0  0  0  0
  1  2  1  0  0  0  0
  1  3  1  0  0  0  0
  1  4  1  0  0  0  0
  4  5  1  0  0  0  0
  4  6  1  0  0  0  0
  4  7  1  0  0  0  0
  7  8  1  0  0  0  0
  7  9  1  0  0  0  0
  7 10  1  0  0  0  0
 10 11  1  0  0  0  0
 10 12  1  0  0  0  0
 10 13  1  0  0  0  0
 13 14  1  0  0  0  0
 13 15  1  0  0  0  0
 15 16  1  0  0  0  0
 15 17  1  0  0  0  0
 15 18  1  0  0  0  0
 18 19  1  0  0  0  0
 18 20  1  0  0  0  0
  1 21  1  0  0  0  0
 18 21  1  0  0  0  0
 21 22  1  0  0  0  0
 21 23  1  0  0  0  0
 13 24  1  0  0  0  0
 24 25  1  0  0  0  0
M  END
> <VConfSearch Rank>
961

> <Conf_Id>
140

> <Delta U+W>
-1.702

> <U+W>
9.211

> <U>
11.181

> <W>
-1.969

> <W(PB)>
-4.093

> <W(SA)>
2.124

> <Valence>
16.954

> <Coulomb>
-8.661

> <VdW>
2.887

> <VdW6>
-12.561

> <VdW12>
15.448

> <Bond>
0.433

> <Angle>
5.120

> <Pdih>
11.401

> <Idih>
0.000

> <Tether>
0.000

$$$$
VeraChem MOL file


 25 25  0  0  0  0  0  0  0  0999 V2000     
   20.3481   17.1806   23.1566 C   0  0  0  0  0  0  0  0  0  0  0  0
   21.2596   16.7368   23.5793 H   0  0  0  0  0  0  0  0  0  0  0  0
   19.6204   16.3599   23.0949 H   0  0  0  0  0  0  0  0  0  0  0  0
   20.6452   17.6575   21.7113 C   0  0  0  0  0  0  0  0  0  0  0  0
   21.6325   18.1297   21.6557 H   0  0  0  0  0  0  0  0  0  0  0  0
   20.7375   16.7578   21.0877 H   0  0  0  0  0  0  0  0  0  0  0  0
   19.5664   18.5741   21.0783 C   0  0  0  0  0  0  0  0  0  0  0  0
   18.5838   18.4027   21.5365 H   0  0  0  0  0  0  0  0  0  0  0  0
   19.4498   18.2706   20.0289 H   0  0  0  0  0  0  0  0  0  0  0  0
   19.9172   20.0867   21.0762 C   0  0  0  0  0  0  0  0  0  0  0  0
   20.8828   20.2319   20.5744 H   0  0  0  0  0  0  0  0  0  0  0  0
   19.1747   20.5949   20.4465 H   0  0  0  0  0  0  0  0  0  0  0  0
   19.9372   20.8021   22.4505 C   0  0  0  0  0  0  0  0  0  0  0  0
   18.9813   20.6292   22.9625 H   0  0  0  0  0  0  0  0  0  0  0  0
   21.1087   20.3770   23.3732 C   0  0  0  0  0  0  0  0  0  0  0  0
   21.9275   19.9590   22.7788 H   0  0  0  0  0  0  0  0  0  0  0  0
   21.5384   21.2698   23.8474 H   0  0  0  0  0  0  0  0  0  0  0  0
   20.7239   19.4007   24.5151 C   0  0  0  0  0  0  0  0  0  0  0  0
   20.2323   19.9847   25.3052 H   0  0  0  0  0  0  0  0  0  0  0  0
   21.6417   19.0013   24.9675 H   0  0  0  0  0  0  0  0  0  0  0  0
   19.7813   18.2271   24.1484 C   0  0  0  0  0  0  0  0  0  0  0  0
   18.8161   18.6056   23.7931 H   0  0  0  0  0  0  0  0  0  0  0  0
   19.5436   17.6969   25.0807 H   0  0  0  0  0  0  0  0  0  0  0  0
   20.0537   22.1968   22.1986 O   0  0  0  0  0  0  0  0  0  0  0  0
   20.9091   22.3245   21.7394 H   0  0  0  0  0  0  0  0  0  0  0  0
  1  2  1  0  0  0  0
  1  3  1  0  0  0  0
  1  4  1  0  0  0  0
  4  5  1  0  0  0  0
  4  6  1  0  0  0  0
  4  7  1  0  0  0  0
  7  8  1  0  0  0  0
  7  9  1  0  0  0  0
  7 10  1  0  0  0  0
 10 11  1  0  0  0  0
 10 12  1  0  0  0  0
 10 13  1  0  0  0  0
 13 14  1  0  0  0  0
 13 15  1  0  0  0  0
 15 16  1  0  0  0  0
 15 17  1  0  0  0  0
 15 18  1  0  0  0  0
 18 19  1  0  0  0  0
 18 20  1  0  0  0  0
  1 21  1  0  0  0  0
 18 21  1  0  0  0  0
 21 22  1  0  0  0  0
 21 23  1  0  0  0  0
 13 24  1  0  0  0  0
 24 25  1  0  0  0  0
M  END
> <VConfSearch Rank>
962

> <Conf_Id>
68

> <Delta U+W>
-1.765

> <U+W>
9.148

> <U>
11.181

> <W>
-2.032

> <W(PB)>
-4.147

> <W(SA)>
2.114

> <Valence>
16.955

> <Coulomb>
-8.661

> <VdW>
2.887

> <VdW6>
-12.561

> <VdW12>
15.448

> <Bond>
0.433

> <Angle>
5.121

> <Pdih>
11.402

> <Idih>
0.000

> <Tether>
0.000

$$$$
VeraChem MOL file


 25 25  0  0  0  0  0  0  0  0999 V2000     
   20.0596   20.4864   21.3274 C   0  0  0  0  0  0  0  0  0  0  0  0
   19.9759   21.3297   20.6282 H   0  0  0  0  0  0  0  0  0  0  0  0
   19.5964   19.6470   20.7965 H   0  0  0  0  0  0  0  0  0  0  0  0
   19.2511   20.8376   22.6035 C   0  0  0  0  0  0  0  0  0  0  0  0
   19.8992   21.2721   23.3753 H   0  0  0  0  0  0  0  0  0  0  0  0
   18.5469   21.6379   22.3381 H   0  0  0  0  0  0  0  0  0  0  0  0
   18.4108   19.6698   23.1838 C   0  0  0  0  0  0  0  0  0  0  0  0
   17.7372   19.2841   22.4062 H   0  0  0  0  0  0  0  0  0  0  0  0
   17.7552   20.0849   23.9614 H   0  0  0  0  0  0  0  0  0  0  0  0
   19.1986   18.4891   23.8113 C   0  0  0  0  0  0  0  0  0  0  0  0
   19.8555   18.8512   24.6113 H   0  0  0  0  0  0  0  0  0  0  0  0
   18.4609   17.8477   24.3122 H   0  0  0  0  0  0  0  0  0  0  0  0
   19.9895   17.6296   22.7912 C   0  0  0  0  0  0  0  0  0  0  0  0
   19.5770   17.7946   21.7891 H   0  0  0  0  0  0  0  0  0  0  0  0
   21.5147   17.8964   22.7627 C   0  0  0  0  0  0  0  0  0  0  0  0
   21.9711   17.4020   23.6304 H   0  0  0  0  0  0  0  0  0  0  0  0
   21.9365   17.4010   21.8785 H   0  0  0  0  0  0  0  0  0  0  0  0
   21.9751   19.3768   22.7786 C   0  0  0  0  0  0  0  0  0  0  0  0
   23.0723   19.3774   22.8319 H   0  0  0  0  0  0  0  0  0  0  0  0
   21.6532   19.8686   23.7038 H   0  0  0  0  0  0  0  0  0  0  0  0
   21.5727   20.2283   21.5485 C   0  0  0  0  0  0  0  0  0  0  0  0
   21.9936   19.7762   20.6402 H   0  0  0  0  0  0  0  0  0  0  0  0
   22.0670   21.2042   21.6498 H   0  0  0  0  0  0  0  0  0  0  0  0
   19.8016   16.2572   23.1134 O   0  0  0  0  0  0  0  0  0  0  0  0
   20.1591   16.1332   24.0165 H   0  0  0  0  0  0  0  0  0  0  0  0
  1  2  1  0  0  0  0
  1  3  1  0  0  0  0
  1  4  1  0  0  0  0
  4  5  1  0  0  0  0
  4  6  1  0  0  0  0
  4  7  1  0  0  0  0
  7  8  1  0  0  0  0
  7  9  1  0  0  0  0
  7 10  1  0  0  0  0
 10 11  1  0  0  0  0
 10 12  1  0  0  0  0
 10 13  1  0  0  0  0
 13 14  1  0  0  0  0
 13 15  1  0  0  0  0
 15 16  1  0  0  0  0
 15 17  1  0  0  0  0
 15 18  1  0  0  0  0
 18 19  1  0  0  0  0
 18 20  1  0  0  0  0
  1 21  1  0  0  0  0
 18 21  1  0  0  0  0
 21 22  1  0  0  0  0
 21 23  1  0  0  0  0
 13 24  1  0  0  0  0
 24 25  1  0  0  0  0
M  END
> <VConfSearch Rank>
963

> <Conf_Id>
165

> <Delta U+W>
-1.999

> <U+W>
8.915

> <U>
10.935

> <W>
-2.020

> <W(PB)>
-4.135

> <W(SA)>
2.115

> <Valence>
16.757

> <Coulomb>
-8.731

> <VdW>
2.908

> <VdW6>
-12.597

> <VdW12>
15.506

> <Bond>
0.434

> <Angle>
5.069

> <Pdih>
11.254

> <Idih>
0.000

> <Tether>
0.000

$$$$
VeraChem MOL file


 25 25  0  0  0  0  0  0  0  0999 V2000     
   18.9719   18.4211   21.6553 C   0  0  0  0  0  0  0  0  0  0  0  0
   18.1281   18.0470   21.0593 H   0  0  0  0  0  0  0  0  0  0  0  0
   19.7210   17.6236   21.5949 H   0  0  0  0  0  0  0  0  0  0  0  0
   18.4614   18.5865   23.1105 C   0  0  0  0  0  0  0  0  0  0  0  0
   17.4554   19.0255   23.0637 H   0  0  0  0  0  0  0  0  0  0  0  0
   18.3296   17.5918   23.5574 H   0  0  0  0  0  0  0  0  0  0  0  0
   19.3061   19.4692   24.0632 C   0  0  0  0  0  0  0  0  0  0  0  0
   18.7524   19.5537   25.0082 H   0  0  0  0  0  0  0  0  0  0  0  0
   19.3612   20.4956   23.6827 H   0  0  0  0  0  0  0  0  0  0  0  0
   20.7233   18.9409   24.4044 C   0  0  0  0  0  0  0  0  0  0  0  0
   21.1491   19.6094   25.1648 H   0  0  0  0  0  0  0  0  0  0  0  0
   20.6293   17.9580   24.8839 H   0  0  0  0  0  0  0  0  0  0  0  0
   21.7356   18.8286   23.2380 C   0  0  0  0  0  0  0  0  0  0  0  0
   21.5118   17.9307   22.6501 H   0  0  0  0  0  0  0  0  0  0  0  0
   21.7685   20.0555   22.2905 C   0  0  0  0  0  0  0  0  0  0  0  0
   21.3836   20.9492   22.7956 H   0  0  0  0  0  0  0  0  0  0  0  0
   22.8170   20.2872   22.0594 H   0  0  0  0  0  0  0  0  0  0  0  0
   21.0438   19.8428   20.9345 C   0  0  0  0  0  0  0  0  0  0  0  0
   21.4660   18.9619   20.4318 H   0  0  0  0  0  0  0  0  0  0  0  0
   21.2885   20.6963   20.2876 H   0  0  0  0  0  0  0  0  0  0  0  0
   19.4983   19.7160   20.9833 C   0  0  0  0  0  0  0  0  0  0  0  0
   19.1441   19.7157   19.9433 H   0  0  0  0  0  0  0  0  0  0  0  0
   19.0487   20.6083   21.4375 H   0  0  0  0  0  0  0  0  0  0  0  0
   23.0283   18.6647   23.8103 O   0  0  0  0  0  0  0  0  0  0  0  0
   22.9905   17.8592   24.3671 H   0  0  0  0  0  0  0  0  0  0  0  0
  1  2  1  0  0  0  0
  1  3  1  0  0  0  0
  1  4  1  0  0  0  0
  4  5  1  0  0  0  0
  4  6  1  0  0  0  0
  4  7  1  0  0  0  0
  7  8  1  0  0  0  0
  7  9  1  0  0  0  0
  7 10  1  0  0  0  0
 10 11  1  0  0  0  0
 10 12  1  0  0  0  0
 10 13  1  0  0  0  0
 13 14  1  0  0  0  0
 13 15  1  0  0  0  0
 15 16  1  0  0  0  0
 15 17  1  0  0  0  0
 15 18  1  0  0  0  0
 18 19  1  0  0  0  0
 18 20  1  0  0  0  0
  1 21  1  0  0  0  0
 18 21  1  0  0  0  0
 21 22  1  0  0  0  0
 21 23  1  0  0  0  0
 13 24  1  0  0  0  0
 24 25  1  0  0  0  0
M  END
> <VConfSearch Rank>
964

> <Conf_Id>
133

> <Delta U+W>
-2.139

> <U+W>
8.774

> <U>
10.905

> <W>
-2.131

> <W(PB)>
-4.281

> <W(SA)>
2.150

> <Valence>
16.378

> <Coulomb>
-8.448

> <VdW>
2.976

> <VdW6>
-12.570

> <VdW12>
15.545

> <Bond>
0.439

> <Angle>
5.049

> <Pdih>
10.889

> <Idih>
0.000

> <Tether>
0.000

$$$$
VeraChem MOL file


 25 25  0  0  0  0  0  0  0  0999 V2000     
   20.8185   18.2097   21.2333 C   0  0  0  0  0  0  0  0  0  0  0  0
   21.2208   17.6125   20.4035 H   0  0  0  0  0  0  0  0  0  0  0  0
   19.7414   18.2553   21.0371 H   0  0  0  0  0  0  0  0  0  0  0  0
   21.4473   19.6254   21.1558 C   0  0  0  0  0  0  0  0  0  0  0  0
   22.3318   19.7012   21.8012 H   0  0  0  0  0  0  0  0  0  0  0  0
   21.8270   19.7624   20.1340 H   0  0  0  0  0  0  0  0  0  0  0  0
   20.4626   20.7919   21.4324 C   0  0  0  0  0  0  0  0  0  0  0  0
   19.6115   20.7220   20.7413 H   0  0  0  0  0  0  0  0  0  0  0  0
   20.9746   21.7291   21.1750 H   0  0  0  0  0  0  0  0  0  0  0  0
   19.9332   20.9270   22.8852 C   0  0  0  0  0  0  0  0  0  0  0  0
   20.7670   21.0299   23.5897 H   0  0  0  0  0  0  0  0  0  0  0  0
   19.3928   21.8816   22.9409 H   0  0  0  0  0  0  0  0  0  0  0  0
   18.9723   19.7938   23.3288 C   0  0  0  0  0  0  0  0  0  0  0  0
   18.5716   19.2976   22.4371 H   0  0  0  0  0  0  0  0  0  0  0  0
   19.6104   18.7340   24.2601 C   0  0  0  0  0  0  0  0  0  0  0  0
   19.6867   19.1643   25.2678 H   0  0  0  0  0  0  0  0  0  0  0  0
   18.9234   17.8823   24.3457 H   0  0  0  0  0  0  0  0  0  0  0  0
   21.0162   18.2066   23.8732 C   0  0  0  0  0  0  0  0  0  0  0  0
   21.3425   17.5283   24.6733 H   0  0  0  0  0  0  0  0  0  0  0  0
   21.7484   19.0220   23.8868 H   0  0  0  0  0  0  0  0  0  0  0  0
   21.1065   17.4240   22.5391 C   0  0  0  0  0  0  0  0  0  0  0  0
   20.4416   16.5508   22.5839 H   0  0  0  0  0  0  0  0  0  0  0  0
   22.1245   17.0173   22.4666 H   0  0  0  0  0  0  0  0  0  0  0  0
   17.8806   20.3765   24.0318 O   0  0  0  0  0  0  0  0  0  0  0  0
   17.2692   19.6453   24.2598 H   0  0  0  0  0  0  0  0  0  0  0  0
  1  2  1  0  0  0  0
  1  3  1  0  0  0  0
  1  4  1  0  0  0  0
  4  5  1  0  0  0  0
  4  6  1  0  0  0  0
  4  7  1  0  0  0  0
  7  8  1  0  0  0  0
  7  9  1  0  0  0  0
  7 10  1  0  0  0  0
 10 11  1  0  0  0  0
 10 12  1  0  0  0  0
 10 13  1  0  0  0  0
 13 14  1  0  0  0  0
 13 15  1  0  0  0  0
 15 16  1  0  0  0  0
 15 17  1  0  0  0  0
 15 18  1  0  0  0  0
 18 19  1  0  0  0  0
 18 20  1  0  0  0  0
  1 21  1  0  0  0  0
 18 21  1  0  0  0  0
 21 22  1  0  0  0  0
 21 23  1  0  0  0  0
 13 24  1  0  0  0  0
 24 25  1  0  0  0  0
M  END
> <VConfSearch Rank>
965

> <Conf_Id>
95

> <Delta U+W>
-2.190

> <U+W>
8.723

> <U>
10.905

> <W>
-2.182

> <W(PB)>
-4.296

> <W(SA)>
2.114

> <Valence>
16.377

> <Coulomb>
-8.448

> <VdW>
2.976

> <VdW6>
-12.570

> <VdW12>
15.546

> <Bond>
0.439

> <Angle>
5.049

> <Pdih>
10.889

> <Idih>
0.000

> <Tether>
0.000

$$$$
VeraChem MOL file


 25 25  0  0  0  0  0  0  0  0999 V2000     
   18.9954   20.4119   23.0002 C   0  0  0  0  0  0  0  0  0  0  0  0
   18.2636   21.1686   23.3144 H   0  0  0  0  0  0  0  0  0  0  0  0
   18.5098   19.9281   22.1468 H   0  0  0  0  0  0  0  0  0  0  0  0
   19.1588   19.4166   24.1863 C   0  0  0  0  0  0  0  0  0  0  0  0
   19.0644   19.9954   25.1153 H   0  0  0  0  0  0  0  0  0  0  0  0
   18.3084   18.7214   24.1880 H   0  0  0  0  0  0  0  0  0  0  0  0
   20.4800   18.6102   24.2901 C   0  0  0  0  0  0  0  0  0  0  0  0
   20.4602   18.0607   25.2412 H   0  0  0  0  0  0  0  0  0  0  0  0
   21.3180   19.3035   24.4128 H   0  0  0  0  0  0  0  0  0  0  0  0
   20.7779   17.5729   23.1668 C   0  0  0  0  0  0  0  0  0  0  0  0
   21.8548   17.3594   23.1575 H   0  0  0  0  0  0  0  0  0  0  0  0
   20.2915   16.6333   23.4602 H   0  0  0  0  0  0  0  0  0  0  0  0
   20.3139   17.8995   21.7247 C   0  0  0  0  0  0  0  0  0  0  0  0
   19.2316   18.0641   21.7457 H   0  0  0  0  0  0  0  0  0  0  0  0
   21.0085   19.0971   21.0150 C   0  0  0  0  0  0  0  0  0  0  0  0
   21.9273   18.7235   20.5432 H   0  0  0  0  0  0  0  0  0  0  0  0
   20.3662   19.4276   20.1889 H   0  0  0  0  0  0  0  0  0  0  0  0
   21.4094   20.3319   21.8668 C   0  0  0  0  0  0  0  0  0  0  0  0
   21.9755   21.0133   21.2172 H   0  0  0  0  0  0  0  0  0  0  0  0
   22.1431   20.0286   22.6203 H   0  0  0  0  0  0  0  0  0  0  0  0
   20.2627   21.1630   22.5133 C   0  0  0  0  0  0  0  0  0  0  0  0
   19.9317   21.9004   21.7693 H   0  0  0  0  0  0  0  0  0  0  0  0
   20.6754   21.7512   23.3440 H   0  0  0  0  0  0  0  0  0  0  0  0
   20.5496   16.7428   20.9302 O   0  0  0  0  0  0  0  0  0  0  0  0
   20.0553   16.0071   21.3479 H   0  0  0  0  0  0  0  0  0  0  0  0
  1  2  1  0  0  0  0
  1  3  1  0  0  0  0
  1  4  1  0  0  0  0
  4  5  1  0  0  0  0
  4  6  1  0  0  0  0
  4  7  1  0  0  0  0
  7  8  1  0  0  0  0
  7  9  1  0  0  0  0
  7 10  1  0  0  0  0
 10 11  1  0  0  0  0
 10 12  1  0  0  0  0
 10 13  1  0  0  0  0
 13 14  1  0  0  0  0
 13 15  1  0  0  0  0
 15 16  1  0  0  0  0
 15 17  1  0  0  0  0
 15 18  1  0  0  0  0
 18 19  1  0  0  0  0
 18 20  1  0  0  0  0
  1 21  1  0  0  0  0
 18 21  1  0  0  0  0
 21 22  1  0  0  0  0
 21 23  1  0  0  0  0
 13 24  1  0  0  0  0
 24 25  1  0  0  0  0
M  END
> <VConfSearch Rank>
966

> <Conf_Id>
161

> <Delta U+W>
2.120

> <U+W>
13.033

> <U>
15.076

> <W>
-2.043

> <W(PB)>
-4.186

> <W(SA)>
2.143

> <Valence>
18.884

> <Coulomb>
-8.074

> <VdW>
4.266

> <VdW6>
-13.486

> <VdW12>
17.752

> <Bond>
0.713

> <Angle>
8.955

> <Pdih>
9.215

> <Idih>
0.000

> <Tether>
0.000

$$$$
VeraChem MOL file


 25 25  0  0  0  0  0  0  0  0999 V2000     
   19.8153   20.8635   21.6820 C   0  0  0  0  0  0  0  0  0  0  0  0
   19.4273   21.8484   21.3878 H   0  0  0  0  0  0  0  0  0  0  0  0
   20.1111   20.3867   20.7389 H   0  0  0  0  0  0  0  0  0  0  0  0
   18.6574   20.0688   22.3356 C   0  0  0  0  0  0  0  0  0  0  0  0
   18.5863   20.2937   23.4083 H   0  0  0  0  0  0  0  0  0  0  0  0
   17.7240   20.4480   21.8972 H   0  0  0  0  0  0  0  0  0  0  0  0
   18.6823   18.5356   22.0831 C   0  0  0  0  0  0  0  0  0  0  0  0
   19.0294   18.3069   21.0665 H   0  0  0  0  0  0  0  0  0  0  0  0
   17.6395   18.1914   22.1180 H   0  0  0  0  0  0  0  0  0  0  0  0
   19.4644   17.7039   23.1325 C   0  0  0  0  0  0  0  0  0  0  0  0
   19.3605   18.1626   24.1234 H   0  0  0  0  0  0  0  0  0  0  0  0
   18.9700   16.7274   23.2197 H   0  0  0  0  0  0  0  0  0  0  0  0
   20.9523   17.4164   22.8080 C   0  0  0  0  0  0  0  0  0  0  0  0
   20.9836   16.7057   21.9697 H   0  0  0  0  0  0  0  0  0  0  0  0
   21.8188   18.6351   22.4146 C   0  0  0  0  0  0  0  0  0  0  0  0
   22.8735   18.3299   22.4398 H   0  0  0  0  0  0  0  0  0  0  0  0
   21.6312   18.8808   21.3638 H   0  0  0  0  0  0  0  0  0  0  0  0
   21.6376   19.8850   23.3170 C   0  0  0  0  0  0  0  0  0  0  0  0
   22.6151   20.1655   23.7324 H   0  0  0  0  0  0  0  0  0  0  0  0
   21.0153   19.6579   24.1900 H   0  0  0  0  0  0  0  0  0  0  0  0
   21.0555   21.1149   22.5800 C   0  0  0  0  0  0  0  0  0  0  0  0
   21.8441   21.5589   21.9574 H   0  0  0  0  0  0  0  0  0  0  0  0
   20.8024   21.8770   23.3297 H   0  0  0  0  0  0  0  0  0  0  0  0
   21.5393   16.8049   23.9482 O   0  0  0  0  0  0  0  0  0  0  0  0
   21.6167   17.5114   24.6210 H   0  0  0  0  0  0  0  0  0  0  0  0
  1  2  1  0  0  0  0
  1  3  1  0  0  0  0
  1  4  1  0  0  0  0
  4  5  1  0  0  0  0
  4  6  1  0  0  0  0
  4  7  1  0  0  0  0
  7  8  1  0  0  0  0
  7  9  1  0  0  0  0
  7 10  1  0  0  0  0
 10 11  1  0  0  0  0
 10 12  1  0  0  0  0
 10 13  1  0  0  0  0
 13 14  1  0  0  0  0
 13 15  1  0  0  0  0
 15 16  1  0  0  0  0
 15 17  1  0  0  0  0
 15 18  1  0  0  0  0
 18 19  1  0  0  0  0
 18 20  1  0  0  0  0
  1 21  1  0  0  0  0
 18 21  1  0  0  0  0
 21 22  1  0  0  0  0
 21 23  1  0  0  0  0
 13 24  1  0  0  0  0
 24 25  1  0  0  0  0
M  END
> <VConfSearch Rank>
967

> <Conf_Id>
164

> <Delta U+W>
0.008

> <U+W>
10.922

> <U>
12.433

> <W>
-1.511

> <W(PB)>
-3.669

> <W(SA)>
2.157

> <Valence>
19.007

> <Coulomb>
-9.373

> <VdW>
2.799

> <VdW6>
-12.597

> <VdW12>
15.396

> <Bond>
0.425

> <Angle>
4.784

> <Pdih>
13.799

> <Idih>
0.000

> <Tether>
0.000

$$$$
VeraChem MOL file


 25 25  0  0  0  0  0  0  0  0999 V2000     
   18.7267   18.4154   23.0382 C   0  0  0  0  0  0  0  0  0  0  0  0
   19.0112   18.9596   23.9459 H   0  0  0  0  0  0  0  0  0  0  0  0
   17.7697   17.9388   23.2903 H   0  0  0  0  0  0  0  0  0  0  0  0
   19.7419   17.2823   22.7467 C   0  0  0  0  0  0  0  0  0  0  0  0
   19.7356   16.6046   23.6114 H   0  0  0  0  0  0  0  0  0  0  0  0
   19.3839   16.6838   21.8980 H   0  0  0  0  0  0  0  0  0  0  0  0
   21.2112   17.7001   22.4832 C   0  0  0  0  0  0  0  0  0  0  0  0
   21.3450   17.9980   21.4370 H   0  0  0  0  0  0  0  0  0  0  0  0
   21.8290   16.7983   22.5930 H   0  0  0  0  0  0  0  0  0  0  0  0
   21.7712   18.7901   23.4355 C   0  0  0  0  0  0  0  0  0  0  0  0
   21.2270   18.7967   24.3877 H   0  0  0  0  0  0  0  0  0  0  0  0
   22.7999   18.5027   23.6911 H   0  0  0  0  0  0  0  0  0  0  0  0
   21.8370   20.2143   22.8291 C   0  0  0  0  0  0  0  0  0  0  0  0
   22.3846   20.1564   21.8776 H   0  0  0  0  0  0  0  0  0  0  0  0
   20.4821   20.9176   22.5641 C   0  0  0  0  0  0  0  0  0  0  0  0
   19.8956   20.9942   23.4876 H   0  0  0  0  0  0  0  0  0  0  0  0
   20.7092   21.9533   22.2777 H   0  0  0  0  0  0  0  0  0  0  0  0
   19.6374   20.2975   21.4193 C   0  0  0  0  0  0  0  0  0  0  0  0
   20.2807   19.7545   20.7176 H   0  0  0  0  0  0  0  0  0  0  0  0
   19.2122   21.1172   20.8240 H   0  0  0  0  0  0  0  0  0  0  0  0
   18.4559   19.4047   21.8773 C   0  0  0  0  0  0  0  0  0  0  0  0
   18.0711   18.8505   21.0106 H   0  0  0  0  0  0  0  0  0  0  0  0
   17.6380   20.0666   22.1934 H   0  0  0  0  0  0  0  0  0  0  0  0
   22.5779   21.0305   23.7258 O   0  0  0  0  0  0  0  0  0  0  0  0
   22.0650   21.0610   24.5594 H   0  0  0  0  0  0  0  0  0  0  0  0
  1  2  1  0  0  0  0
  1  3  1  0  0  0  0
  1  4  1  0  0  0  0
  4  5  1  0  0  0  0
  4  6  1  0  0  0  0
  4  7  1  0  0  0  0
  7  8  1  0  0  0  0
  7  9  1  0  0  0  0
  7 10  1  0  0  0  0
 10 11  1  0  0  0  0
 10 12  1  0  0  0  0
 10 13  1  0  0  0  0
 13 14  1  0  0  0  0
 13 15  1  0  0  0  0
 15 16  1  0  0  0  0
 15 17  1  0  0  0  0
 15 18  1  0  0  0  0
 18 19  1  0  0  0  0
 18 20  1  0  0  0  0
  1 21  1  0  0  0  0
 18 21  1  0  0  0  0
 21 22  1  0  0  0  0
 21 23  1  0  0  0  0
 13 24  1  0  0  0  0
 24 25  1  0  0  0  0
M  END
> <VConfSearch Rank>
968

> <Conf_Id>
15

> <Delta U+W>
-1.271

> <U+W>
9.643

> <U>
11.413

> <W>
-1.770

> <W(PB)>
-3.908

> <W(SA)>
2.138

> <Valence>
17.496

> <Coulomb>
-8.736

> <VdW>
2.653

> <VdW6>
-12.485

> <VdW12>
15.138

> <Bond>
0.414

> <Angle>
5.295

> <Pdih>
11.787

> <Idih>
0.000

> <Tether>
0.000

$$$$
VeraChem MOL file


 25 25  0  0  0  0  0  0  0  0999 V2000     
   21.2541   20.0623   24.1055 C   0  0  0  0  0  0  0  0  0  0  0  0
   21.9338   20.4247   24.8889 H   0  0  0  0  0  0  0  0  0  0  0  0
   20.2491   20.1855   24.5283 H   0  0  0  0  0  0  0  0  0  0  0  0
   21.4471   20.9874   22.8751 C   0  0  0  0  0  0  0  0  0  0  0  0
   21.0832   21.9891   23.1414 H   0  0  0  0  0  0  0  0  0  0  0  0
   22.5224   21.1021   22.6819 H   0  0  0  0  0  0  0  0  0  0  0  0
   20.7623   20.5448   21.5596 C   0  0  0  0  0  0  0  0  0  0  0  0
   21.3578   19.7574   21.0830 H   0  0  0  0  0  0  0  0  0  0  0  0
   20.7980   21.3879   20.8563 H   0  0  0  0  0  0  0  0  0  0  0  0
   19.2860   20.1014   21.7313 C   0  0  0  0  0  0  0  0  0  0  0  0
   18.9243   20.3285   22.7403 H   0  0  0  0  0  0  0  0  0  0  0  0
   18.6613   20.7094   21.0641 H   0  0  0  0  0  0  0  0  0  0  0  0
   19.0193   18.6163   21.3942 C   0  0  0  0  0  0  0  0  0  0  0  0
   19.0608   18.5112   20.3006 H   0  0  0  0  0  0  0  0  0  0  0  0
   20.0091   17.5818   21.9897 C   0  0  0  0  0  0  0  0  0  0  0  0
   19.5844   16.5866   21.8011 H   0  0  0  0  0  0  0  0  0  0  0  0
   20.9473   17.5905   21.4221 H   0  0  0  0  0  0  0  0  0  0  0  0
   20.3141   17.6930   23.5074 C   0  0  0  0  0  0  0  0  0  0  0  0
   20.5253   16.6751   23.8630 H   0  0  0  0  0  0  0  0  0  0  0  0
   19.4273   18.0158   24.0678 H   0  0  0  0  0  0  0  0  0  0  0  0
   21.5503   18.5600   23.8731 C   0  0  0  0  0  0  0  0  0  0  0  0
   22.3578   18.4301   23.1401 H   0  0  0  0  0  0  0  0  0  0  0  0
   21.9487   18.1639   24.8173 H   0  0  0  0  0  0  0  0  0  0  0  0
   17.7083   18.2902   21.8339 O   0  0  0  0  0  0  0  0  0  0  0  0
   17.7427   18.3037   22.8115 H   0  0  0  0  0  0  0  0  0  0  0  0
  1  2  1  0  0  0  0
  1  3  1  0  0  0  0
  1  4  1  0  0  0  0
  4  5  1  0  0  0  0
  4  6  1  0  0  0  0
  4  7  1  0  0  0  0
  7  8  1  0  0  0  0
  7  9  1  0  0  0  0
  7 10  1  0  0  0  0
 10 11  1  0  0  0  0
 10 12  1  0  0  0  0
 10 13  1  0  0  0  0
 13 14  1  0  0  0  0
 13 15  1  0  0  0  0
 15 16  1  0  0  0  0
 15 17  1  0  0  0  0
 15 18  1  0  0  0  0
 18 19  1  0  0  0  0
 18 20  1  0  0  0  0
  1 21  1  0  0  0  0
 18 21  1  0  0  0  0
 21 22  1  0  0  0  0
 21 23  1  0  0  0  0
 13 24  1  0  0  0  0
 24 25  1  0  0  0  0
M  END
> <VConfSearch Rank>
969

> <Conf_Id>
115

> <Delta U+W>
0.038

> <U+W>
10.952

> <U>
12.526

> <W>
-1.575

> <W(PB)>
-3.698

> <W(SA)>
2.123

> <Valence>
19.016

> <Coulomb>
-9.226

> <VdW>
2.737

> <VdW6>
-12.612

> <VdW12>
15.349

> <Bond>
0.421

> <Angle>
4.883

> <Pdih>
13.711

> <Idih>
0.000

> <Tether>
0.000

$$$$
VeraChem MOL file


 25 25  0  0  0  0  0  0  0  0999 V2000     
   21.2502   20.1648   24.3647 C   0  0  0  0  0  0  0  0  0  0  0  0
   21.4007   20.3070   25.4437 H   0  0  0  0  0  0  0  0  0  0  0  0
   22.0868   20.6859   23.8799 H   0  0  0  0  0  0  0  0  0  0  0  0
   19.9129   20.8463   23.9925 C   0  0  0  0  0  0  0  0  0  0  0  0
   19.0904   20.4043   24.5711 H   0  0  0  0  0  0  0  0  0  0  0  0
   19.9752   21.8930   24.3206 H   0  0  0  0  0  0  0  0  0  0  0  0
   19.5690   20.8399   22.4849 C   0  0  0  0  0  0  0  0  0  0  0  0
   20.4651   21.0573   21.8885 H   0  0  0  0  0  0  0  0  0  0  0  0
   18.8853   21.6799   22.3003 H   0  0  0  0  0  0  0  0  0  0  0  0
   18.8616   19.5473   21.9965 C   0  0  0  0  0  0  0  0  0  0  0  0
   18.5060   18.9439   22.8410 H   0  0  0  0  0  0  0  0  0  0  0  0
   17.9564   19.8542   21.4551 H   0  0  0  0  0  0  0  0  0  0  0  0
   19.7106   18.6750   21.0446 C   0  0  0  0  0  0  0  0  0  0  0  0
   20.3158   19.3326   20.4042 H   0  0  0  0  0  0  0  0  0  0  0  0
   20.6432   17.6679   21.7534 C   0  0  0  0  0  0  0  0  0  0  0  0
   20.0490   16.9631   22.3500 H   0  0  0  0  0  0  0  0  0  0  0  0
   21.1305   17.0645   20.9764 H   0  0  0  0  0  0  0  0  0  0  0  0
   21.7584   18.2951   22.6249 C   0  0  0  0  0  0  0  0  0  0  0  0
   22.1991   19.1628   22.1162 H   0  0  0  0  0  0  0  0  0  0  0  0
   22.5699   17.5578   22.6975 H   0  0  0  0  0  0  0  0  0  0  0  0
   21.3224   18.6479   24.0711 C   0  0  0  0  0  0  0  0  0  0  0  0
   22.0694   18.2188   24.7531 H   0  0  0  0  0  0  0  0  0  0  0  0
   20.3745   18.1608   24.3357 H   0  0  0  0  0  0  0  0  0  0  0  0
   18.8223   17.9285   20.2217 O   0  0  0  0  0  0  0  0  0  0  0  0
   19.3770   17.4241   19.5907 H   0  0  0  0  0  0  0  0  0  0  0  0
  1  2  1  0  0  0  0
  1  3  1  0  0  0  0
  1  4  1  0  0  0  0
  4  5  1  0  0  0  0
  4  6  1  0  0  0  0
  4  7  1  0  0  0  0
  7  8  1  0  0  0  0
  7  9  1  0  0  0  0
  7 10  1  0  0  0  0
 10 11  1  0  0  0  0
 10 12  1  0  0  0  0
 10 13  1  0  0  0  0
 13 14  1  0  0  0  0
 13 15  1  0  0  0  0
 15 16  1  0  0  0  0
 15 17  1  0  0  0  0
 15 18  1  0  0  0  0
 18 19  1  0  0  0  0
 18 20  1  0  0  0  0
  1 21  1  0  0  0  0
 18 21  1  0  0  0  0
 21 22  1  0  0  0  0
 21 23  1  0  0  0  0
 13 24  1  0  0  0  0
 24 25  1  0  0  0  0
M  END
> <VConfSearch Rank>
970

> <Conf_Id>
30

> <Delta U+W>
0.000

> <U+W>
10.913

> <U>
13.140

> <W>
-2.227

> <W(PB)>
-4.367

> <W(SA)>
2.140

> <Valence>
19.155

> <Coulomb>
-8.157

> <VdW>
2.142

> <VdW6>
-11.576

> <VdW12>
13.718

> <Bond>
0.294

> <Angle>
3.547

> <Pdih>
15.314

> <Idih>
0.000

> <Tether>
0.000

$$$$
VeraChem MOL file


 25 25  0  0  0  0  0  0  0  0999 V2000     
   21.2139   20.7151   21.3993 C   0  0  0  0  0  0  0  0  0  0  0  0
   21.2124   20.8807   20.3133 H   0  0  0  0  0  0  0  0  0  0  0  0
   21.8903   21.4747   21.8143 H   0  0  0  0  0  0  0  0  0  0  0  0
   21.8210   19.3188   21.6823 C   0  0  0  0  0  0  0  0  0  0  0  0
   22.7090   19.2009   21.0464 H   0  0  0  0  0  0  0  0  0  0  0  0
   22.2084   19.2866   22.7072 H   0  0  0  0  0  0  0  0  0  0  0  0
   20.8582   18.1349   21.4120 C   0  0  0  0  0  0  0  0  0  0  0  0
   21.3368   17.4457   20.7030 H   0  0  0  0  0  0  0  0  0  0  0  0
   19.9498   18.4751   20.9013 H   0  0  0  0  0  0  0  0  0  0  0  0
   20.4746   17.3300   22.6794 C   0  0  0  0  0  0  0  0  0  0  0  0
   19.6560   16.6452   22.4207 H   0  0  0  0  0  0  0  0  0  0  0  0
   21.3244   16.6926   22.9564 H   0  0  0  0  0  0  0  0  0  0  0  0
   20.0724   18.1474   23.9325 C   0  0  0  0  0  0  0  0  0  0  0  0
   20.9643   18.6363   24.3467 H   0  0  0  0  0  0  0  0  0  0  0  0
   18.9842   19.2228   23.6946 C   0  0  0  0  0  0  0  0  0  0  0  0
   18.2988   18.9025   22.8995 H   0  0  0  0  0  0  0  0  0  0  0  0
   18.3667   19.2896   24.6002 H   0  0  0  0  0  0  0  0  0  0  0  0
   19.5261   20.6535   23.4165 C   0  0  0  0  0  0  0  0  0  0  0  0
   20.4206   20.8640   24.0181 H   0  0  0  0  0  0  0  0  0  0  0  0
   18.7626   21.3585   23.7732 H   0  0  0  0  0  0  0  0  0  0  0  0
   19.7779   20.9815   21.9239 C   0  0  0  0  0  0  0  0  0  0  0  0
   19.5770   22.0514   21.7753 H   0  0  0  0  0  0  0  0  0  0  0  0
   19.0366   20.4693   21.2974 H   0  0  0  0  0  0  0  0  0  0  0  0
   19.5868   17.2230   24.8989 O   0  0  0  0  0  0  0  0  0  0  0  0
   19.4099   17.7352   25.7155 H   0  0  0  0  0  0  0  0  0  0  0  0
  1  2  1  0  0  0  0
  1  3  1  0  0  0  0
  1  4  1  0  0  0  0
  4  5  1  0  0  0  0
  4  6  1  0  0  0  0
  4  7  1  0  0  0  0
  7  8  1  0  0  0  0
  7  9  1  0  0  0  0
  7 10  1  0  0  0  0
 10 11  1  0  0  0  0
 10 12  1  0  0  0  0
 10 13  1  0  0  0  0
 13 14  1  0  0  0  0
 13 15  1  0  0  0  0
 15 16  1  0  0  0  0
 15 17  1  0  0  0  0
 15 18  1  0  0  0  0
 18 19  1  0  0  0  0
 18 20  1  0  0  0  0
  1 21  1  0  0  0  0
 18 21  1  0  0  0  0
 21 22  1  0  0  0  0
 21 23  1  0  0  0  0
 13 24  1  0  0  0  0
 24 25  1  0  0  0  0
M  END
> <VConfSearch Rank>
971

> <Conf_Id>
162

> <Delta U+W>
0.219

> <U+W>
11.132

> <U>
13.296

> <W>
-2.164

> <W(PB)>
-4.311

> <W(SA)>
2.148

> <Valence>
18.607

> <Coulomb>
-8.339

> <VdW>
3.028

> <VdW6>
-12.271

> <VdW12>
15.299

> <Bond>
0.423

> <Angle>
4.488

> <Pdih>
13.696

> <Idih>
0.000

> <Tether>
0.000

$$$$
VeraChem MOL file


 25 25  0  0  0  0  0  0  0  0999 V2000     
   21.8993   18.0544   22.1936 C   0  0  0  0  0  0  0  0  0  0  0  0
   22.1245   18.7580   21.3822 H   0  0  0  0  0  0  0  0  0  0  0  0
   22.6987   17.3026   22.1418 H   0  0  0  0  0  0  0  0  0  0  0  0
   22.0070   18.7732   23.5616 C   0  0  0  0  0  0  0  0  0  0  0  0
   21.4587   18.2207   24.3365 H   0  0  0  0  0  0  0  0  0  0  0  0
   23.0624   18.7268   23.8635 H   0  0  0  0  0  0  0  0  0  0  0  0
   21.6069   20.2750   23.5535 C   0  0  0  0  0  0  0  0  0  0  0  0
   21.9232   20.7649   22.6229 H   0  0  0  0  0  0  0  0  0  0  0  0
   22.1868   20.7620   24.3495 H   0  0  0  0  0  0  0  0  0  0  0  0
   20.1117   20.5629   23.8479 C   0  0  0  0  0  0  0  0  0  0  0  0
   19.7204   19.8224   24.5564 H   0  0  0  0  0  0  0  0  0  0  0  0
   20.0533   21.5214   24.3800 H   0  0  0  0  0  0  0  0  0  0  0  0
   19.1790   20.6844   22.6164 C   0  0  0  0  0  0  0  0  0  0  0  0
   19.4268   21.6218   22.0978 H   0  0  0  0  0  0  0  0  0  0  0  0
   19.2685   19.5446   21.5740 C   0  0  0  0  0  0  0  0  0  0  0  0
   18.4243   19.6396   20.8788 H   0  0  0  0  0  0  0  0  0  0  0  0
   20.1545   19.7025   20.9497 H   0  0  0  0  0  0  0  0  0  0  0  0
   19.2619   18.1135   22.1736 C   0  0  0  0  0  0  0  0  0  0  0  0
   18.4235   17.5525   21.7392 H   0  0  0  0  0  0  0  0  0  0  0  0
   19.0516   18.1408   23.2493 H   0  0  0  0  0  0  0  0  0  0  0  0
   20.5630   17.3143   21.9205 C   0  0  0  0  0  0  0  0  0  0  0  0
   20.5691   16.9728   20.8764 H   0  0  0  0  0  0  0  0  0  0  0  0
   20.5306   16.4027   22.5325 H   0  0  0  0  0  0  0  0  0  0  0  0
   17.8400   20.7600   23.0913 O   0  0  0  0  0  0  0  0  0  0  0  0
   17.2649   20.8337   22.3020 H   0  0  0  0  0  0  0  0  0  0  0  0
  1  2  1  0  0  0  0
  1  3  1  0  0  0  0
  1  4  1  0  0  0  0
  4  5  1  0  0  0  0
  4  6  1  0  0  0  0
  4  7  1  0  0  0  0
  7  8  1  0  0  0  0
  7  9  1  0  0  0  0
  7 10  1  0  0  0  0
 10 11  1  0  0  0  0
 10 12  1  0  0  0  0
 10 13  1  0  0  0  0
 13 14  1  0  0  0  0
 13 15  1  0  0  0  0
 15 16  1  0  0  0  0
 15 17  1  0  0  0  0
 15 18  1  0  0  0  0
 18 19  1  0  0  0  0
 18 20  1  0  0  0  0
  1 21  1  0  0  0  0
 18 21  1  0  0  0  0
 21 22  1  0  0  0  0
 21 23  1  0  0  0  0
 13 24  1  0  0  0  0
 24 25  1  0  0  0  0
M  END
> <VConfSearch Rank>
972

> <Conf_Id>
155

> <Delta U+W>
0.339

> <U+W>
11.252

> <U>
13.420

> <W>
-2.167

> <W(PB)>
-4.325

> <W(SA)>
2.157

> <Valence>
18.609

> <Coulomb>
-8.052

> <VdW>
2.863

> <VdW6>
-12.524

> <VdW12>
15.387

> <Bond>
0.430

> <Angle>
4.724

> <Pdih>
13.455

> <Idih>
0.000

> <Tether>
0.000

$$$$
VeraChem MOL file


 25 25  0  0  0  0  0  0  0  0999 V2000     
   19.6676   18.0518   24.1562 C   0  0  0  0  0  0  0  0  0  0  0  0
   18.6716   18.3260   24.5293 H   0  0  0  0  0  0  0  0  0  0  0  0
   19.9663   17.1709   24.7406 H   0  0  0  0  0  0  0  0  0  0  0  0
   19.5516   17.5942   22.6784 C   0  0  0  0  0  0  0  0  0  0  0  0
   20.5199   17.2106   22.3416 H   0  0  0  0  0  0  0  0  0  0  0  0
   18.9025   16.7083   22.6553 H   0  0  0  0  0  0  0  0  0  0  0  0
   18.9724   18.6120   21.6529 C   0  0  0  0  0  0  0  0  0  0  0  0
   17.8785   18.5144   21.6745 H   0  0  0  0  0  0  0  0  0  0  0  0
   19.2743   18.3089   20.6411 H   0  0  0  0  0  0  0  0  0  0  0  0
   19.2977   20.1176   21.8509 C   0  0  0  0  0  0  0  0  0  0  0  0
   18.6946   20.6814   21.1272 H   0  0  0  0  0  0  0  0  0  0  0  0
   18.9007   20.4472   22.8150 H   0  0  0  0  0  0  0  0  0  0  0  0
   20.7786   20.5716   21.6927 C   0  0  0  0  0  0  0  0  0  0  0  0
   20.9028   21.5100   22.2520 H   0  0  0  0  0  0  0  0  0  0  0  0
   21.8855   19.5915   22.1560 C   0  0  0  0  0  0  0  0  0  0  0  0
   21.8188   18.6727   21.5662 H   0  0  0  0  0  0  0  0  0  0  0  0
   22.8515   20.0204   21.8587 H   0  0  0  0  0  0  0  0  0  0  0  0
   21.9821   19.2679   23.6773 C   0  0  0  0  0  0  0  0  0  0  0  0
   22.6058   20.0450   24.1398 H   0  0  0  0  0  0  0  0  0  0  0  0
   22.5397   18.3304   23.8061 H   0  0  0  0  0  0  0  0  0  0  0  0
   20.6669   19.1960   24.4968 C   0  0  0  0  0  0  0  0  0  0  0  0
   20.1680   20.1698   24.4694 H   0  0  0  0  0  0  0  0  0  0  0  0
   20.9416   19.0791   25.5541 H   0  0  0  0  0  0  0  0  0  0  0  0
   21.0093   20.8340   20.3128 O   0  0  0  0  0  0  0  0  0  0  0  0
   20.3405   21.4932   20.0345 H   0  0  0  0  0  0  0  0  0  0  0  0
  1  2  1  0  0  0  0
  1  3  1  0  0  0  0
  1  4  1  0  0  0  0
  4  5  1  0  0  0  0
  4  6  1  0  0  0  0
  4  7  1  0  0  0  0
  7  8  1  0  0  0  0
  7  9  1  0  0  0  0
  7 10  1  0  0  0  0
 10 11  1  0  0  0  0
 10 12  1  0  0  0  0
 10 13  1  0  0  0  0
 13 14  1  0  0  0  0
 13 15  1  0  0  0  0
 15 16  1  0  0  0  0
 15 17  1  0  0  0  0
 15 18  1  0  0  0  0
 18 19  1  0  0  0  0
 18 20  1  0  0  0  0
  1 21  1  0  0  0  0
 18 21  1  0  0  0  0
 21 22  1  0  0  0  0
 21 23  1  0  0  0  0
 13 24  1  0  0  0  0
 24 25  1  0  0  0  0
M  END
> <VConfSearch Rank>
973

> <Conf_Id>
146

> <Delta U+W>
2.553

> <U+W>
13.466

> <U>
15.643

> <W>
-2.176

> <W(PB)>
-4.307

> <W(SA)>
2.131

> <Valence>
18.916

> <Coulomb>
-7.506

> <VdW>
4.232

> <VdW6>
-13.632

> <VdW12>
17.864

> <Bond>
0.735

> <Angle>
9.140

> <Pdih>
9.042

> <Idih>
0.000

> <Tether>
0.000

$$$$
VeraChem MOL file


 25 25  0  0  0  0  0  0  0  0999 V2000     
   19.9250   20.9015   23.8532 C   0  0  0  0  0  0  0  0  0  0  0  0
   19.0738   21.5723   23.6747 H   0  0  0  0  0  0  0  0  0  0  0  0
   20.4433   21.3082   24.7323 H   0  0  0  0  0  0  0  0  0  0  0  0
   20.9053   20.9899   22.6567 C   0  0  0  0  0  0  0  0  0  0  0  0
   21.2517   22.0306   22.5956 H   0  0  0  0  0  0  0  0  0  0  0  0
   21.8118   20.4095   22.8630 H   0  0  0  0  0  0  0  0  0  0  0  0
   20.3244   20.6168   21.2697 C   0  0  0  0  0  0  0  0  0  0  0  0
   21.0941   20.8396   20.5181 H   0  0  0  0  0  0  0  0  0  0  0  0
   19.4811   21.2815   21.0384 H   0  0  0  0  0  0  0  0  0  0  0  0
   19.8761   19.1458   21.0678 C   0  0  0  0  0  0  0  0  0  0  0  0
   18.8738   18.9936   21.4803 H   0  0  0  0  0  0  0  0  0  0  0  0
   19.7542   18.9911   19.9872 H   0  0  0  0  0  0  0  0  0  0  0  0
   20.8522   18.0777   21.6252 C   0  0  0  0  0  0  0  0  0  0  0  0
   21.8499   18.5198   21.7496 H   0  0  0  0  0  0  0  0  0  0  0  0
   20.4007   17.4445   22.9657 C   0  0  0  0  0  0  0  0  0  0  0  0
   19.3897   17.0326   22.8474 H   0  0  0  0  0  0  0  0  0  0  0  0
   21.0500   16.5829   23.1691 H   0  0  0  0  0  0  0  0  0  0  0  0
   20.4389   18.3575   24.2213 C   0  0  0  0  0  0  0  0  0  0  0  0
   21.4499   18.7521   24.3857 H   0  0  0  0  0  0  0  0  0  0  0  0
   20.2372   17.7160   25.0901 H   0  0  0  0  0  0  0  0  0  0  0  0
   19.3872   19.4968   24.2300 C   0  0  0  0  0  0  0  0  0  0  0  0
   18.9733   19.5719   25.2449 H   0  0  0  0  0  0  0  0  0  0  0  0
   18.5274   19.2318   23.6044 H   0  0  0  0  0  0  0  0  0  0  0  0
   20.9480   17.0258   20.6714 O   0  0  0  0  0  0  0  0  0  0  0  0
   21.6120   16.3921   21.0143 H   0  0  0  0  0  0  0  0  0  0  0  0
  1  2  1  0  0  0  0
  1  3  1  0  0  0  0
  1  4  1  0  0  0  0
  4  5  1  0  0  0  0
  4  6  1  0  0  0  0
  4  7  1  0  0  0  0
  7  8  1  0  0  0  0
  7  9  1  0  0  0  0
  7 10  1  0  0  0  0
 10 11  1  0  0  0  0
 10 12  1  0  0  0  0
 10 13  1  0  0  0  0
 13 14  1  0  0  0  0
 13 15  1  0  0  0  0
 15 16  1  0  0  0  0
 15 17  1  0  0  0  0
 15 18  1  0  0  0  0
 18 19  1  0  0  0  0
 18 20  1  0  0  0  0
  1 21  1  0  0  0  0
 18 21  1  0  0  0  0
 21 22  1  0  0  0  0
 21 23  1  0  0  0  0
 13 24  1  0  0  0  0
 24 25  1  0  0  0  0
M  END
> <VConfSearch Rank>
974

> <Conf_Id>
62

> <Delta U+W>
-1.779

> <U+W>
9.134

> <U>
11.364

> <W>
-2.230

> <W(PB)>
-4.359

> <W(SA)>
2.129

> <Valence>
16.582

> <Coulomb>
-8.150

> <VdW>
2.933

> <VdW6>
-12.531

> <VdW12>
15.464

> <Bond>
0.439

> <Angle>
5.099

> <Pdih>
11.044

> <Idih>
0.000

> <Tether>
0.000

$$$$
VeraChem MOL file


 25 25  0  0  0  0  0  0  0  0999 V2000     
   21.3338   20.1373   23.9601 C   0  0  0  0  0  0  0  0  0  0  0  0
   22.0871   19.5223   23.4547 H   0  0  0  0  0  0  0  0  0  0  0  0
   21.8936   20.6796   24.7342 H   0  0  0  0  0  0  0  0  0  0  0  0
   20.3002   19.2389   24.6841 C   0  0  0  0  0  0  0  0  0  0  0  0
   20.8485   18.6324   25.4179 H   0  0  0  0  0  0  0  0  0  0  0  0
   19.6186   19.8699   25.2704 H   0  0  0  0  0  0  0  0  0  0  0  0
   19.4626   18.2757   23.8047 C   0  0  0  0  0  0  0  0  0  0  0  0
   18.6045   18.8002   23.3693 H   0  0  0  0  0  0  0  0  0  0  0  0
   19.0162   17.5298   24.4765 H   0  0  0  0  0  0  0  0  0  0  0  0
   20.2568   17.5230   22.7038 C   0  0  0  0  0  0  0  0  0  0  0  0
   21.3200   17.4509   22.9638 H   0  0  0  0  0  0  0  0  0  0  0  0
   19.8914   16.4878   22.6910 H   0  0  0  0  0  0  0  0  0  0  0  0
   20.0854   18.0905   21.2721 C   0  0  0  0  0  0  0  0  0  0  0  0
   19.0097   18.1543   21.0531 H   0  0  0  0  0  0  0  0  0  0  0  0
   20.7146   19.4802   21.0022 C   0  0  0  0  0  0  0  0  0  0  0  0
   21.7909   19.4621   21.2117 H   0  0  0  0  0  0  0  0  0  0  0  0
   20.6342   19.6632   19.9224 H   0  0  0  0  0  0  0  0  0  0  0  0
   20.0219   20.6659   21.7259 C   0  0  0  0  0  0  0  0  0  0  0  0
   18.9815   20.4163   21.9632 H   0  0  0  0  0  0  0  0  0  0  0  0
   19.9489   21.5035   21.0188 H   0  0  0  0  0  0  0  0  0  0  0  0
   20.7562   21.1934   22.9851 C   0  0  0  0  0  0  0  0  0  0  0  0
   20.0835   21.8655   23.5348 H   0  0  0  0  0  0  0  0  0  0  0  0
   21.5923   21.8211   22.6475 H   0  0  0  0  0  0  0  0  0  0  0  0
   20.6814   17.1684   20.3682 O   0  0  0  0  0  0  0  0  0  0  0  0
   20.2286   16.3095   20.5003 H   0  0  0  0  0  0  0  0  0  0  0  0
  1  2  1  0  0  0  0
  1  3  1  0  0  0  0
  1  4  1  0  0  0  0
  4  5  1  0  0  0  0
  4  6  1  0  0  0  0
  4  7  1  0  0  0  0
  7  8  1  0  0  0  0
  7  9  1  0  0  0  0
  7 10  1  0  0  0  0
 10 11  1  0  0  0  0
 10 12  1  0  0  0  0
 10 13  1  0  0  0  0
 13 14  1  0  0  0  0
 13 15  1  0  0  0  0
 15 16  1  0  0  0  0
 15 17  1  0  0  0  0
 15 18  1  0  0  0  0
 18 19  1  0  0  0  0
 18 20  1  0  0  0  0
  1 21  1  0  0  0  0
 18 21  1  0  0  0  0
 21 22  1  0  0  0  0
 21 23  1  0  0  0  0
 13 24  1  0  0  0  0
 24 25  1  0  0  0  0
M  END
> <VConfSearch Rank>
975

> <Conf_Id>
121

> <Delta U+W>
-1.283

> <U+W>
9.630

> <U>
11.876

> <W>
-2.246

> <W(PB)>
-4.376

> <W(SA)>
2.130

> <Valence>
17.153

> <Coulomb>
-7.966

> <VdW>
2.689

> <VdW6>
-12.458

> <VdW12>
15.147

> <Bond>
0.421

> <Angle>
5.258

> <Pdih>
11.475

> <Idih>
0.000

> <Tether>
0.000

$$$$
VeraChem MOL file


 25 25  0  0  0  0  0  0  0  0999 V2000     
   20.3717   18.3223   24.2848 C   0  0  0  0  0  0  0  0  0  0  0  0
   20.6505   19.3453   24.5619 H   0  0  0  0  0  0  0  0  0  0  0  0
   20.3678   17.7699   25.2343 H   0  0  0  0  0  0  0  0  0  0  0  0
   21.4648   17.6887   23.3884 C   0  0  0  0  0  0  0  0  0  0  0  0
   22.3999   17.6827   23.9650 H   0  0  0  0  0  0  0  0  0  0  0  0
   21.2200   16.6331   23.2086 H   0  0  0  0  0  0  0  0  0  0  0  0
   21.7510   18.3774   22.0294 C   0  0  0  0  0  0  0  0  0  0  0  0
   21.0333   18.0453   21.2708 H   0  0  0  0  0  0  0  0  0  0  0  0
   22.7201   18.0016   21.6737 H   0  0  0  0  0  0  0  0  0  0  0  0
   21.8190   19.9276   22.0727 C   0  0  0  0  0  0  0  0  0  0  0  0
   22.0767   20.2851   23.0770 H   0  0  0  0  0  0  0  0  0  0  0  0
   22.6562   20.2369   21.4330 H   0  0  0  0  0  0  0  0  0  0  0  0
   20.5561   20.6535   21.5452 C   0  0  0  0  0  0  0  0  0  0  0  0
   20.3326   20.2641   20.5415 H   0  0  0  0  0  0  0  0  0  0  0  0
   19.2771   20.5276   22.4109 C   0  0  0  0  0  0  0  0  0  0  0  0
   19.4619   20.9000   23.4260 H   0  0  0  0  0  0  0  0  0  0  0  0
   18.5265   21.2069   21.9859 H   0  0  0  0  0  0  0  0  0  0  0  0
   18.6462   19.1098   22.4426 C   0  0  0  0  0  0  0  0  0  0  0  0
   18.9341   18.5407   21.5514 H   0  0  0  0  0  0  0  0  0  0  0  0
   17.5560   19.2173   22.3592 H   0  0  0  0  0  0  0  0  0  0  0  0
   18.9270   18.2885   23.7269 C   0  0  0  0  0  0  0  0  0  0  0  0
   18.6286   17.2454   23.5553 H   0  0  0  0  0  0  0  0  0  0  0  0
   18.2607   18.6619   24.5165 H   0  0  0  0  0  0  0  0  0  0  0  0
   20.8708   22.0363   21.4389 O   0  0  0  0  0  0  0  0  0  0  0  0
   20.0900   22.4746   21.0410 H   0  0  0  0  0  0  0  0  0  0  0  0
  1  2  1  0  0  0  0
  1  3  1  0  0  0  0
  1  4  1  0  0  0  0
  4  5  1  0  0  0  0
  4  6  1  0  0  0  0
  4  7  1  0  0  0  0
  7  8  1  0  0  0  0
  7  9  1  0  0  0  0
  7 10  1  0  0  0  0
 10 11  1  0  0  0  0
 10 12  1  0  0  0  0
 10 13  1  0  0  0  0
 13 14  1  0  0  0  0
 13 15  1  0  0  0  0
 15 16  1  0  0  0  0
 15 17  1  0  0  0  0
 15 18  1  0  0  0  0
 18 19  1  0  0  0  0
 18 20  1  0  0  0  0
  1 21  1  0  0  0  0
 18 21  1  0  0  0  0
 21 22  1  0  0  0  0
 21 23  1  0  0  0  0
 13 24  1  0  0  0  0
 24 25  1  0  0  0  0
M  END
> <VConfSearch Rank>
976

> <Conf_Id>
24

> <Delta U+W>
-1.236

> <U+W>
9.678

> <U>
11.876

> <W>
-2.199

> <W(PB)>
-4.335

> <W(SA)>
2.137

> <Valence>
17.153

> <Coulomb>
-7.966

> <VdW>
2.689

> <VdW6>
-12.458

> <VdW12>
15.147

> <Bond>
0.421

> <Angle>
5.258

> <Pdih>
11.475

> <Idih>
0.000

> <Tether>
0.000

$$$$
VeraChem MOL file


 25 25  0  0  0  0  0  0  0  0999 V2000     
   19.6081   21.1017   23.3700 C   0  0  0  0  0  0  0  0  0  0  0  0
   19.5410   21.3462   24.4389 H   0  0  0  0  0  0  0  0  0  0  0  0
   19.2235   21.9832   22.8390 H   0  0  0  0  0  0  0  0  0  0  0  0
   21.1020   20.9282   22.9877 C   0  0  0  0  0  0  0  0  0  0  0  0
   21.2350   21.0099   21.9015 H   0  0  0  0  0  0  0  0  0  0  0  0
   21.6400   21.7926   23.4005 H   0  0  0  0  0  0  0  0  0  0  0  0
   21.7927   19.6442   23.5103 C   0  0  0  0  0  0  0  0  0  0  0  0
   21.3986   19.3630   24.4963 H   0  0  0  0  0  0  0  0  0  0  0  0
   22.8484   19.8968   23.6803 H   0  0  0  0  0  0  0  0  0  0  0  0
   21.7700   18.4366   22.5310 C   0  0  0  0  0  0  0  0  0  0  0  0
   21.8761   18.7744   21.4921 H   0  0  0  0  0  0  0  0  0  0  0  0
   22.6717   17.8454   22.7419 H   0  0  0  0  0  0  0  0  0  0  0  0
   20.5458   17.4999   22.6756 C   0  0  0  0  0  0  0  0  0  0  0  0
   20.1956   17.5417   23.7155 H   0  0  0  0  0  0  0  0  0  0  0  0
   19.3612   17.8035   21.7237 C   0  0  0  0  0  0  0  0  0  0  0  0
   19.6311   17.5093   20.7009 H   0  0  0  0  0  0  0  0  0  0  0  0
   18.5260   17.1527   22.0145 H   0  0  0  0  0  0  0  0  0  0  0  0
   18.8501   19.2657   21.6872 C   0  0  0  0  0  0  0  0  0  0  0  0
   17.8839   19.2758   21.1647 H   0  0  0  0  0  0  0  0  0  0  0  0
   19.5130   19.8735   21.0603 H   0  0  0  0  0  0  0  0  0  0  0  0
   18.6656   19.9064   23.0860 C   0  0  0  0  0  0  0  0  0  0  0  0
   18.7705   19.1581   23.8802 H   0  0  0  0  0  0  0  0  0  0  0  0
   17.6303   20.2627   23.1751 H   0  0  0  0  0  0  0  0  0  0  0  0
   20.9682   16.1682   22.4113 O   0  0  0  0  0  0  0  0  0  0  0  0
   21.2946   16.1592   21.4880 H   0  0  0  0  0  0  0  0  0  0  0  0
  1  2  1  0  0  0  0
  1  3  1  0  0  0  0
  1  4  1  0  0  0  0
  4  5  1  0  0  0  0
  4  6  1  0  0  0  0
  4  7  1  0  0  0  0
  7  8  1  0  0  0  0
  7  9  1  0  0  0  0
  7 10  1  0  0  0  0
 10 11  1  0  0  0  0
 10 12  1  0  0  0  0
 10 13  1  0  0  0  0
 13 14  1  0  0  0  0
 13 15  1  0  0  0  0
 15 16  1  0  0  0  0
 15 17  1  0  0  0  0
 15 18  1  0  0  0  0
 18 19  1  0  0  0  0
 18 20  1  0  0  0  0
  1 21  1  0  0  0  0
 18 21  1  0  0  0  0
 21 22  1  0  0  0  0
 21 23  1  0  0  0  0
 13 24  1  0  0  0  0
 24 25  1  0  0  0  0
M  END
> <VConfSearch Rank>
977

> <Conf_Id>
167

> <Delta U+W>
0.388

> <U+W>
11.301

> <U>
13.202

> <W>
-1.901

> <W(PB)>
-4.065

> <W(SA)>
2.163

> <Valence>
18.957

> <Coulomb>
-8.753

> <VdW>
2.998

> <VdW6>
-12.294

> <VdW12>
15.292

> <Bond>
0.419

> <Angle>
4.543

> <Pdih>
13.996

> <Idih>
0.000

> <Tether>
0.000

$$$$
VeraChem MOL file


 25 25  0  0  0  0  0  0  0  0999 V2000     
   19.9486   20.9768   21.6058 C   0  0  0  0  0  0  0  0  0  0  0  0
   19.7780   20.9647   20.5208 H   0  0  0  0  0  0  0  0  0  0  0  0
   19.8506   22.0282   21.9090 H   0  0  0  0  0  0  0  0  0  0  0  0
   21.4090   20.5385   21.8894 C   0  0  0  0  0  0  0  0  0  0  0  0
   21.6961   19.7058   21.2375 H   0  0  0  0  0  0  0  0  0  0  0  0
   22.0600   21.3663   21.5765 H   0  0  0  0  0  0  0  0  0  0  0  0
   21.7302   20.2065   23.3697 C   0  0  0  0  0  0  0  0  0  0  0  0
   21.0497   20.7354   24.0494 H   0  0  0  0  0  0  0  0  0  0  0  0
   22.7274   20.6115   23.5900 H   0  0  0  0  0  0  0  0  0  0  0  0
   21.7735   18.6903   23.7034 C   0  0  0  0  0  0  0  0  0  0  0  0
   22.4902   18.1905   23.0386 H   0  0  0  0  0  0  0  0  0  0  0  0
   22.1867   18.5866   24.7155 H   0  0  0  0  0  0  0  0  0  0  0  0
   20.4262   17.9270   23.6663 C   0  0  0  0  0  0  0  0  0  0  0  0
   19.7009   18.4471   24.3064 H   0  0  0  0  0  0  0  0  0  0  0  0
   19.8378   17.7500   22.2425 C   0  0  0  0  0  0  0  0  0  0  0  0
   20.6308   17.8409   21.4935 H   0  0  0  0  0  0  0  0  0  0  0  0
   19.4683   16.7227   22.1240 H   0  0  0  0  0  0  0  0  0  0  0  0
   18.6627   18.7008   21.8964 C   0  0  0  0  0  0  0  0  0  0  0  0
   17.7590   18.3132   22.3863 H   0  0  0  0  0  0  0  0  0  0  0  0
   18.4641   18.6438   20.8175 H   0  0  0  0  0  0  0  0  0  0  0  0
   18.8176   20.1860   22.3101 C   0  0  0  0  0  0  0  0  0  0  0  0
   18.9114   20.2751   23.3984 H   0  0  0  0  0  0  0  0  0  0  0  0
   17.8711   20.6905   22.0726 H   0  0  0  0  0  0  0  0  0  0  0  0
   20.6562   16.6353   24.2166 O   0  0  0  0  0  0  0  0  0  0  0  0
   19.7857   16.1863   24.2524 H   0  0  0  0  0  0  0  0  0  0  0  0
  1  2  1  0  0  0  0
  1  3  1  0  0  0  0
  1  4  1  0  0  0  0
  4  5  1  0  0  0  0
  4  6  1  0  0  0  0
  4  7  1  0  0  0  0
  7  8  1  0  0  0  0
  7  9  1  0  0  0  0
  7 10  1  0  0  0  0
 10 11  1  0  0  0  0
 10 12  1  0  0  0  0
 10 13  1  0  0  0  0
 13 14  1  0  0  0  0
 13 15  1  0  0  0  0
 15 16  1  0  0  0  0
 15 17  1  0  0  0  0
 15 18  1  0  0  0  0
 18 19  1  0  0  0  0
 18 20  1  0  0  0  0
  1 21  1  0  0  0  0
 18 21  1  0  0  0  0
 21 22  1  0  0  0  0
 21 23  1  0  0  0  0
 13 24  1  0  0  0  0
 24 25  1  0  0  0  0
M  END
> <VConfSearch Rank>
978

> <Conf_Id>
60

> <Delta U+W>
-1.838

> <U+W>
9.075

> <U>
11.150

> <W>
-2.074

> <W(PB)>
-4.196

> <W(SA)>
2.121

> <Valence>
16.582

> <Coulomb>
-8.361

> <VdW>
2.928

> <VdW6>
-12.539

> <VdW12>
15.467

> <Bond>
0.441

> <Angle>
5.093

> <Pdih>
11.049

> <Idih>
0.000

> <Tether>
0.000

$$$$
VeraChem MOL file


 25 25  0  0  0  0  0  0  0  0999 V2000     
   20.7076   21.0014   23.5631 C   0  0  0  0  0  0  0  0  0  0  0  0
   20.0477   21.8667   23.4137 H   0  0  0  0  0  0  0  0  0  0  0  0
   21.5191   21.3568   24.2127 H   0  0  0  0  0  0  0  0  0  0  0  0
   21.3427   20.6027   22.2072 C   0  0  0  0  0  0  0  0  0  0  0  0
   21.9263   21.4644   21.8552 H   0  0  0  0  0  0  0  0  0  0  0  0
   22.0843   19.8091   22.3529 H   0  0  0  0  0  0  0  0  0  0  0  0
   20.3548   20.2242   21.0751 C   0  0  0  0  0  0  0  0  0  0  0  0
   20.9416   20.0825   20.1572 H   0  0  0  0  0  0  0  0  0  0  0  0
   19.6896   21.0750   20.8748 H   0  0  0  0  0  0  0  0  0  0  0  0
   19.4939   18.9526   21.2916 C   0  0  0  0  0  0  0  0  0  0  0  0
   18.6297   19.1841   21.9223 H   0  0  0  0  0  0  0  0  0  0  0  0
   19.0576   18.6880   20.3192 H   0  0  0  0  0  0  0  0  0  0  0  0
   20.2603   17.7321   21.8639 C   0  0  0  0  0  0  0  0  0  0  0  0
   21.3385   17.8587   21.6977 H   0  0  0  0  0  0  0  0  0  0  0  0
   20.0066   17.4757   23.3704 C   0  0  0  0  0  0  0  0  0  0  0  0
   18.9267   17.3815   23.5438 H   0  0  0  0  0  0  0  0  0  0  0  0
   20.4328   16.4943   23.6171 H   0  0  0  0  0  0  0  0  0  0  0  0
   20.6017   18.5073   24.3674 C   0  0  0  0  0  0  0  0  0  0  0  0
   21.6889   18.5890   24.2405 H   0  0  0  0  0  0  0  0  0  0  0  0
   20.4610   18.0956   25.3762 H   0  0  0  0  0  0  0  0  0  0  0  0
   19.9302   19.9048   24.3366 C   0  0  0  0  0  0  0  0  0  0  0  0
   19.8245   20.2552   25.3725 H   0  0  0  0  0  0  0  0  0  0  0  0
   18.9006   19.8287   23.9691 H   0  0  0  0  0  0  0  0  0  0  0  0
   19.8370   16.5706   21.1598 O   0  0  0  0  0  0  0  0  0  0  0  0
   20.0650   16.7148   20.2176 H   0  0  0  0  0  0  0  0  0  0  0  0
  1  2  1  0  0  0  0
  1  3  1  0  0  0  0
  1  4  1  0  0  0  0
  4  5  1  0  0  0  0
  4  6  1  0  0  0  0
  4  7  1  0  0  0  0
  7  8  1  0  0  0  0
  7  9  1  0  0  0  0
  7 10  1  0  0  0  0
 10 11  1  0  0  0  0
 10 12  1  0  0  0  0
 10 13  1  0  0  0  0
 13 14  1  0  0  0  0
 13 15  1  0  0  0  0
 15 16  1  0  0  0  0
 15 17  1  0  0  0  0
 15 18  1  0  0  0  0
 18 19  1  0  0  0  0
 18 20  1  0  0  0  0
  1 21  1  0  0  0  0
 18 21  1  0  0  0  0
 21 22  1  0  0  0  0
 21 23  1  0  0  0  0
 13 24  1  0  0  0  0
 24 25  1  0  0  0  0
M  END
> <VConfSearch Rank>
979

> <Conf_Id>
129

> <Delta U+W>
-1.846

> <U+W>
9.067

> <U>
11.150

> <W>
-2.083

> <W(PB)>
-4.217

> <W(SA)>
2.134

> <Valence>
16.583

> <Coulomb>
-8.361

> <VdW>
2.928

> <VdW6>
-12.539

> <VdW12>
15.467

> <Bond>
0.441

> <Angle>
5.093

> <Pdih>
11.049

> <Idih>
0.000

> <Tether>
0.000

$$$$
VeraChem MOL file


 25 25  0  0  0  0  0  0  0  0999 V2000     
   21.8188   20.5710   22.6903 C   0  0  0  0  0  0  0  0  0  0  0  0
   21.8447   21.4215   21.9956 H   0  0  0  0  0  0  0  0  0  0  0  0
   22.7214   20.6666   23.3092 H   0  0  0  0  0  0  0  0  0  0  0  0
   21.9461   19.2516   21.8884 C   0  0  0  0  0  0  0  0  0  0  0  0
   22.9117   19.2802   21.3654 H   0  0  0  0  0  0  0  0  0  0  0  0
   22.0274   18.3973   22.5701 H   0  0  0  0  0  0  0  0  0  0  0  0
   20.8533   18.9933   20.8210 C   0  0  0  0  0  0  0  0  0  0  0  0
   21.1417   18.0909   20.2646 H   0  0  0  0  0  0  0  0  0  0  0  0
   20.8618   19.8108   20.0875 H   0  0  0  0  0  0  0  0  0  0  0  0
   19.4034   18.7914   21.3333 C   0  0  0  0  0  0  0  0  0  0  0  0
   18.9314   19.7608   21.5228 H   0  0  0  0  0  0  0  0  0  0  0  0
   18.8280   18.3608   20.5025 H   0  0  0  0  0  0  0  0  0  0  0  0
   19.2684   17.8755   22.5773 C   0  0  0  0  0  0  0  0  0  0  0  0
   20.1630   17.2458   22.6721 H   0  0  0  0  0  0  0  0  0  0  0  0
   19.0368   18.6371   23.9066 C   0  0  0  0  0  0  0  0  0  0  0  0
   18.1607   19.2909   23.8055 H   0  0  0  0  0  0  0  0  0  0  0  0
   18.7695   17.8970   24.6728 H   0  0  0  0  0  0  0  0  0  0  0  0
   20.2295   19.4649   24.4574 C   0  0  0  0  0  0  0  0  0  0  0  0
   21.1093   18.8266   24.6097 H   0  0  0  0  0  0  0  0  0  0  0  0
   19.9459   19.8062   25.4624 H   0  0  0  0  0  0  0  0  0  0  0  0
   20.5890   20.7213   23.6228 C   0  0  0  0  0  0  0  0  0  0  0  0
   20.8110   21.5417   24.3190 H   0  0  0  0  0  0  0  0  0  0  0  0
   19.7172   21.0715   23.0588 H   0  0  0  0  0  0  0  0  0  0  0  0
   18.1493   17.0206   22.3802 O   0  0  0  0  0  0  0  0  0  0  0  0
   17.3661   17.6034   22.3030 H   0  0  0  0  0  0  0  0  0  0  0  0
  1  2  1  0  0  0  0
  1  3  1  0  0  0  0
  1  4  1  0  0  0  0
  4  5  1  0  0  0  0
  4  6  1  0  0  0  0
  4  7  1  0  0  0  0
  7  8  1  0  0  0  0
  7  9  1  0  0  0  0
  7 10  1  0  0  0  0
 10 11  1  0  0  0  0
 10 12  1  0  0  0  0
 10 13  1  0  0  0  0
 13 14  1  0  0  0  0
 13 15  1  0  0  0  0
 15 16  1  0  0  0  0
 15 17  1  0  0  0  0
 15 18  1  0  0  0  0
 18 19  1  0  0  0  0
 18 20  1  0  0  0  0
  1 21  1  0  0  0  0
 18 21  1  0  0  0  0
 21 22  1  0  0  0  0
 21 23  1  0  0  0  0
 13 24  1  0  0  0  0
 24 25  1  0  0  0  0
M  END
> <VConfSearch Rank>
980

> <Conf_Id>
140

> <Delta U+W>
-1.702

> <U+W>
9.211

> <U>
11.181

> <W>
-1.969

> <W(PB)>
-4.093

> <W(SA)>
2.124

> <Valence>
16.954

> <Coulomb>
-8.661

> <VdW>
2.887

> <VdW6>
-12.561

> <VdW12>
15.448

> <Bond>
0.433

> <Angle>
5.120

> <Pdih>
11.401

> <Idih>
0.000

> <Tether>
0.000

$$$$
VeraChem MOL file


 25 25  0  0  0  0  0  0  0  0999 V2000     
   21.2454   17.3562   22.5875 C   0  0  0  0  0  0  0  0  0  0  0  0
   22.3423   17.2985   22.5894 H   0  0  0  0  0  0  0  0  0  0  0  0
   20.8944   16.3162   22.5408 H   0  0  0  0  0  0  0  0  0  0  0  0
   20.7821   18.0693   21.2908 C   0  0  0  0  0  0  0  0  0  0  0  0
   21.4352   18.9192   21.0630 H   0  0  0  0  0  0  0  0  0  0  0  0
   20.9472   17.3683   20.4611 H   0  0  0  0  0  0  0  0  0  0  0  0
   19.2938   18.5037   21.2659 C   0  0  0  0  0  0  0  0  0  0  0  0
   18.6893   17.8820   21.9388 H   0  0  0  0  0  0  0  0  0  0  0  0
   18.9062   18.2964   20.2591 H   0  0  0  0  0  0  0  0  0  0  0  0
   19.0514   20.0122   21.5430 C   0  0  0  0  0  0  0  0  0  0  0  0
   19.6342   20.6080   20.8285 H   0  0  0  0  0  0  0  0  0  0  0  0
   17.9975   20.2223   21.3164 H   0  0  0  0  0  0  0  0  0  0  0  0
   19.3320   20.5131   22.9822 C   0  0  0  0  0  0  0  0  0  0  0  0
   18.7711   19.8954   23.6962 H   0  0  0  0  0  0  0  0  0  0  0  0
   20.8331   20.5279   23.3705 C   0  0  0  0  0  0  0  0  0  0  0  0
   21.4572   20.5653   22.4717 H   0  0  0  0  0  0  0  0  0  0  0  0
   21.0598   21.4608   23.9042 H   0  0  0  0  0  0  0  0  0  0  0  0
   21.2855   19.3620   24.2877 C   0  0  0  0  0  0  0  0  0  0  0  0
   20.9554   19.5914   25.3102 H   0  0  0  0  0  0  0  0  0  0  0  0
   22.3831   19.3437   24.3264 H   0  0  0  0  0  0  0  0  0  0  0  0
   20.7619   17.9471   23.9355 C   0  0  0  0  0  0  0  0  0  0  0  0
   19.6680   17.9159   23.9952 H   0  0  0  0  0  0  0  0  0  0  0  0
   21.1010   17.2675   24.7293 H   0  0  0  0  0  0  0  0  0  0  0  0
   18.8372   21.8433   23.0701 O   0  0  0  0  0  0  0  0  0  0  0  0
   19.3484   22.3719   22.4233 H   0  0  0  0  0  0  0  0  0  0  0  0
  1  2  1  0  0  0  0
  1  3  1  0  0  0  0
  1  4  1  0  0  0  0
  4  5  1  0  0  0  0
  4  6  1  0  0  0  0
  4  7  1  0  0  0  0
  7  8  1  0  0  0  0
  7  9  1  0  0  0  0
  7 10  1  0  0  0  0
 10 11  1  0  0  0  0
 10 12  1  0  0  0  0
 10 13  1  0  0  0  0
 13 14  1  0  0  0  0
 13 15  1  0  0  0  0
 15 16  1  0  0  0  0
 15 17  1  0  0  0  0
 15 18  1  0  0  0  0
 18 19  1  0  0  0  0
 18 20  1  0  0  0  0
  1 21  1  0  0  0  0
 18 21  1  0  0  0  0
 21 22  1  0  0  0  0
 21 23  1  0  0  0  0
 13 24  1  0  0  0  0
 24 25  1  0  0  0  0
M  END
> <VConfSearch Rank>
981

> <Conf_Id>
68

> <Delta U+W>
-1.765

> <U+W>
9.148

> <U>
11.181

> <W>
-2.032

> <W(PB)>
-4.147

> <W(SA)>
2.114

> <Valence>
16.955

> <Coulomb>
-8.661

> <VdW>
2.887

> <VdW6>
-12.561

> <VdW12>
15.448

> <Bond>
0.433

> <Angle>
5.121

> <Pdih>
11.402

> <Idih>
0.000

> <Tether>
0.000

$$$$
VeraChem MOL file


 25 25  0  0  0  0  0  0  0  0999 V2000     
   18.7804   19.5816   21.5648 C   0  0  0  0  0  0  0  0  0  0  0  0
   17.9776   19.7509   20.8341 H   0  0  0  0  0  0  0  0  0  0  0  0
   18.5798   20.3072   22.3612 H   0  0  0  0  0  0  0  0  0  0  0  0
   20.1335   19.8912   20.8730 C   0  0  0  0  0  0  0  0  0  0  0  0
   20.5903   18.9780   20.4706 H   0  0  0  0  0  0  0  0  0  0  0  0
   19.9197   20.5147   19.9940 H   0  0  0  0  0  0  0  0  0  0  0  0
   21.1475   20.6748   21.7473 C   0  0  0  0  0  0  0  0  0  0  0  0
   20.6827   21.6064   22.0980 H   0  0  0  0  0  0  0  0  0  0  0  0
   21.9771   20.9862   21.0979 H   0  0  0  0  0  0  0  0  0  0  0  0
   21.7546   19.9173   22.9582 C   0  0  0  0  0  0  0  0  0  0  0  0
   22.2500   18.9979   22.6237 H   0  0  0  0  0  0  0  0  0  0  0  0
   22.5596   20.5503   23.3555 H   0  0  0  0  0  0  0  0  0  0  0  0
   20.7490   19.6208   24.1008 C   0  0  0  0  0  0  0  0  0  0  0  0
   19.8899   20.2947   24.0045 H   0  0  0  0  0  0  0  0  0  0  0  0
   20.2434   18.1582   24.1569 C   0  0  0  0  0  0  0  0  0  0  0  0
   21.0304   17.5342   24.6007 H   0  0  0  0  0  0  0  0  0  0  0  0
   19.3951   18.1113   24.8520 H   0  0  0  0  0  0  0  0  0  0  0  0
   19.8323   17.4991   22.8150 C   0  0  0  0  0  0  0  0  0  0  0  0
   19.5764   16.4526   23.0296 H   0  0  0  0  0  0  0  0  0  0  0  0
   20.6920   17.4400   22.1376 H   0  0  0  0  0  0  0  0  0  0  0  0
   18.6181   18.1314   22.0897 C   0  0  0  0  0  0  0  0  0  0  0  0
   17.7387   18.0863   22.7464 H   0  0  0  0  0  0  0  0  0  0  0  0
   18.3792   17.4897   21.2306 H   0  0  0  0  0  0  0  0  0  0  0  0
   21.3799   19.9028   25.3439 O   0  0  0  0  0  0  0  0  0  0  0  0
   22.1533   19.3052   25.4039 H   0  0  0  0  0  0  0  0  0  0  0  0
  1  2  1  0  0  0  0
  1  3  1  0  0  0  0
  1  4  1  0  0  0  0
  4  5  1  0  0  0  0
  4  6  1  0  0  0  0
  4  7  1  0  0  0  0
  7  8  1  0  0  0  0
  7  9  1  0  0  0  0
  7 10  1  0  0  0  0
 10 11  1  0  0  0  0
 10 12  1  0  0  0  0
 10 13  1  0  0  0  0
 13 14  1  0  0  0  0
 13 15  1  0  0  0  0
 15 16  1  0  0  0  0
 15 17  1  0  0  0  0
 15 18  1  0  0  0  0
 18 19  1  0  0  0  0
 18 20  1  0  0  0  0
  1 21  1  0  0  0  0
 18 21  1  0  0  0  0
 21 22  1  0  0  0  0
 21 23  1  0  0  0  0
 13 24  1  0  0  0  0
 24 25  1  0  0  0  0
M  END
> <VConfSearch Rank>
982

> <Conf_Id>
165

> <Delta U+W>
-1.999

> <U+W>
8.915

> <U>
10.935

> <W>
-2.020

> <W(PB)>
-4.135

> <W(SA)>
2.115

> <Valence>
16.757

> <Coulomb>
-8.731

> <VdW>
2.908

> <VdW6>
-12.597

> <VdW12>
15.506

> <Bond>
0.434

> <Angle>
5.069

> <Pdih>
11.254

> <Idih>
0.000

> <Tether>
0.000

$$$$
VeraChem MOL file


 25 25  0  0  0  0  0  0  0  0999 V2000     
   19.1516   18.5005   23.9119 C   0  0  0  0  0  0  0  0  0  0  0  0
   18.4503   18.1789   24.6941 H   0  0  0  0  0  0  0  0  0  0  0  0
   19.2823   17.6124   23.2834 H   0  0  0  0  0  0  0  0  0  0  0  0
   20.4804   18.8735   24.6194 C   0  0  0  0  0  0  0  0  0  0  0  0
   20.2280   19.4296   25.5326 H   0  0  0  0  0  0  0  0  0  0  0  0
   20.9735   17.9531   24.9604 H   0  0  0  0  0  0  0  0  0  0  0  0
   21.4930   19.7325   23.8212 C   0  0  0  0  0  0  0  0  0  0  0  0
   22.3196   19.9803   24.5010 H   0  0  0  0  0  0  0  0  0  0  0  0
   21.0496   20.7005   23.5612 H   0  0  0  0  0  0  0  0  0  0  0  0
   22.1121   19.0653   22.5659 C   0  0  0  0  0  0  0  0  0  0  0  0
   22.8805   19.7469   22.1766 H   0  0  0  0  0  0  0  0  0  0  0  0
   22.6427   18.1551   22.8735 H   0  0  0  0  0  0  0  0  0  0  0  0
   21.1489   18.7099   21.4067 C   0  0  0  0  0  0  0  0  0  0  0  0
   20.6024   17.7935   21.6587 H   0  0  0  0  0  0  0  0  0  0  0  0
   20.1293   19.8221   21.0496 C   0  0  0  0  0  0  0  0  0  0  0  0
   20.4904   20.8033   21.3796 H   0  0  0  0  0  0  0  0  0  0  0  0
   20.0645   19.8948   19.9555 H   0  0  0  0  0  0  0  0  0  0  0  0
   18.6896   19.5690   21.5713 C   0  0  0  0  0  0  0  0  0  0  0  0
   18.3363   18.5960   21.2034 H   0  0  0  0  0  0  0  0  0  0  0  0
   18.0305   20.3158   21.1081 H   0  0  0  0  0  0  0  0  0  0  0  0
   18.4821   19.6447   23.1069 C   0  0  0  0  0  0  0  0  0  0  0  0
   17.3999   19.5856   23.2871 H   0  0  0  0  0  0  0  0  0  0  0  0
   18.7822   20.6276   23.4923 H   0  0  0  0  0  0  0  0  0  0  0  0
   21.9455   18.4413   20.2583 O   0  0  0  0  0  0  0  0  0  0  0  0
   22.5480   17.7066   20.4982 H   0  0  0  0  0  0  0  0  0  0  0  0
  1  2  1  0  0  0  0
  1  3  1  0  0  0  0
  1  4  1  0  0  0  0
  4  5  1  0  0  0  0
  4  6  1  0  0  0  0
  4  7  1  0  0  0  0
  7  8  1  0  0  0  0
  7  9  1  0  0  0  0
  7 10  1  0  0  0  0
 10 11  1  0  0  0  0
 10 12  1  0  0  0  0
 10 13  1  0  0  0  0
 13 14  1  0  0  0  0
 13 15  1  0  0  0  0
 15 16  1  0  0  0  0
 15 17  1  0  0  0  0
 15 18  1  0  0  0  0
 18 19  1  0  0  0  0
 18 20  1  0  0  0  0
  1 21  1  0  0  0  0
 18 21  1  0  0  0  0
 21 22  1  0  0  0  0
 21 23  1  0  0  0  0
 13 24  1  0  0  0  0
 24 25  1  0  0  0  0
M  END
> <VConfSearch Rank>
983

> <Conf_Id>
133

> <Delta U+W>
-2.139

> <U+W>
8.774

> <U>
10.905

> <W>
-2.131

> <W(PB)>
-4.281

> <W(SA)>
2.150

> <Valence>
16.378

> <Coulomb>
-8.448

> <VdW>
2.976

> <VdW6>
-12.570

> <VdW12>
15.545

> <Bond>
0.439

> <Angle>
5.049

> <Pdih>
10.889

> <Idih>
0.000

> <Tether>
0.000

$$$$
VeraChem MOL file


 25 25  0  0  0  0  0  0  0  0999 V2000     
   21.1217   20.8648   22.7971 C   0  0  0  0  0  0  0  0  0  0  0  0
   21.5626   21.8600   22.9460 H   0  0  0  0  0  0  0  0  0  0  0  0
   21.6089   20.4851   21.8920 H   0  0  0  0  0  0  0  0  0  0  0  0
   19.5990   21.0438   22.5627 C   0  0  0  0  0  0  0  0  0  0  0  0
   19.0382   20.9260   23.4987 H   0  0  0  0  0  0  0  0  0  0  0  0
   19.4321   22.0864   22.2591 H   0  0  0  0  0  0  0  0  0  0  0  0
   19.0016   20.1467   21.4468 C   0  0  0  0  0  0  0  0  0  0  0  0
   19.5476   20.3193   20.5092 H   0  0  0  0  0  0  0  0  0  0  0  0
   17.9752   20.4890   21.2570 H   0  0  0  0  0  0  0  0  0  0  0  0
   18.9452   18.6224   21.7338 C   0  0  0  0  0  0  0  0  0  0  0  0
   18.3768   18.4250   22.6504 H   0  0  0  0  0  0  0  0  0  0  0  0
   18.3543   18.1671   20.9276 H   0  0  0  0  0  0  0  0  0  0  0  0
   20.3288   17.9240   21.7811 C   0  0  0  0  0  0  0  0  0  0  0  0
   21.0635   18.5546   21.2670 H   0  0  0  0  0  0  0  0  0  0  0  0
   20.8406   17.6015   23.2065 C   0  0  0  0  0  0  0  0  0  0  0  0
   20.3000   16.7184   23.5734 H   0  0  0  0  0  0  0  0  0  0  0  0
   21.8956   17.3056   23.1424 H   0  0  0  0  0  0  0  0  0  0  0  0
   20.6963   18.7123   24.2785 C   0  0  0  0  0  0  0  0  0  0  0  0
   21.0361   18.2906   25.2342 H   0  0  0  0  0  0  0  0  0  0  0  0
   19.6393   18.9514   24.4425 H   0  0  0  0  0  0  0  0  0  0  0  0
   21.5091   20.0078   24.0304 C   0  0  0  0  0  0  0  0  0  0  0  0
   22.5778   19.7609   23.9717 H   0  0  0  0  0  0  0  0  0  0  0  0
   21.3998   20.6386   24.9232 H   0  0  0  0  0  0  0  0  0  0  0  0
   20.2381   16.6931   21.0724 O   0  0  0  0  0  0  0  0  0  0  0  0
   21.1342   16.2965   21.0798 H   0  0  0  0  0  0  0  0  0  0  0  0
  1  2  1  0  0  0  0
  1  3  1  0  0  0  0
  1  4  1  0  0  0  0
  4  5  1  0  0  0  0
  4  6  1  0  0  0  0
  4  7  1  0  0  0  0
  7  8  1  0  0  0  0
  7  9  1  0  0  0  0
  7 10  1  0  0  0  0
 10 11  1  0  0  0  0
 10 12  1  0  0  0  0
 10 13  1  0  0  0  0
 13 14  1  0  0  0  0
 13 15  1  0  0  0  0
 15 16  1  0  0  0  0
 15 17  1  0  0  0  0
 15 18  1  0  0  0  0
 18 19  1  0  0  0  0
 18 20  1  0  0  0  0
  1 21  1  0  0  0  0
 18 21  1  0  0  0  0
 21 22  1  0  0  0  0
 21 23  1  0  0  0  0
 13 24  1  0  0  0  0
 24 25  1  0  0  0  0
M  END
> <VConfSearch Rank>
984

> <Conf_Id>
95

> <Delta U+W>
-2.190

> <U+W>
8.723

> <U>
10.905

> <W>
-2.182

> <W(PB)>
-4.296

> <W(SA)>
2.114

> <Valence>
16.377

> <Coulomb>
-8.448

> <VdW>
2.976

> <VdW6>
-12.570

> <VdW12>
15.546

> <Bond>
0.439

> <Angle>
5.049

> <Pdih>
10.889

> <Idih>
0.000

> <Tether>
0.000

$$$$
VeraChem MOL file


 25 25  0  0  0  0  0  0  0  0999 V2000     
   21.8623   19.5057   23.5333 C   0  0  0  0  0  0  0  0  0  0  0  0
   22.7573   19.6498   24.1538 H   0  0  0  0  0  0  0  0  0  0  0  0
   21.9818   20.2490   22.7387 H   0  0  0  0  0  0  0  0  0  0  0  0
   20.6309   19.8378   24.4265 C   0  0  0  0  0  0  0  0  0  0  0  0
   20.8687   19.5095   25.4476 H   0  0  0  0  0  0  0  0  0  0  0  0
   20.5200   20.9287   24.4892 H   0  0  0  0  0  0  0  0  0  0  0  0
   19.2642   19.2042   24.0561 C   0  0  0  0  0  0  0  0  0  0  0  0
   18.5546   19.4530   24.8569 H   0  0  0  0  0  0  0  0  0  0  0  0
   19.3436   18.1141   24.1143 H   0  0  0  0  0  0  0  0  0  0  0  0
   18.6110   19.6421   22.7115 C   0  0  0  0  0  0  0  0  0  0  0  0
   17.8794   18.8816   22.4083 H   0  0  0  0  0  0  0  0  0  0  0  0
   18.0280   20.5491   22.9181 H   0  0  0  0  0  0  0  0  0  0  0  0
   19.5408   19.9569   21.5123 C   0  0  0  0  0  0  0  0  0  0  0  0
   20.2326   20.7485   21.8182 H   0  0  0  0  0  0  0  0  0  0  0  0
   20.3439   18.7674   20.9118 C   0  0  0  0  0  0  0  0  0  0  0  0
   19.7037   18.2658   20.1737 H   0  0  0  0  0  0  0  0  0  0  0  0
   21.1882   19.1749   20.3414 H   0  0  0  0  0  0  0  0  0  0  0  0
   20.8695   17.6676   21.8737 C   0  0  0  0  0  0  0  0  0  0  0  0
   21.3096   16.8713   21.2582 H   0  0  0  0  0  0  0  0  0  0  0  0
   20.0205   17.1759   22.3590 H   0  0  0  0  0  0  0  0  0  0  0  0
   21.9430   18.0818   22.9223 C   0  0  0  0  0  0  0  0  0  0  0  0
   22.9254   17.9966   22.4379 H   0  0  0  0  0  0  0  0  0  0  0  0
   21.9518   17.3409   23.7331 H   0  0  0  0  0  0  0  0  0  0  0  0
   18.7276   20.4861   20.4715 O   0  0  0  0  0  0  0  0  0  0  0  0
   18.2749   21.2736   20.8388 H   0  0  0  0  0  0  0  0  0  0  0  0
  1  2  1  0  0  0  0
  1  3  1  0  0  0  0
  1  4  1  0  0  0  0
  4  5  1  0  0  0  0
  4  6  1  0  0  0  0
  4  7  1  0  0  0  0
  7  8  1  0  0  0  0
  7  9  1  0  0  0  0
  7 10  1  0  0  0  0
 10 11  1  0  0  0  0
 10 12  1  0  0  0  0
 10 13  1  0  0  0  0
 13 14  1  0  0  0  0
 13 15  1  0  0  0  0
 15 16  1  0  0  0  0
 15 17  1  0  0  0  0
 15 18  1  0  0  0  0
 18 19  1  0  0  0  0
 18 20  1  0  0  0  0
  1 21  1  0  0  0  0
 18 21  1  0  0  0  0
 21 22  1  0  0  0  0
 21 23  1  0  0  0  0
 13 24  1  0  0  0  0
 24 25  1  0  0  0  0
M  END
> <VConfSearch Rank>
985

> <Conf_Id>
161

> <Delta U+W>
2.120

> <U+W>
13.033

> <U>
15.076

> <W>
-2.043

> <W(PB)>
-4.186

> <W(SA)>
2.143

> <Valence>
18.884

> <Coulomb>
-8.074

> <VdW>
4.266

> <VdW6>
-13.486

> <VdW12>
17.752

> <Bond>
0.713

> <Angle>
8.955

> <Pdih>
9.215

> <Idih>
0.000

> <Tether>
0.000

$$$$
VeraChem MOL file


 25 25  0  0  0  0  0  0  0  0999 V2000     
   21.6421   20.3079   21.6707 C   0  0  0  0  0  0  0  0  0  0  0  0
   22.4443   21.0009   21.3822 H   0  0  0  0  0  0  0  0  0  0  0  0
   21.1289   20.0677   20.7309 H   0  0  0  0  0  0  0  0  0  0  0  0
   20.6785   21.0608   22.6216 C   0  0  0  0  0  0  0  0  0  0  0  0
   21.0260   20.9955   23.6614 H   0  0  0  0  0  0  0  0  0  0  0  0
   20.7421   22.1262   22.3608 H   0  0  0  0  0  0  0  0  0  0  0  0
   19.1824   20.6573   22.5024 C   0  0  0  0  0  0  0  0  0  0  0  0
   18.9094   20.4511   21.4588 H   0  0  0  0  0  0  0  0  0  0  0  0
   18.5924   21.5391   22.7878 H   0  0  0  0  0  0  0  0  0  0  0  0
   18.7330   19.4980   23.4290 C   0  0  0  0  0  0  0  0  0  0  0  0
   19.2844   19.5433   24.3760 H   0  0  0  0  0  0  0  0  0  0  0  0
   17.6850   19.6773   23.7030 H   0  0  0  0  0  0  0  0  0  0  0  0
   18.7913   18.0735   22.8214 C   0  0  0  0  0  0  0  0  0  0  0  0
   18.0018   17.9988   22.0599 H   0  0  0  0  0  0  0  0  0  0  0  0
   20.1229   17.6659   22.1492 C   0  0  0  0  0  0  0  0  0  0  0  0
   20.1030   16.5817   21.9756 H   0  0  0  0  0  0  0  0  0  0  0  0
   20.1628   18.1021   21.1453 H   0  0  0  0  0  0  0  0  0  0  0  0
   21.3992   18.0201   22.9585 C   0  0  0  0  0  0  0  0  0  0  0  0
   21.9748   17.1004   23.1308 H   0  0  0  0  0  0  0  0  0  0  0  0
   21.1459   18.3854   23.9602 H   0  0  0  0  0  0  0  0  0  0  0  0
   22.3244   19.0447   22.2593 C   0  0  0  0  0  0  0  0  0  0  0  0
   22.8627   18.5371   21.4473 H   0  0  0  0  0  0  0  0  0  0  0  0
   23.0942   19.3589   22.9772 H   0  0  0  0  0  0  0  0  0  0  0  0
   18.5157   17.1428   23.8588 O   0  0  0  0  0  0  0  0  0  0  0  0
   19.3057   17.1437   24.4364 H   0  0  0  0  0  0  0  0  0  0  0  0
  1  2  1  0  0  0  0
  1  3  1  0  0  0  0
  1  4  1  0  0  0  0
  4  5  1  0  0  0  0
  4  6  1  0  0  0  0
  4  7  1  0  0  0  0
  7  8  1  0  0  0  0
  7  9  1  0  0  0  0
  7 10  1  0  0  0  0
 10 11  1  0  0  0  0
 10 12  1  0  0  0  0
 10 13  1  0  0  0  0
 13 14  1  0  0  0  0
 13 15  1  0  0  0  0
 15 16  1  0  0  0  0
 15 17  1  0  0  0  0
 15 18  1  0  0  0  0
 18 19  1  0  0  0  0
 18 20  1  0  0  0  0
  1 21  1  0  0  0  0
 18 21  1  0  0  0  0
 21 22  1  0  0  0  0
 21 23  1  0  0  0  0
 13 24  1  0  0  0  0
 24 25  1  0  0  0  0
M  END
> <VConfSearch Rank>
986

> <Conf_Id>
164

> <Delta U+W>
0.008

> <U+W>
10.922

> <U>
12.433

> <W>
-1.511

> <W(PB)>
-3.669

> <W(SA)>
2.157

> <Valence>
19.007

> <Coulomb>
-9.373

> <VdW>
2.799

> <VdW6>
-12.597

> <VdW12>
15.396

> <Bond>
0.425

> <Angle>
4.784

> <Pdih>
13.799

> <Idih>
0.000

> <Tether>
0.000

$$$$
VeraChem MOL file


 25 25  0  0  0  0  0  0  0  0999 V2000     
   19.7032   17.5016   22.5210 C   0  0  0  0  0  0  0  0  0  0  0  0
   20.2315   17.5526   23.4798 H   0  0  0  0  0  0  0  0  0  0  0  0
   19.3399   16.4667   22.4604 H   0  0  0  0  0  0  0  0  0  0  0  0
   20.6920   17.7112   21.3471 C   0  0  0  0  0  0  0  0  0  0  0  0
   21.4461   16.9144   21.4061 H   0  0  0  0  0  0  0  0  0  0  0  0
   20.1655   17.5516   20.3963 H   0  0  0  0  0  0  0  0  0  0  0  0
   21.4399   19.0675   21.2864 C   0  0  0  0  0  0  0  0  0  0  0  0
   20.8151   19.8306   20.8085 H   0  0  0  0  0  0  0  0  0  0  0  0
   22.2888   18.9389   20.6010 H   0  0  0  0  0  0  0  0  0  0  0  0
   21.9871   19.5839   22.6439 C   0  0  0  0  0  0  0  0  0  0  0  0
   22.1467   18.7547   23.3438 H   0  0  0  0  0  0  0  0  0  0  0  0
   22.9854   20.0011   22.4557 H   0  0  0  0  0  0  0  0  0  0  0  0
   21.1449   20.7055   23.3020 C   0  0  0  0  0  0  0  0  0  0  0  0
   21.0075   21.5085   22.5638 H   0  0  0  0  0  0  0  0  0  0  0  0
   19.7494   20.2995   23.8388 C   0  0  0  0  0  0  0  0  0  0  0  0
   19.8355   19.4939   24.5780 H   0  0  0  0  0  0  0  0  0  0  0  0
   19.3561   21.1618   24.3938 H   0  0  0  0  0  0  0  0  0  0  0  0
   18.7080   19.9412   22.7453 C   0  0  0  0  0  0  0  0  0  0  0  0
   18.9677   20.4215   21.7951 H   0  0  0  0  0  0  0  0  0  0  0  0
   17.7463   20.3916   23.0268 H   0  0  0  0  0  0  0  0  0  0  0  0
   18.4596   18.4251   22.5392 C   0  0  0  0  0  0  0  0  0  0  0  0
   17.8866   18.2805   21.6133 H   0  0  0  0  0  0  0  0  0  0  0  0
   17.8048   18.0789   23.3506 H   0  0  0  0  0  0  0  0  0  0  0  0
   21.8932   21.2215   24.3943 O   0  0  0  0  0  0  0  0  0  0  0  0
   21.9974   20.4844   25.0304 H   0  0  0  0  0  0  0  0  0  0  0  0
  1  2  1  0  0  0  0
  1  3  1  0  0  0  0
  1  4  1  0  0  0  0
  4  5  1  0  0  0  0
  4  6  1  0  0  0  0
  4  7  1  0  0  0  0
  7  8  1  0  0  0  0
  7  9  1  0  0  0  0
  7 10  1  0  0  0  0
 10 11  1  0  0  0  0
 10 12  1  0  0  0  0
 10 13  1  0  0  0  0
 13 14  1  0  0  0  0
 13 15  1  0  0  0  0
 15 16  1  0  0  0  0
 15 17  1  0  0  0  0
 15 18  1  0  0  0  0
 18 19  1  0  0  0  0
 18 20  1  0  0  0  0
  1 21  1  0  0  0  0
 18 21  1  0  0  0  0
 21 22  1  0  0  0  0
 21 23  1  0  0  0  0
 13 24  1  0  0  0  0
 24 25  1  0  0  0  0
M  END
> <VConfSearch Rank>
987

> <Conf_Id>
15

> <Delta U+W>
-1.271

> <U+W>
9.643

> <U>
11.413

> <W>
-1.770

> <W(PB)>
-3.908

> <W(SA)>
2.138

> <Valence>
17.496

> <Coulomb>
-8.736

> <VdW>
2.653

> <VdW6>
-12.485

> <VdW12>
15.138

> <Bond>
0.414

> <Angle>
5.295

> <Pdih>
11.787

> <Idih>
0.000

> <Tether>
0.000

$$$$
VeraChem MOL file


 25 25  0  0  0  0  0  0  0  0999 V2000     
   19.6378   19.9198   20.9990 C   0  0  0  0  0  0  0  0  0  0  0  0
   19.3663   20.1906   19.9694 H   0  0  0  0  0  0  0  0  0  0  0  0
   19.4342   20.8226   21.5885 H   0  0  0  0  0  0  0  0  0  0  0  0
   18.6961   18.7634   21.4265 C   0  0  0  0  0  0  0  0  0  0  0  0
   17.6736   19.1606   21.4856 H   0  0  0  0  0  0  0  0  0  0  0  0
   18.6770   18.0075   20.6296 H   0  0  0  0  0  0  0  0  0  0  0  0
   19.0299   18.0534   22.7606 C   0  0  0  0  0  0  0  0  0  0  0  0
   19.8542   17.3478   22.6044 H   0  0  0  0  0  0  0  0  0  0  0  0
   18.1717   17.4255   23.0366 H   0  0  0  0  0  0  0  0  0  0  0  0
   19.3375   19.0202   23.9337 C   0  0  0  0  0  0  0  0  0  0  0  0
   19.1098   20.0556   23.6571 H   0  0  0  0  0  0  0  0  0  0  0  0
   18.6523   18.7918   24.7604 H   0  0  0  0  0  0  0  0  0  0  0  0
   20.7793   18.9231   24.4832 C   0  0  0  0  0  0  0  0  0  0  0  0
   20.8528   17.9901   25.0603 H   0  0  0  0  0  0  0  0  0  0  0  0
   21.9210   18.9015   23.4342 C   0  0  0  0  0  0  0  0  0  0  0  0
   22.8652   19.0029   23.9860 H   0  0  0  0  0  0  0  0  0  0  0  0
   21.9825   17.9113   22.9670 H   0  0  0  0  0  0  0  0  0  0  0  0
   21.8877   19.9976   22.3358 C   0  0  0  0  0  0  0  0  0  0  0  0
   22.9319   20.2038   22.0630 H   0  0  0  0  0  0  0  0  0  0  0  0
   21.5009   20.9452   22.7323 H   0  0  0  0  0  0  0  0  0  0  0  0
   21.1531   19.6007   21.0256 C   0  0  0  0  0  0  0  0  0  0  0  0
   21.3350   18.5479   20.7712 H   0  0  0  0  0  0  0  0  0  0  0  0
   21.6150   20.1796   20.2140 H   0  0  0  0  0  0  0  0  0  0  0  0
   20.9944   20.0196   25.3606 O   0  0  0  0  0  0  0  0  0  0  0  0
   21.0155   20.8163   24.7931 H   0  0  0  0  0  0  0  0  0  0  0  0
  1  2  1  0  0  0  0
  1  3  1  0  0  0  0
  1  4  1  0  0  0  0
  4  5  1  0  0  0  0
  4  6  1  0  0  0  0
  4  7  1  0  0  0  0
  7  8  1  0  0  0  0
  7  9  1  0  0  0  0
  7 10  1  0  0  0  0
 10 11  1  0  0  0  0
 10 12  1  0  0  0  0
 10 13  1  0  0  0  0
 13 14  1  0  0  0  0
 13 15  1  0  0  0  0
 15 16  1  0  0  0  0
 15 17  1  0  0  0  0
 15 18  1  0  0  0  0
 18 19  1  0  0  0  0
 18 20  1  0  0  0  0
  1 21  1  0  0  0  0
 18 21  1  0  0  0  0
 21 22  1  0  0  0  0
 21 23  1  0  0  0  0
 13 24  1  0  0  0  0
 24 25  1  0  0  0  0
M  END
> <VConfSearch Rank>
988

> <Conf_Id>
115

> <Delta U+W>
0.038

> <U+W>
10.952

> <U>
12.526

> <W>
-1.575

> <W(PB)>
-3.698

> <W(SA)>
2.123

> <Valence>
19.016

> <Coulomb>
-9.226

> <VdW>
2.737

> <VdW6>
-12.612

> <VdW12>
15.349

> <Bond>
0.421

> <Angle>
4.883

> <Pdih>
13.711

> <Idih>
0.000

> <Tether>
0.000

$$$$
