@<TRIPOS>MOLECULE
guest-s17_confgen4.mol2 : confsearch ligand conformer 1
          25          25           1
SMALL
USER_CHARGES
 
@<TRIPOS>ATOM
       1    C1      20.608839   19.327126   20.537454 C.3        1 MOL1        -0.1684
       2    H1      20.270535   19.233213   19.496437 H          1 MOL1         0.0833
       3    H2      21.581841   19.834161   20.485896 H          1 MOL1         0.0833
       4    C2      20.784916   17.895621   21.095423 C.3        1 MOL1        -0.1684
       5    H3      19.835285   17.347074   21.033055 H          1 MOL1         0.0833
       6    H4      21.476382   17.365199   20.426449 H          1 MOL1         0.0833
       7    C3      21.355141   17.814856   22.530420 C.3        1 MOL1        -0.1684
       8    H5      22.166307   18.543691   22.659989 H          1 MOL1         0.0833
       9    H6      21.828453   16.829501   22.640936 H          1 MOL1         0.0833
      10    C4      20.288260   17.947569   23.650282 C.3        1 MOL1        -0.1760
      11    H7      19.272926   17.840748   23.248420 H          1 MOL1         0.0833
      12    H8      20.423116   17.097835   24.333163 H          1 MOL1         0.0833
      13    C5      20.393186   19.245670   24.482075 C.3        1 MOL1         0.1219
      14    H9      21.454312   19.507949   24.599932 H          1 MOL1         0.0790
      15    C6      19.640367   20.455639   23.885690 C.3        1 MOL1        -0.1760
      16    H10     18.567296   20.232970   23.818402 H          1 MOL1         0.0833
      17    H11     19.729039   21.285193   24.599405 H          1 MOL1         0.0833
      18    C7      20.166841   20.957681   22.519144 C.3        1 MOL1        -0.1684
      19    H12     21.264969   20.954528   22.507520 H          1 MOL1         0.0833
      20    H13     19.878338   22.013752   22.425816 H          1 MOL1         0.0833
      21    C8      19.585603   20.208485   21.291597 C.3        1 MOL1        -0.1684
      22    H14     19.225088   20.967873   20.584094 H          1 MOL1         0.0833
      23    H15     18.698842   19.620028   21.562153 H          1 MOL1         0.0833
      24    O1      19.840848   18.990352   25.767914 O.3        1 MOL1        -0.5508
      25    H16     19.965113   19.806042   26.296632 H          1 MOL1         0.3780
@<TRIPOS>BOND
    1     1     2    1
    2     1     3    1
    3     1     4    1
    4     4     5    1
    5     4     6    1
    6     4     7    1
    7     7     8    1
    8     7     9    1
    9     7    10    1
   10    10    11    1
   11    10    12    1
   12    10    13    1
   13    13    14    1
   14    13    15    1
   15    15    16    1
   16    15    17    1
   17    15    18    1
   18    18    19    1
   19    18    20    1
   20     1    21    1
   21    18    21    1
   22    21    22    1
   23    21    23    1
   24    13    24    1
   25    24    25    1
@<TRIPOS>SUBSTRUCTURE
       1 MOL1            1 RESIDUE      1      MOL     
@<SCITEGIC>MOL_PROPERTY
VConf Rank
SciTegic.value.IntegerValue
1

@<SCITEGIC>MOL_PROPERTY
Conf_Id
SciTegic.value.IntegerValue
30

@<SCITEGIC>MOL_PROPERTY
Delta U+W
SciTegic.value.DoubleValue
0.000

@<SCITEGIC>MOL_PROPERTY
U+W
SciTegic.value.DoubleValue
10.913

@<SCITEGIC>MOL_PROPERTY
Grad RMS
SciTegic.value.DoubleValue
0.000000

@<SCITEGIC>MOL_PROPERTY
U
SciTegic.value.DoubleValue
13.140

@<SCITEGIC>MOL_PROPERTY
W
SciTegic.value.DoubleValue
-2.227

@<SCITEGIC>MOL_PROPERTY
W(PB)
SciTegic.value.DoubleValue
-4.367

@<SCITEGIC>MOL_PROPERTY
W(SA)
SciTegic.value.DoubleValue
2.140

@<SCITEGIC>MOL_PROPERTY
Valence
SciTegic.value.DoubleValue
19.155

@<SCITEGIC>MOL_PROPERTY
Coulomb
SciTegic.value.DoubleValue
-8.157

@<SCITEGIC>MOL_PROPERTY
VdW
SciTegic.value.DoubleValue
2.142

@<SCITEGIC>MOL_PROPERTY
VdW6
SciTegic.value.DoubleValue
-11.576

@<SCITEGIC>MOL_PROPERTY
VdW12
SciTegic.value.DoubleValue
13.718

@<SCITEGIC>MOL_PROPERTY
Bond
SciTegic.value.DoubleValue
0.294

@<SCITEGIC>MOL_PROPERTY
Angle
SciTegic.value.DoubleValue
3.547

@<SCITEGIC>MOL_PROPERTY
Pdih
SciTegic.value.DoubleValue
15.314

@<SCITEGIC>MOL_PROPERTY
Idih
SciTegic.value.DoubleValue
0.000

@<SCITEGIC>MOL_PROPERTY
Tether
SciTegic.value.DoubleValue
0.000

@<TRIPOS>MOLECULE
guest-s17_confgen4.mol2 : confsearch ligand conformer 2
          25          25           1
SMALL
USER_CHARGES
 
@<TRIPOS>ATOM
       1    C1      20.793833   19.397871   20.578940 C.3        1 MOL1        -0.1684
       2    H1      20.415286   18.895515   19.678274 H          1 MOL1         0.0833
       3    H2      21.618324   20.038291   20.237107 H          1 MOL1         0.0833
       4    C2      21.376277   18.324896   21.531604 C.3        1 MOL1        -0.1684
       5    H3      21.970426   17.624271   20.929123 H          1 MOL1         0.0833
       6    H4      22.100848   18.789457   22.210380 H          1 MOL1         0.0833
       7    C3      20.310655   17.520370   22.318361 C.3        1 MOL1        -0.1684
       8    H5      20.462497   16.449875   22.124272 H          1 MOL1         0.0833
       9    H6      19.302276   17.732067   21.944203 H          1 MOL1         0.0833
      10    C4      20.356169   17.741615   23.851507 C.3        1 MOL1        -0.1760
      11    H7      19.459398   17.288016   24.294010 H          1 MOL1         0.0833
      12    H8      21.208704   17.182027   24.257967 H          1 MOL1         0.0833
      13    C5      20.477357   19.205478   24.344046 C.3        1 MOL1         0.1219
      14    H9      21.486077   19.579002   24.122795 H          1 MOL1         0.0790
      15    C6      19.442966   20.188866   23.743812 C.3        1 MOL1        -0.1760
      16    H10     18.501152   19.667802   23.529271 H          1 MOL1         0.0833
      17    H11     19.194070   20.933233   24.511903 H          1 MOL1         0.0833
      18    C7      19.935495   20.979053   22.498513 C.3        1 MOL1        -0.1684
      19    H12     20.996685   21.246774   22.591369 H          1 MOL1         0.0833
      20    H13     19.393485   21.934786   22.492473 H          1 MOL1         0.0833
      21    C8      19.658017   20.296818   21.136029 C.3        1 MOL1        -0.1684
      22    H14     19.482456   21.086802   20.392947 H          1 MOL1         0.0833
      23    H15     18.712644   19.741297   21.180710 H          1 MOL1         0.0833
      24    O1      20.313231   19.188032   25.757189 O.3        1 MOL1        -0.5508
      25    H16     20.470309   20.103085   26.070970 H          1 MOL1         0.3780
@<TRIPOS>BOND
    1     1     2    1
    2     1     3    1
    3     1     4    1
    4     4     5    1
    5     4     6    1
    6     4     7    1
    7     7     8    1
    8     7     9    1
    9     7    10    1
   10    10    11    1
   11    10    12    1
   12    10    13    1
   13    13    14    1
   14    13    15    1
   15    15    16    1
   16    15    17    1
   17    15    18    1
   18    18    19    1
   19    18    20    1
   20     1    21    1
   21    18    21    1
   22    21    22    1
   23    21    23    1
   24    13    24    1
   25    24    25    1
@<TRIPOS>SUBSTRUCTURE
       1 MOL1            1 RESIDUE      1      MOL     
@<SCITEGIC>MOL_PROPERTY
VConf Rank
SciTegic.value.IntegerValue
2

@<SCITEGIC>MOL_PROPERTY
Conf_Id
SciTegic.value.IntegerValue
162

@<SCITEGIC>MOL_PROPERTY
Delta U+W
SciTegic.value.DoubleValue
0.219

@<SCITEGIC>MOL_PROPERTY
U+W
SciTegic.value.DoubleValue
11.132

@<SCITEGIC>MOL_PROPERTY
Grad RMS
SciTegic.value.DoubleValue
0.000000

@<SCITEGIC>MOL_PROPERTY
U
SciTegic.value.DoubleValue
13.296

@<SCITEGIC>MOL_PROPERTY
W
SciTegic.value.DoubleValue
-2.164

@<SCITEGIC>MOL_PROPERTY
W(PB)
SciTegic.value.DoubleValue
-4.311

@<SCITEGIC>MOL_PROPERTY
W(SA)
SciTegic.value.DoubleValue
2.148

@<SCITEGIC>MOL_PROPERTY
Valence
SciTegic.value.DoubleValue
18.607

@<SCITEGIC>MOL_PROPERTY
Coulomb
SciTegic.value.DoubleValue
-8.339

@<SCITEGIC>MOL_PROPERTY
VdW
SciTegic.value.DoubleValue
3.028

@<SCITEGIC>MOL_PROPERTY
VdW6
SciTegic.value.DoubleValue
-12.271

@<SCITEGIC>MOL_PROPERTY
VdW12
SciTegic.value.DoubleValue
15.299

@<SCITEGIC>MOL_PROPERTY
Bond
SciTegic.value.DoubleValue
0.423

@<SCITEGIC>MOL_PROPERTY
Angle
SciTegic.value.DoubleValue
4.488

@<SCITEGIC>MOL_PROPERTY
Pdih
SciTegic.value.DoubleValue
13.696

@<SCITEGIC>MOL_PROPERTY
Idih
SciTegic.value.DoubleValue
0.000

@<SCITEGIC>MOL_PROPERTY
Tether
SciTegic.value.DoubleValue
0.000

@<TRIPOS>MOLECULE
guest-s17_confgen4.mol2 : confsearch ligand conformer 3
          25          25           1
SMALL
USER_CHARGES
 
@<TRIPOS>ATOM
       1    C1      20.803687   19.508252   20.739977 C.3        1 MOL1        -0.1684
       2    H1      21.783314   19.876927   21.069528 H          1 MOL1         0.0833
       3    H2      20.850324   19.532813   19.642622 H          1 MOL1         0.0833
       4    C2      20.619190   18.033798   21.177753 C.3        1 MOL1        -0.1684
       5    H3      19.555826   17.759115   21.183869 H          1 MOL1         0.0833
       6    H4      21.075825   17.410276   20.396828 H          1 MOL1         0.0833
       7    C3      21.305878   17.650555   22.518330 C.3        1 MOL1        -0.1684
       8    H5      22.269351   18.165286   22.632075 H          1 MOL1         0.0833
       9    H6      21.553497   16.582078   22.453736 H          1 MOL1         0.0833
      10    C4      20.430442   17.832030   23.785558 C.3        1 MOL1        -0.1760
      11    H7      19.379847   17.625007   23.547468 H          1 MOL1         0.0833
      12    H8      20.715936   17.053170   24.504643 H          1 MOL1         0.0833
      13    C5      20.564384   19.186590   24.526201 C.3        1 MOL1         0.1219
      14    H9      21.553475   19.211454   25.005966 H          1 MOL1         0.0790
      15    C6      20.444251   20.459042   23.654142 C.3        1 MOL1        -0.1760
      16    H10     20.344075   21.328587   24.316605 H          1 MOL1         0.0833
      17    H11     21.392692   20.622680   23.131399 H          1 MOL1         0.0833
      18    C7      19.256131   20.453182   22.656239 C.3        1 MOL1        -0.1684
      19    H12     18.623834   21.329044   22.854797 H          1 MOL1         0.0833
      20    H13     18.601684   19.591213   22.831790 H          1 MOL1         0.0833
      21    C8      19.678638   20.487798   21.167591 C.3        1 MOL1        -0.1684
      22    H14     20.000242   21.507709   20.916411 H          1 MOL1         0.0833
      23    H15     18.788357   20.295725   20.553408 H          1 MOL1         0.0833
      24    O1      19.561398   19.231753   25.534209 O.3        1 MOL1        -0.5508
      25    H16     19.658432   20.093239   25.989778 H          1 MOL1         0.3780
@<TRIPOS>BOND
    1     1     2    1
    2     1     3    1
    3     1     4    1
    4     4     5    1
    5     4     6    1
    6     4     7    1
    7     7     8    1
    8     7     9    1
    9     7    10    1
   10    10    11    1
   11    10    12    1
   12    10    13    1
   13    13    14    1
   14    13    15    1
   15    15    16    1
   16    15    17    1
   17    15    18    1
   18    18    19    1
   19    18    20    1
   20     1    21    1
   21    18    21    1
   22    21    22    1
   23    21    23    1
   24    13    24    1
   25    24    25    1
@<TRIPOS>SUBSTRUCTURE
       1 MOL1            1 RESIDUE      1      MOL     
@<SCITEGIC>MOL_PROPERTY
VConf Rank
SciTegic.value.IntegerValue
3

@<SCITEGIC>MOL_PROPERTY
Conf_Id
SciTegic.value.IntegerValue
155

@<SCITEGIC>MOL_PROPERTY
Delta U+W
SciTegic.value.DoubleValue
0.339

@<SCITEGIC>MOL_PROPERTY
U+W
SciTegic.value.DoubleValue
11.252

@<SCITEGIC>MOL_PROPERTY
Grad RMS
SciTegic.value.DoubleValue
0.000000

@<SCITEGIC>MOL_PROPERTY
U
SciTegic.value.DoubleValue
13.420

@<SCITEGIC>MOL_PROPERTY
W
SciTegic.value.DoubleValue
-2.167

@<SCITEGIC>MOL_PROPERTY
W(PB)
SciTegic.value.DoubleValue
-4.325

@<SCITEGIC>MOL_PROPERTY
W(SA)
SciTegic.value.DoubleValue
2.157

@<SCITEGIC>MOL_PROPERTY
Valence
SciTegic.value.DoubleValue
18.609

@<SCITEGIC>MOL_PROPERTY
Coulomb
SciTegic.value.DoubleValue
-8.052

@<SCITEGIC>MOL_PROPERTY
VdW
SciTegic.value.DoubleValue
2.863

@<SCITEGIC>MOL_PROPERTY
VdW6
SciTegic.value.DoubleValue
-12.524

@<SCITEGIC>MOL_PROPERTY
VdW12
SciTegic.value.DoubleValue
15.387

@<SCITEGIC>MOL_PROPERTY
Bond
SciTegic.value.DoubleValue
0.430

@<SCITEGIC>MOL_PROPERTY
Angle
SciTegic.value.DoubleValue
4.724

@<SCITEGIC>MOL_PROPERTY
Pdih
SciTegic.value.DoubleValue
13.455

@<SCITEGIC>MOL_PROPERTY
Idih
SciTegic.value.DoubleValue
0.000

@<SCITEGIC>MOL_PROPERTY
Tether
SciTegic.value.DoubleValue
0.000

@<TRIPOS>MOLECULE
guest-s17_confgen4.mol2 : confsearch ligand conformer 4
          25          25           1
SMALL
USER_CHARGES
 
@<TRIPOS>ATOM
       1    C1      20.728774   19.252394   20.704133 C.3        1 MOL1        -0.1684
       2    H1      21.766764   19.013963   20.435680 H          1 MOL1         0.0833
       3    H2      20.211867   19.422788   19.749902 H          1 MOL1         0.0833
       4    C2      20.071121   18.008263   21.357165 C.3        1 MOL1        -0.1684
       5    H3      19.006394   18.204740   21.518074 H          1 MOL1         0.0833
       6    H4      20.073568   17.201748   20.611347 H          1 MOL1         0.0833
       7    C3      20.730233   17.439433   22.647599 C.3        1 MOL1        -0.1684
       8    H5      21.521217   16.744698   22.334166 H          1 MOL1         0.0833
       9    H6      19.993695   16.824109   23.182021 H          1 MOL1         0.0833
      10    C4      21.374760   18.441132   23.644136 C.3        1 MOL1        -0.1760
      11    H7      21.903796   17.852328   24.404879 H          1 MOL1         0.0833
      12    H8      22.182657   18.979248   23.140662 H          1 MOL1         0.0833
      13    C5      20.437626   19.441409   24.382736 C.3        1 MOL1         0.1219
      14    H9      21.045506   20.303620   24.692322 H          1 MOL1         0.0790
      15    C6      19.207002   19.979478   23.610345 C.3        1 MOL1        -0.1760
      16    H10     18.555668   19.140944   23.347393 H          1 MOL1         0.0833
      17    H11     18.603640   20.564088   24.317317 H          1 MOL1         0.0833
      18    C7      19.464796   20.890564   22.372699 C.3        1 MOL1        -0.1684
      19    H12     19.569354   21.920949   22.739049 H          1 MOL1         0.0833
      20    H13     18.566074   20.894385   21.741347 H          1 MOL1         0.0833
      21    C8      20.706615   20.595710   21.490863 C.3        1 MOL1        -0.1684
      22    H14     21.614357   20.710226   22.091587 H          1 MOL1         0.0833
      23    H15     20.786233   21.403480   20.750560 H          1 MOL1         0.0833
      24    O1      19.943072   18.794617   25.550323 O.3        1 MOL1        -0.5508
      25    H16     20.723936   18.500559   26.063181 H          1 MOL1         0.3780
@<TRIPOS>BOND
    1     1     2    1
    2     1     3    1
    3     1     4    1
    4     4     5    1
    5     4     6    1
    6     4     7    1
    7     7     8    1
    8     7     9    1
    9     7    10    1
   10    10    11    1
   11    10    12    1
   12    10    13    1
   13    13    14    1
   14    13    15    1
   15    15    16    1
   16    15    17    1
   17    15    18    1
   18    18    19    1
   19    18    20    1
   20     1    21    1
   21    18    21    1
   22    21    22    1
   23    21    23    1
   24    13    24    1
   25    24    25    1
@<TRIPOS>SUBSTRUCTURE
       1 MOL1            1 RESIDUE      1      MOL     
@<SCITEGIC>MOL_PROPERTY
VConf Rank
SciTegic.value.IntegerValue
4

@<SCITEGIC>MOL_PROPERTY
Conf_Id
SciTegic.value.IntegerValue
146

@<SCITEGIC>MOL_PROPERTY
Delta U+W
SciTegic.value.DoubleValue
2.553

@<SCITEGIC>MOL_PROPERTY
U+W
SciTegic.value.DoubleValue
13.466

@<SCITEGIC>MOL_PROPERTY
Grad RMS
SciTegic.value.DoubleValue
0.000000

@<SCITEGIC>MOL_PROPERTY
U
SciTegic.value.DoubleValue
15.643

@<SCITEGIC>MOL_PROPERTY
W
SciTegic.value.DoubleValue
-2.176

@<SCITEGIC>MOL_PROPERTY
W(PB)
SciTegic.value.DoubleValue
-4.307

@<SCITEGIC>MOL_PROPERTY
W(SA)
SciTegic.value.DoubleValue
2.131

@<SCITEGIC>MOL_PROPERTY
Valence
SciTegic.value.DoubleValue
18.916

@<SCITEGIC>MOL_PROPERTY
Coulomb
SciTegic.value.DoubleValue
-7.506

@<SCITEGIC>MOL_PROPERTY
VdW
SciTegic.value.DoubleValue
4.232

@<SCITEGIC>MOL_PROPERTY
VdW6
SciTegic.value.DoubleValue
-13.632

@<SCITEGIC>MOL_PROPERTY
VdW12
SciTegic.value.DoubleValue
17.864

@<SCITEGIC>MOL_PROPERTY
Bond
SciTegic.value.DoubleValue
0.735

@<SCITEGIC>MOL_PROPERTY
Angle
SciTegic.value.DoubleValue
9.140

@<SCITEGIC>MOL_PROPERTY
Pdih
SciTegic.value.DoubleValue
9.042

@<SCITEGIC>MOL_PROPERTY
Idih
SciTegic.value.DoubleValue
0.000

@<SCITEGIC>MOL_PROPERTY
Tether
SciTegic.value.DoubleValue
0.000

@<TRIPOS>MOLECULE
guest-s17_confgen4.mol2 : confsearch ligand conformer 5
          25          25           1
SMALL
USER_CHARGES
 
@<TRIPOS>ATOM
       1    C1      20.505929   19.213791   20.598633 C.3        1 MOL1        -0.1684
       2    H1      19.970616   18.491470   19.967603 H          1 MOL1         0.0833
       3    H2      21.096520   19.830377   19.907304 H          1 MOL1         0.0833
       4    C2      21.503726   18.455899   21.509753 C.3        1 MOL1        -0.1684
       5    H3      22.211434   17.932019   20.852867 H          1 MOL1         0.0833
       6    H4      22.122300   19.165601   22.070856 H          1 MOL1         0.0833
       7    C3      20.890707   17.398017   22.461318 C.3        1 MOL1        -0.1684
       8    H5      21.722033   16.870572   22.948842 H          1 MOL1         0.0833
       9    H6      20.363027   16.638651   21.868563 H          1 MOL1         0.0833
      10    C4      19.942076   17.917873   23.572872 C.3        1 MOL1        -0.1760
      11    H7      18.936277   18.076179   23.171153 H          1 MOL1         0.0833
      12    H8      19.821551   17.104168   24.300810 H          1 MOL1         0.0833
      13    C5      20.429601   19.190543   24.312268 C.3        1 MOL1         0.1219
      14    H9      21.513097   19.304736   24.173564 H          1 MOL1         0.0790
      15    C6      19.715556   20.493063   23.870287 C.3        1 MOL1        -0.1760
      16    H10     18.630535   20.364044   23.978929 H          1 MOL1         0.0833
      17    H11     19.991858   21.287297   24.576113 H          1 MOL1         0.0833
      18    C7      20.029461   21.015670   22.442019 C.3        1 MOL1        -0.1684
      19    H12     21.105995   21.190966   22.318947 H          1 MOL1         0.0833
      20    H13     19.565988   22.007929   22.354856 H          1 MOL1         0.0833
      21    C8      19.471916   20.138978   21.290916 C.3        1 MOL1        -0.1684
      22    H14     19.068589   20.806963   20.517506 H          1 MOL1         0.0833
      23    H15     18.604677   19.562259   21.631673 H          1 MOL1         0.0833
      24    O1      20.175029   19.019166   25.701934 O.3        1 MOL1        -0.5508
      25    H16     20.542600   19.805666   26.156390 H          1 MOL1         0.3780
@<TRIPOS>BOND
    1     1     2    1
    2     1     3    1
    3     1     4    1
    4     4     5    1
    5     4     6    1
    6     4     7    1
    7     7     8    1
    8     7     9    1
    9     7    10    1
   10    10    11    1
   11    10    12    1
   12    10    13    1
   13    13    14    1
   14    13    15    1
   15    15    16    1
   16    15    17    1
   17    15    18    1
   18    18    19    1
   19    18    20    1
   20     1    21    1
   21    18    21    1
   22    21    22    1
   23    21    23    1
   24    13    24    1
   25    24    25    1
@<TRIPOS>SUBSTRUCTURE
       1 MOL1            1 RESIDUE      1      MOL     
@<SCITEGIC>MOL_PROPERTY
VConf Rank
SciTegic.value.IntegerValue
5

@<SCITEGIC>MOL_PROPERTY
Conf_Id
SciTegic.value.IntegerValue
62

@<SCITEGIC>MOL_PROPERTY
Delta U+W
SciTegic.value.DoubleValue
-1.779

@<SCITEGIC>MOL_PROPERTY
U+W
SciTegic.value.DoubleValue
9.134

@<SCITEGIC>MOL_PROPERTY
Grad RMS
SciTegic.value.DoubleValue
0.000000

@<SCITEGIC>MOL_PROPERTY
U
SciTegic.value.DoubleValue
11.364

@<SCITEGIC>MOL_PROPERTY
W
SciTegic.value.DoubleValue
-2.230

@<SCITEGIC>MOL_PROPERTY
W(PB)
SciTegic.value.DoubleValue
-4.359

@<SCITEGIC>MOL_PROPERTY
W(SA)
SciTegic.value.DoubleValue
2.129

@<SCITEGIC>MOL_PROPERTY
Valence
SciTegic.value.DoubleValue
16.582

@<SCITEGIC>MOL_PROPERTY
Coulomb
SciTegic.value.DoubleValue
-8.150

@<SCITEGIC>MOL_PROPERTY
VdW
SciTegic.value.DoubleValue
2.933

@<SCITEGIC>MOL_PROPERTY
VdW6
SciTegic.value.DoubleValue
-12.531

@<SCITEGIC>MOL_PROPERTY
VdW12
SciTegic.value.DoubleValue
15.464

@<SCITEGIC>MOL_PROPERTY
Bond
SciTegic.value.DoubleValue
0.439

@<SCITEGIC>MOL_PROPERTY
Angle
SciTegic.value.DoubleValue
5.099

@<SCITEGIC>MOL_PROPERTY
Pdih
SciTegic.value.DoubleValue
11.044

@<SCITEGIC>MOL_PROPERTY
Idih
SciTegic.value.DoubleValue
0.000

@<SCITEGIC>MOL_PROPERTY
Tether
SciTegic.value.DoubleValue
0.000

@<TRIPOS>MOLECULE
guest-s17_confgen4.mol2 : confsearch ligand conformer 6
          25          25           1
SMALL
USER_CHARGES
 
@<TRIPOS>ATOM
       1    C1      19.705322   18.990067   20.936165 C.3        1 MOL1        -0.1684
       2    H1      18.875375   18.676672   21.579668 H          1 MOL1         0.0833
       3    H2      19.329269   18.852514   19.913275 H          1 MOL1         0.0833
       4    C2      20.915164   18.038996   21.113363 C.3        1 MOL1        -0.1684
       5    H3      20.582597   17.028940   20.837551 H          1 MOL1         0.0833
       6    H4      21.694502   18.303903   20.386072 H          1 MOL1         0.0833
       7    C3      21.550593   17.959555   22.524972 C.3        1 MOL1        -0.1684
       8    H5      22.258547   18.782513   22.675083 H          1 MOL1         0.0833
       9    H6      22.172800   17.054406   22.549235 H          1 MOL1         0.0833
      10    C4      20.542363   17.886608   23.702879 C.3        1 MOL1        -0.1760
      11    H7      19.576595   17.485810   23.371361 H          1 MOL1         0.0833
      12    H8      20.931484   17.149467   24.417408 H          1 MOL1         0.0833
      13    C5      20.342584   19.215812   24.474047 C.3        1 MOL1         0.1219
      14    H9      21.330594   19.587805   24.781356 H          1 MOL1         0.0790
      15    C6      19.616492   20.352043   23.711368 C.3        1 MOL1        -0.1760
      16    H10     18.623837   20.021325   23.382657 H          1 MOL1         0.0833
      17    H11     19.427332   21.154143   24.437085 H          1 MOL1         0.0833
      18    C7      20.419455   20.970790   22.535796 C.3        1 MOL1        -0.1684
      19    H12     21.494734   20.819013   22.683059 H          1 MOL1         0.0833
      20    H13     20.289123   22.061165   22.568100 H          1 MOL1         0.0833
      21    C8      19.991733   20.501102   21.121806 C.3        1 MOL1        -0.1684
      22    H14     20.752170   20.818390   20.395482 H          1 MOL1         0.0833
      23    H15     19.076583   21.044826   20.850246 H          1 MOL1         0.0833
      24    O1      19.580294   18.928028   25.639603 O.3        1 MOL1        -0.5508
      25    H16     20.082652   18.257840   26.148162 H          1 MOL1         0.3780
@<TRIPOS>BOND
    1     1     2    1
    2     1     3    1
    3     1     4    1
    4     4     5    1
    5     4     6    1
    6     4     7    1
    7     7     8    1
    8     7     9    1
    9     7    10    1
   10    10    11    1
   11    10    12    1
   12    10    13    1
   13    13    14    1
   14    13    15    1
   15    15    16    1
   16    15    17    1
   17    15    18    1
   18    18    19    1
   19    18    20    1
   20     1    21    1
   21    18    21    1
   22    21    22    1
   23    21    23    1
   24    13    24    1
   25    24    25    1
@<TRIPOS>SUBSTRUCTURE
       1 MOL1            1 RESIDUE      1      MOL     
@<SCITEGIC>MOL_PROPERTY
VConf Rank
SciTegic.value.IntegerValue
6

@<SCITEGIC>MOL_PROPERTY
Conf_Id
SciTegic.value.IntegerValue
121

@<SCITEGIC>MOL_PROPERTY
Delta U+W
SciTegic.value.DoubleValue
-1.283

@<SCITEGIC>MOL_PROPERTY
U+W
SciTegic.value.DoubleValue
9.630

@<SCITEGIC>MOL_PROPERTY
Grad RMS
SciTegic.value.DoubleValue
0.000000

@<SCITEGIC>MOL_PROPERTY
U
SciTegic.value.DoubleValue
11.876

@<SCITEGIC>MOL_PROPERTY
W
SciTegic.value.DoubleValue
-2.246

@<SCITEGIC>MOL_PROPERTY
W(PB)
SciTegic.value.DoubleValue
-4.376

@<SCITEGIC>MOL_PROPERTY
W(SA)
SciTegic.value.DoubleValue
2.130

@<SCITEGIC>MOL_PROPERTY
Valence
SciTegic.value.DoubleValue
17.153

@<SCITEGIC>MOL_PROPERTY
Coulomb
SciTegic.value.DoubleValue
-7.966

@<SCITEGIC>MOL_PROPERTY
VdW
SciTegic.value.DoubleValue
2.689

@<SCITEGIC>MOL_PROPERTY
VdW6
SciTegic.value.DoubleValue
-12.458

@<SCITEGIC>MOL_PROPERTY
VdW12
SciTegic.value.DoubleValue
15.147

@<SCITEGIC>MOL_PROPERTY
Bond
SciTegic.value.DoubleValue
0.421

@<SCITEGIC>MOL_PROPERTY
Angle
SciTegic.value.DoubleValue
5.258

@<SCITEGIC>MOL_PROPERTY
Pdih
SciTegic.value.DoubleValue
11.475

@<SCITEGIC>MOL_PROPERTY
Idih
SciTegic.value.DoubleValue
0.000

@<SCITEGIC>MOL_PROPERTY
Tether
SciTegic.value.DoubleValue
0.000

@<TRIPOS>MOLECULE
guest-s17_confgen4.mol2 : confsearch ligand conformer 7
          25          25           1
SMALL
USER_CHARGES
 
@<TRIPOS>ATOM
       1    C1      19.705536   18.989455   20.936167 C.3        1 MOL1        -0.1684
       2    H1      18.875914   18.675200   21.579669 H          1 MOL1         0.0833
       3    H2      19.329528   18.851777   19.913277 H          1 MOL1         0.0833
       4    C2      20.916108   18.039246   21.113196 C.3        1 MOL1        -0.1684
       5    H3      20.584355   17.029245   20.836210 H          1 MOL1         0.0833
       6    H4      21.695767   18.305318   20.386684 H          1 MOL1         0.0833
       7    C3      21.550529   17.958495   22.525256 C.3        1 MOL1        -0.1684
       8    H5      22.260521   18.779569   22.675907 H          1 MOL1         0.0833
       9    H6      22.170129   17.051631   22.550573 H          1 MOL1         0.0833
      10    C4      20.541484   17.888635   23.702763 C.3        1 MOL1        -0.1760
      11    H7      19.575723   17.486281   23.373815 H          1 MOL1         0.0833
      12    H8      20.928675   17.155843   24.423116 H          1 MOL1         0.0833
      13    C5      20.342051   19.217263   24.474053 C.3        1 MOL1         0.1219
      14    H9      21.331427   19.585615   24.781351 H          1 MOL1         0.0790
      15    C6      19.615837   20.354151   23.711503 C.3        1 MOL1        -0.1760
      16    H10     18.624190   20.022275   23.380223 H          1 MOL1         0.0833
      17    H11     19.425266   21.160838   24.431422 H          1 MOL1         0.0833
      18    C7      20.420205   20.970030   22.535496 C.3        1 MOL1        -0.1684
      19    H12     21.495190   20.815484   22.682184 H          1 MOL1         0.0833
      20    H13     20.292981   22.060838   22.566739 H          1 MOL1         0.0833
      21    C8      19.990831   20.500659   21.121973 C.3        1 MOL1        -0.1684
      22    H14     20.750237   20.818621   20.394857 H          1 MOL1         0.0833
      23    H15     19.075025   21.043882   20.851607 H          1 MOL1         0.0833
      24    O1      19.581419   18.925065   25.639594 O.3        1 MOL1        -0.5508
      25    H16     19.519636   19.757156   26.153362 H          1 MOL1         0.3780
@<TRIPOS>BOND
    1     1     2    1
    2     1     3    1
    3     1     4    1
    4     4     5    1
    5     4     6    1
    6     4     7    1
    7     7     8    1
    8     7     9    1
    9     7    10    1
   10    10    11    1
   11    10    12    1
   12    10    13    1
   13    13    14    1
   14    13    15    1
   15    15    16    1
   16    15    17    1
   17    15    18    1
   18    18    19    1
   19    18    20    1
   20     1    21    1
   21    18    21    1
   22    21    22    1
   23    21    23    1
   24    13    24    1
   25    24    25    1
@<TRIPOS>SUBSTRUCTURE
       1 MOL1            1 RESIDUE      1      MOL     
@<SCITEGIC>MOL_PROPERTY
VConf Rank
SciTegic.value.IntegerValue
7

@<SCITEGIC>MOL_PROPERTY
Conf_Id
SciTegic.value.IntegerValue
24

@<SCITEGIC>MOL_PROPERTY
Delta U+W
SciTegic.value.DoubleValue
-1.236

@<SCITEGIC>MOL_PROPERTY
U+W
SciTegic.value.DoubleValue
9.678

@<SCITEGIC>MOL_PROPERTY
Grad RMS
SciTegic.value.DoubleValue
0.000000

@<SCITEGIC>MOL_PROPERTY
U
SciTegic.value.DoubleValue
11.876

@<SCITEGIC>MOL_PROPERTY
W
SciTegic.value.DoubleValue
-2.199

@<SCITEGIC>MOL_PROPERTY
W(PB)
SciTegic.value.DoubleValue
-4.335

@<SCITEGIC>MOL_PROPERTY
W(SA)
SciTegic.value.DoubleValue
2.137

@<SCITEGIC>MOL_PROPERTY
Valence
SciTegic.value.DoubleValue
17.153

@<SCITEGIC>MOL_PROPERTY
Coulomb
SciTegic.value.DoubleValue
-7.966

@<SCITEGIC>MOL_PROPERTY
VdW
SciTegic.value.DoubleValue
2.689

@<SCITEGIC>MOL_PROPERTY
VdW6
SciTegic.value.DoubleValue
-12.458

@<SCITEGIC>MOL_PROPERTY
VdW12
SciTegic.value.DoubleValue
15.147

@<SCITEGIC>MOL_PROPERTY
Bond
SciTegic.value.DoubleValue
0.421

@<SCITEGIC>MOL_PROPERTY
Angle
SciTegic.value.DoubleValue
5.258

@<SCITEGIC>MOL_PROPERTY
Pdih
SciTegic.value.DoubleValue
11.475

@<SCITEGIC>MOL_PROPERTY
Idih
SciTegic.value.DoubleValue
0.000

@<SCITEGIC>MOL_PROPERTY
Tether
SciTegic.value.DoubleValue
0.000

@<TRIPOS>MOLECULE
guest-s17_confgen4.mol2 : confsearch ligand conformer 8
          25          25           1
SMALL
USER_CHARGES
 
@<TRIPOS>ATOM
       1    C1      20.819401   19.403982   20.584173 C.3        1 MOL1        -0.1684
       2    H1      21.864507   19.444467   20.248182 H          1 MOL1         0.0833
       3    H2      20.211311   19.559095   19.682497 H          1 MOL1         0.0833
       4    C2      20.520201   17.979599   21.122515 C.3        1 MOL1        -0.1684
       5    H3      19.438303   17.799293   21.158301 H          1 MOL1         0.0833
       6    H4      20.896856   17.269327   20.373709 H          1 MOL1         0.0833
       7    C3      21.162067   17.619258   22.485168 C.3        1 MOL1        -0.1684
       8    H5      22.145608   18.096547   22.591465 H          1 MOL1         0.0833
       9    H6      21.363232   16.539254   22.467074 H          1 MOL1         0.0833
      10    C4      20.268609   17.890685   23.728545 C.3        1 MOL1        -0.1760
      11    H7      19.214982   17.678997   23.505979 H          1 MOL1         0.0833
      12    H8      20.561779   17.156249   24.491176 H          1 MOL1         0.0833
      13    C5      20.420403   19.301564   24.347784 C.3        1 MOL1         0.1219
      14    H9      21.437353   19.663350   24.146292 H          1 MOL1         0.0790
      15    C6      19.395431   20.355654   23.857747 C.3        1 MOL1        -0.1760
      16    H10     18.409204   20.130727   24.284519 H          1 MOL1         0.0833
      17    H11     19.691228   21.326591   24.276563 H          1 MOL1         0.0833
      18    C7      19.234023   20.514587   22.324996 C.3        1 MOL1        -0.1684
      19    H12     18.667558   21.436619   22.135962 H          1 MOL1         0.0833
      20    H13     18.598272   19.711248   21.934923 H          1 MOL1         0.0833
      21    C8      20.575062   20.587717   21.551937 C.3        1 MOL1        -0.1684
      22    H14     21.423128   20.681686   22.240130 H          1 MOL1         0.0833
      23    H15     20.590885   21.515220   20.963413 H          1 MOL1         0.0833
      24    O1      20.268802   19.189954   25.757135 O.3        1 MOL1        -0.5508
      25    H16     19.364658   18.847253   25.912227 H          1 MOL1         0.3780
@<TRIPOS>BOND
    1     1     2    1
    2     1     3    1
    3     1     4    1
    4     4     5    1
    5     4     6    1
    6     4     7    1
    7     7     8    1
    8     7     9    1
    9     7    10    1
   10    10    11    1
   11    10    12    1
   12    10    13    1
   13    13    14    1
   14    13    15    1
   15    15    16    1
   16    15    17    1
   17    15    18    1
   18    18    19    1
   19    18    20    1
   20     1    21    1
   21    18    21    1
   22    21    22    1
   23    21    23    1
   24    13    24    1
   25    24    25    1
@<TRIPOS>SUBSTRUCTURE
       1 MOL1            1 RESIDUE      1      MOL     
@<SCITEGIC>MOL_PROPERTY
VConf Rank
SciTegic.value.IntegerValue
8

@<SCITEGIC>MOL_PROPERTY
Conf_Id
SciTegic.value.IntegerValue
167

@<SCITEGIC>MOL_PROPERTY
Delta U+W
SciTegic.value.DoubleValue
0.388

@<SCITEGIC>MOL_PROPERTY
U+W
SciTegic.value.DoubleValue
11.301

@<SCITEGIC>MOL_PROPERTY
Grad RMS
SciTegic.value.DoubleValue
0.000000

@<SCITEGIC>MOL_PROPERTY
U
SciTegic.value.DoubleValue
13.202

@<SCITEGIC>MOL_PROPERTY
W
SciTegic.value.DoubleValue
-1.901

@<SCITEGIC>MOL_PROPERTY
W(PB)
SciTegic.value.DoubleValue
-4.065

@<SCITEGIC>MOL_PROPERTY
W(SA)
SciTegic.value.DoubleValue
2.163

@<SCITEGIC>MOL_PROPERTY
Valence
SciTegic.value.DoubleValue
18.957

@<SCITEGIC>MOL_PROPERTY
Coulomb
SciTegic.value.DoubleValue
-8.753

@<SCITEGIC>MOL_PROPERTY
VdW
SciTegic.value.DoubleValue
2.998

@<SCITEGIC>MOL_PROPERTY
VdW6
SciTegic.value.DoubleValue
-12.294

@<SCITEGIC>MOL_PROPERTY
VdW12
SciTegic.value.DoubleValue
15.292

@<SCITEGIC>MOL_PROPERTY
Bond
SciTegic.value.DoubleValue
0.419

@<SCITEGIC>MOL_PROPERTY
Angle
SciTegic.value.DoubleValue
4.543

@<SCITEGIC>MOL_PROPERTY
Pdih
SciTegic.value.DoubleValue
13.996

@<SCITEGIC>MOL_PROPERTY
Idih
SciTegic.value.DoubleValue
0.000

@<SCITEGIC>MOL_PROPERTY
Tether
SciTegic.value.DoubleValue
0.000

@<TRIPOS>MOLECULE
guest-s17_confgen4.mol2 : confsearch ligand conformer 9
          25          25           1
SMALL
USER_CHARGES
 
@<TRIPOS>ATOM
       1    C1      20.480271   19.360436   20.602881 C.3        1 MOL1        -0.1684
       2    H1      19.610027   19.575865   19.968240 H          1 MOL1         0.0833
       3    H2      21.334085   19.278795   19.916402 H          1 MOL1         0.0833
       4    C2      20.281480   17.976874   21.274849 C.3        1 MOL1        -0.1684
       5    H3      19.243368   17.852011   21.602777 H          1 MOL1         0.0833
       6    H4      20.413208   17.217108   20.492264 H          1 MOL1         0.0833
       7    C3      21.260807   17.650705   22.432164 C.3        1 MOL1        -0.1684
       8    H5      22.198879   18.210428   22.324918 H          1 MOL1         0.0833
       9    H6      21.545005   16.593860   22.336172 H          1 MOL1         0.0833
      10    C4      20.670297   17.833085   23.857044 C.3        1 MOL1        -0.1760
      11    H7      19.756340   17.232488   23.953004 H          1 MOL1         0.0833
      12    H8      21.385373   17.399614   24.568770 H          1 MOL1         0.0833
      13    C5      20.376573   19.284291   24.312166 C.3        1 MOL1         0.1219
      14    H9      21.282964   19.891174   24.184482 H          1 MOL1         0.0790
      15    C6      19.188989   19.951989   23.571523 C.3        1 MOL1        -0.1760
      16    H10     18.530669   19.186427   23.148673 H          1 MOL1         0.0833
      17    H11     18.557603   20.483361   24.296050 H          1 MOL1         0.0833
      18    C7      19.590830   20.975882   22.478395 C.3        1 MOL1        -0.1684
      19    H12     19.883874   21.908159   22.980320 H          1 MOL1         0.0833
      20    H13     18.703728   21.225713   21.880744 H          1 MOL1         0.0833
      21    C8      20.748472   20.571692   21.531101 C.3        1 MOL1        -0.1684
      22    H14     21.674539   20.419767   22.097200 H          1 MOL1         0.0833
      23    H15     20.958086   21.435937   20.886148 H          1 MOL1         0.0833
      24    O1      20.066282   19.238047   25.699877 O.3        1 MOL1        -0.5508
      25    H16     19.950264   20.166137   25.992632 H          1 MOL1         0.3780
@<TRIPOS>BOND
    1     1     2    1
    2     1     3    1
    3     1     4    1
    4     4     5    1
    5     4     6    1
    6     4     7    1
    7     7     8    1
    8     7     9    1
    9     7    10    1
   10    10    11    1
   11    10    12    1
   12    10    13    1
   13    13    14    1
   14    13    15    1
   15    15    16    1
   16    15    17    1
   17    15    18    1
   18    18    19    1
   19    18    20    1
   20     1    21    1
   21    18    21    1
   22    21    22    1
   23    21    23    1
   24    13    24    1
   25    24    25    1
@<TRIPOS>SUBSTRUCTURE
       1 MOL1            1 RESIDUE      1      MOL     
@<SCITEGIC>MOL_PROPERTY
VConf Rank
SciTegic.value.IntegerValue
9

@<SCITEGIC>MOL_PROPERTY
Conf_Id
SciTegic.value.IntegerValue
60

@<SCITEGIC>MOL_PROPERTY
Delta U+W
SciTegic.value.DoubleValue
-1.838

@<SCITEGIC>MOL_PROPERTY
U+W
SciTegic.value.DoubleValue
9.075

@<SCITEGIC>MOL_PROPERTY
Grad RMS
SciTegic.value.DoubleValue
0.000000

@<SCITEGIC>MOL_PROPERTY
U
SciTegic.value.DoubleValue
11.150

@<SCITEGIC>MOL_PROPERTY
W
SciTegic.value.DoubleValue
-2.074

@<SCITEGIC>MOL_PROPERTY
W(PB)
SciTegic.value.DoubleValue
-4.196

@<SCITEGIC>MOL_PROPERTY
W(SA)
SciTegic.value.DoubleValue
2.121

@<SCITEGIC>MOL_PROPERTY
Valence
SciTegic.value.DoubleValue
16.582

@<SCITEGIC>MOL_PROPERTY
Coulomb
SciTegic.value.DoubleValue
-8.361

@<SCITEGIC>MOL_PROPERTY
VdW
SciTegic.value.DoubleValue
2.928

@<SCITEGIC>MOL_PROPERTY
VdW6
SciTegic.value.DoubleValue
-12.539

@<SCITEGIC>MOL_PROPERTY
VdW12
SciTegic.value.DoubleValue
15.467

@<SCITEGIC>MOL_PROPERTY
Bond
SciTegic.value.DoubleValue
0.441

@<SCITEGIC>MOL_PROPERTY
Angle
SciTegic.value.DoubleValue
5.093

@<SCITEGIC>MOL_PROPERTY
Pdih
SciTegic.value.DoubleValue
11.049

@<SCITEGIC>MOL_PROPERTY
Idih
SciTegic.value.DoubleValue
0.000

@<SCITEGIC>MOL_PROPERTY
Tether
SciTegic.value.DoubleValue
0.000

@<TRIPOS>MOLECULE
guest-s17_confgen4.mol2 : confsearch ligand conformer 10
          25          25           1
SMALL
USER_CHARGES
 
@<TRIPOS>ATOM
       1    C1      20.506630   19.213343   20.599840 C.3        1 MOL1        -0.1684
       2    H1      19.970766   18.490841   19.969488 H          1 MOL1         0.0833
       3    H2      21.098161   19.828186   19.907758 H          1 MOL1         0.0833
       4    C2      21.504009   18.455343   21.511615 C.3        1 MOL1        -0.1684
       5    H3      22.211929   17.931491   20.854918 H          1 MOL1         0.0833
       6    H4      22.122537   19.165456   22.072249 H          1 MOL1         0.0833
       7    C3      20.891111   17.397045   22.463052 C.3        1 MOL1        -0.1684
       8    H5      21.722177   16.870240   22.951673 H          1 MOL1         0.0833
       9    H6      20.364992   16.637214   21.869414 H          1 MOL1         0.0833
      10    C4      19.939399   17.917530   23.571250 C.3        1 MOL1        -0.1760
      11    H7      18.937188   18.081312   23.162565 H          1 MOL1         0.0833
      12    H8      19.808039   17.101558   24.294352 H          1 MOL1         0.0833
      13    C5      20.428449   19.189979   24.310457 C.3        1 MOL1         0.1219
      14    H9      21.510914   19.309537   24.168581 H          1 MOL1         0.0790
      15    C6      19.713018   20.491414   23.870196 C.3        1 MOL1        -0.1760
      16    H10     18.628377   20.362301   23.980322 H          1 MOL1         0.0833
      17    H11     19.990841   21.280580   24.581403 H          1 MOL1         0.0833
      18    C7      20.028232   21.016826   22.443020 C.3        1 MOL1        -0.1684
      19    H12     21.104865   21.192791   22.321907 H          1 MOL1         0.0833
      20    H13     19.564194   22.008906   22.357282 H          1 MOL1         0.0833
      21    C8      19.473111   20.141462   21.289579 C.3        1 MOL1        -0.1684
      22    H14     19.074338   20.810816   20.514996 H          1 MOL1         0.0833
      23    H15     18.602787   19.567452   21.626999 H          1 MOL1         0.0833
      24    O1      20.180041   19.020058   25.700991 O.3        1 MOL1        -0.5508
      25    H16     20.692609   18.234009   25.983686 H          1 MOL1         0.3780
@<TRIPOS>BOND
    1     1     2    1
    2     1     3    1
    3     1     4    1
    4     4     5    1
    5     4     6    1
    6     4     7    1
    7     7     8    1
    8     7     9    1
    9     7    10    1
   10    10    11    1
   11    10    12    1
   12    10    13    1
   13    13    14    1
   14    13    15    1
   15    15    16    1
   16    15    17    1
   17    15    18    1
   18    18    19    1
   19    18    20    1
   20     1    21    1
   21    18    21    1
   22    21    22    1
   23    21    23    1
   24    13    24    1
   25    24    25    1
@<TRIPOS>SUBSTRUCTURE
       1 MOL1            1 RESIDUE      1      MOL     
@<SCITEGIC>MOL_PROPERTY
VConf Rank
SciTegic.value.IntegerValue
10

@<SCITEGIC>MOL_PROPERTY
Conf_Id
SciTegic.value.IntegerValue
129

@<SCITEGIC>MOL_PROPERTY
Delta U+W
SciTegic.value.DoubleValue
-1.846

@<SCITEGIC>MOL_PROPERTY
U+W
SciTegic.value.DoubleValue
9.067

@<SCITEGIC>MOL_PROPERTY
Grad RMS
SciTegic.value.DoubleValue
0.000000

@<SCITEGIC>MOL_PROPERTY
U
SciTegic.value.DoubleValue
11.150

@<SCITEGIC>MOL_PROPERTY
W
SciTegic.value.DoubleValue
-2.083

@<SCITEGIC>MOL_PROPERTY
W(PB)
SciTegic.value.DoubleValue
-4.217

@<SCITEGIC>MOL_PROPERTY
W(SA)
SciTegic.value.DoubleValue
2.134

@<SCITEGIC>MOL_PROPERTY
Valence
SciTegic.value.DoubleValue
16.583

@<SCITEGIC>MOL_PROPERTY
Coulomb
SciTegic.value.DoubleValue
-8.361

@<SCITEGIC>MOL_PROPERTY
VdW
SciTegic.value.DoubleValue
2.928

@<SCITEGIC>MOL_PROPERTY
VdW6
SciTegic.value.DoubleValue
-12.539

@<SCITEGIC>MOL_PROPERTY
VdW12
SciTegic.value.DoubleValue
15.467

@<SCITEGIC>MOL_PROPERTY
Bond
SciTegic.value.DoubleValue
0.441

@<SCITEGIC>MOL_PROPERTY
Angle
SciTegic.value.DoubleValue
5.093

@<SCITEGIC>MOL_PROPERTY
Pdih
SciTegic.value.DoubleValue
11.049

@<SCITEGIC>MOL_PROPERTY
Idih
SciTegic.value.DoubleValue
0.000

@<SCITEGIC>MOL_PROPERTY
Tether
SciTegic.value.DoubleValue
0.000

@<TRIPOS>MOLECULE
guest-s17_confgen4.mol2 : confsearch ligand conformer 11
          25          25           1
SMALL
USER_CHARGES
 
@<TRIPOS>ATOM
       1    C1      20.505423   19.213606   20.599378 C.3        1 MOL1        -0.1684
       2    H1      19.969651   18.490868   19.969216 H          1 MOL1         0.0833
       3    H2      21.095836   19.829401   19.907186 H          1 MOL1         0.0833
       4    C2      21.503727   18.456418   21.510570 C.3        1 MOL1        -0.1684
       5    H3      22.211914   17.933234   20.853642 H          1 MOL1         0.0833
       6    H4      22.121845   19.166433   22.071826 H          1 MOL1         0.0833
       7    C3      20.891848   17.397770   22.461956 C.3        1 MOL1        -0.1684
       8    H5      21.723960   16.872010   22.950032 H          1 MOL1         0.0833
       9    H6      20.366209   16.637266   21.868800 H          1 MOL1         0.0833
      10    C4      19.941471   17.915844   23.572657 C.3        1 MOL1        -0.1760
      11    H7      18.936710   18.072549   23.167150 H          1 MOL1         0.0833
      12    H8      19.823198   17.099722   24.298310 H          1 MOL1         0.0833
      13    C5      20.427783   19.189759   24.311044 C.3        1 MOL1         0.1219
      14    H9      21.511122   19.306015   24.174181 H          1 MOL1         0.0790
      15    C6      19.714577   20.492747   23.870068 C.3        1 MOL1        -0.1760
      16    H10     18.628951   20.369366   23.976884 H          1 MOL1         0.0833
      17    H11     19.995857   21.283096   24.578915 H          1 MOL1         0.0833
      18    C7      20.030024   21.016036   22.442594 C.3        1 MOL1        -0.1684
      19    H12     21.106879   21.190074   22.320582 H          1 MOL1         0.0833
      20    H13     19.567863   22.008921   22.355695 H          1 MOL1         0.0833
      21    C8      19.472111   20.139964   21.291170 C.3        1 MOL1        -0.1684
      22    H14     19.069977   20.808446   20.517562 H          1 MOL1         0.0833
      23    H15     18.604029   19.564161   21.631297 H          1 MOL1         0.0833
      24    O1      20.177036   19.020856   25.700563 O.3        1 MOL1        -0.5508
      25    H16     19.207368   18.923851   25.796884 H          1 MOL1         0.3780
@<TRIPOS>BOND
    1     1     2    1
    2     1     3    1
    3     1     4    1
    4     4     5    1
    5     4     6    1
    6     4     7    1
    7     7     8    1
    8     7     9    1
    9     7    10    1
   10    10    11    1
   11    10    12    1
   12    10    13    1
   13    13    14    1
   14    13    15    1
   15    15    16    1
   16    15    17    1
   17    15    18    1
   18    18    19    1
   19    18    20    1
   20     1    21    1
   21    18    21    1
   22    21    22    1
   23    21    23    1
   24    13    24    1
   25    24    25    1
@<TRIPOS>SUBSTRUCTURE
       1 MOL1            1 RESIDUE      1      MOL     
@<SCITEGIC>MOL_PROPERTY
VConf Rank
SciTegic.value.IntegerValue
11

@<SCITEGIC>MOL_PROPERTY
Conf_Id
SciTegic.value.IntegerValue
140

@<SCITEGIC>MOL_PROPERTY
Delta U+W
SciTegic.value.DoubleValue
-1.702

@<SCITEGIC>MOL_PROPERTY
U+W
SciTegic.value.DoubleValue
9.211

@<SCITEGIC>MOL_PROPERTY
Grad RMS
SciTegic.value.DoubleValue
0.000000

@<SCITEGIC>MOL_PROPERTY
U
SciTegic.value.DoubleValue
11.181

@<SCITEGIC>MOL_PROPERTY
W
SciTegic.value.DoubleValue
-1.969

@<SCITEGIC>MOL_PROPERTY
W(PB)
SciTegic.value.DoubleValue
-4.093

@<SCITEGIC>MOL_PROPERTY
W(SA)
SciTegic.value.DoubleValue
2.124

@<SCITEGIC>MOL_PROPERTY
Valence
SciTegic.value.DoubleValue
16.954

@<SCITEGIC>MOL_PROPERTY
Coulomb
SciTegic.value.DoubleValue
-8.661

@<SCITEGIC>MOL_PROPERTY
VdW
SciTegic.value.DoubleValue
2.887

@<SCITEGIC>MOL_PROPERTY
VdW6
SciTegic.value.DoubleValue
-12.561

@<SCITEGIC>MOL_PROPERTY
VdW12
SciTegic.value.DoubleValue
15.448

@<SCITEGIC>MOL_PROPERTY
Bond
SciTegic.value.DoubleValue
0.433

@<SCITEGIC>MOL_PROPERTY
Angle
SciTegic.value.DoubleValue
5.120

@<SCITEGIC>MOL_PROPERTY
Pdih
SciTegic.value.DoubleValue
11.401

@<SCITEGIC>MOL_PROPERTY
Idih
SciTegic.value.DoubleValue
0.000

@<SCITEGIC>MOL_PROPERTY
Tether
SciTegic.value.DoubleValue
0.000

@<TRIPOS>MOLECULE
guest-s17_confgen4.mol2 : confsearch ligand conformer 12
          25          25           1
SMALL
USER_CHARGES
 
@<TRIPOS>ATOM
       1    C1      20.479450   19.359442   20.602391 C.3        1 MOL1        -0.1684
       2    H1      19.609115   19.575112   19.967952 H          1 MOL1         0.0833
       3    H2      21.333014   19.276342   19.915774 H          1 MOL1         0.0833
       4    C2      20.279657   17.977345   21.276437 C.3        1 MOL1        -0.1684
       5    H3      19.242089   17.855289   21.607128 H          1 MOL1         0.0833
       6    H4      20.408222   17.216071   20.494782 H          1 MOL1         0.0833
       7    C3      21.261606   17.652426   22.431752 C.3        1 MOL1        -0.1684
       8    H5      22.198638   18.213734   22.323592 H          1 MOL1         0.0833
       9    H6      21.547720   16.596173   22.334627 H          1 MOL1         0.0833
      10    C4      20.672326   17.833064   23.856930 C.3        1 MOL1        -0.1760
      11    H7      19.761297   17.227540   23.949572 H          1 MOL1         0.0833
      12    H8      21.390816   17.400900   24.566324 H          1 MOL1         0.0833
      13    C5      20.375996   19.284038   24.312732 C.3        1 MOL1         0.1219
      14    H9      21.280905   19.893912   24.189996 H          1 MOL1         0.0790
      15    C6      19.189523   19.954619   23.573018 C.3        1 MOL1        -0.1760
      16    H10     18.524632   19.192794   23.153397 H          1 MOL1         0.0833
      17    H11     18.568096   20.494521   24.300307 H          1 MOL1         0.0833
      18    C7      19.591853   20.975808   22.477311 C.3        1 MOL1        -0.1684
      19    H12     19.886378   21.907985   22.978662 H          1 MOL1         0.0833
      20    H13     18.704649   21.226426   21.880186 H          1 MOL1         0.0833
      21    C8      20.748908   20.570688   21.530014 C.3        1 MOL1        -0.1684
      22    H14     21.674621   20.418581   22.096690 H          1 MOL1         0.0833
      23    H15     20.959118   21.434592   20.884812 H          1 MOL1         0.0833
      24    O1      20.064681   19.235570   25.699416 O.3        1 MOL1        -0.5508
      25    H16     19.259431   18.684642   25.783047 H          1 MOL1         0.3780
@<TRIPOS>BOND
    1     1     2    1
    2     1     3    1
    3     1     4    1
    4     4     5    1
    5     4     6    1
    6     4     7    1
    7     7     8    1
    8     7     9    1
    9     7    10    1
   10    10    11    1
   11    10    12    1
   12    10    13    1
   13    13    14    1
   14    13    15    1
   15    15    16    1
   16    15    17    1
   17    15    18    1
   18    18    19    1
   19    18    20    1
   20     1    21    1
   21    18    21    1
   22    21    22    1
   23    21    23    1
   24    13    24    1
   25    24    25    1
@<TRIPOS>SUBSTRUCTURE
       1 MOL1            1 RESIDUE      1      MOL     
@<SCITEGIC>MOL_PROPERTY
VConf Rank
SciTegic.value.IntegerValue
12

@<SCITEGIC>MOL_PROPERTY
Conf_Id
SciTegic.value.IntegerValue
68

@<SCITEGIC>MOL_PROPERTY
Delta U+W
SciTegic.value.DoubleValue
-1.765

@<SCITEGIC>MOL_PROPERTY
U+W
SciTegic.value.DoubleValue
9.148

@<SCITEGIC>MOL_PROPERTY
Grad RMS
SciTegic.value.DoubleValue
0.000000

@<SCITEGIC>MOL_PROPERTY
U
SciTegic.value.DoubleValue
11.181

@<SCITEGIC>MOL_PROPERTY
W
SciTegic.value.DoubleValue
-2.032

@<SCITEGIC>MOL_PROPERTY
W(PB)
SciTegic.value.DoubleValue
-4.147

@<SCITEGIC>MOL_PROPERTY
W(SA)
SciTegic.value.DoubleValue
2.114

@<SCITEGIC>MOL_PROPERTY
Valence
SciTegic.value.DoubleValue
16.955

@<SCITEGIC>MOL_PROPERTY
Coulomb
SciTegic.value.DoubleValue
-8.661

@<SCITEGIC>MOL_PROPERTY
VdW
SciTegic.value.DoubleValue
2.887

@<SCITEGIC>MOL_PROPERTY
VdW6
SciTegic.value.DoubleValue
-12.561

@<SCITEGIC>MOL_PROPERTY
VdW12
SciTegic.value.DoubleValue
15.448

@<SCITEGIC>MOL_PROPERTY
Bond
SciTegic.value.DoubleValue
0.433

@<SCITEGIC>MOL_PROPERTY
Angle
SciTegic.value.DoubleValue
5.121

@<SCITEGIC>MOL_PROPERTY
Pdih
SciTegic.value.DoubleValue
11.402

@<SCITEGIC>MOL_PROPERTY
Idih
SciTegic.value.DoubleValue
0.000

@<SCITEGIC>MOL_PROPERTY
Tether
SciTegic.value.DoubleValue
0.000

@<TRIPOS>MOLECULE
guest-s17_confgen4.mol2 : confsearch ligand conformer 13
          25          25           1
SMALL
USER_CHARGES
 
@<TRIPOS>ATOM
       1    C1      21.219248   19.542970   21.108874 C.3        1 MOL1        -0.1684
       2    H1      21.704630   19.699491   20.135744 H          1 MOL1         0.0833
       3    H2      22.023245   19.687496   21.839348 H          1 MOL1         0.0833
       4    C2      20.695329   18.083997   21.155891 C.3        1 MOL1        -0.1684
       5    H3      19.641009   18.032267   20.855312 H          1 MOL1         0.0833
       6    H4      21.238810   17.513369   20.390365 H          1 MOL1         0.0833
       7    C3      20.918959   17.355114   22.506936 C.3        1 MOL1        -0.1684
       8    H5      21.987450   17.379366   22.761521 H          1 MOL1         0.0833
       9    H6      20.676057   16.294178   22.357787 H          1 MOL1         0.0833
      10    C4      20.091777   17.863049   23.717855 C.3        1 MOL1        -0.1760
      11    H7      19.019371   17.817994   23.493197 H          1 MOL1         0.0833
      12    H8      20.246480   17.141233   24.531280 H          1 MOL1         0.0833
      13    C5      20.493114   19.272644   24.224666 C.3        1 MOL1         0.1219
      14    H9      21.502651   19.506750   23.867491 H          1 MOL1         0.0790
      15    C6      19.529899   20.410889   23.806743 C.3        1 MOL1        -0.1760
      16    H10     18.638021   20.364730   24.445490 H          1 MOL1         0.0833
      17    H11     20.010953   21.371712   24.031444 H          1 MOL1         0.0833
      18    C7      19.044200   20.422662   22.334323 C.3        1 MOL1        -0.1684
      19    H12     18.318393   21.241359   22.236025 H          1 MOL1         0.0833
      20    H13     18.469650   19.515942   22.112830 H          1 MOL1         0.0833
      21    C8      20.137017   20.643598   21.258648 C.3        1 MOL1        -0.1684
      22    H14     20.631727   21.608190   21.435881 H          1 MOL1         0.0833
      23    H15     19.627754   20.745653   20.290539 H          1 MOL1         0.0833
      24    O1      20.534455   19.248076   25.646064 O.3        1 MOL1        -0.5508
      25    H16     19.630397   19.020404   25.945620 H          1 MOL1         0.3780
@<TRIPOS>BOND
    1     1     2    1
    2     1     3    1
    3     1     4    1
    4     4     5    1
    5     4     6    1
    6     4     7    1
    7     7     8    1
    8     7     9    1
    9     7    10    1
   10    10    11    1
   11    10    12    1
   12    10    13    1
   13    13    14    1
   14    13    15    1
   15    15    16    1
   16    15    17    1
   17    15    18    1
   18    18    19    1
   19    18    20    1
   20     1    21    1
   21    18    21    1
   22    21    22    1
   23    21    23    1
   24    13    24    1
   25    24    25    1
@<TRIPOS>SUBSTRUCTURE
       1 MOL1            1 RESIDUE      1      MOL     
@<SCITEGIC>MOL_PROPERTY
VConf Rank
SciTegic.value.IntegerValue
13

@<SCITEGIC>MOL_PROPERTY
Conf_Id
SciTegic.value.IntegerValue
165

@<SCITEGIC>MOL_PROPERTY
Delta U+W
SciTegic.value.DoubleValue
-1.999

@<SCITEGIC>MOL_PROPERTY
U+W
SciTegic.value.DoubleValue
8.915

@<SCITEGIC>MOL_PROPERTY
Grad RMS
SciTegic.value.DoubleValue
0.000000

@<SCITEGIC>MOL_PROPERTY
U
SciTegic.value.DoubleValue
10.935

@<SCITEGIC>MOL_PROPERTY
W
SciTegic.value.DoubleValue
-2.020

@<SCITEGIC>MOL_PROPERTY
W(PB)
SciTegic.value.DoubleValue
-4.135

@<SCITEGIC>MOL_PROPERTY
W(SA)
SciTegic.value.DoubleValue
2.115

@<SCITEGIC>MOL_PROPERTY
Valence
SciTegic.value.DoubleValue
16.757

@<SCITEGIC>MOL_PROPERTY
Coulomb
SciTegic.value.DoubleValue
-8.731

@<SCITEGIC>MOL_PROPERTY
VdW
SciTegic.value.DoubleValue
2.908

@<SCITEGIC>MOL_PROPERTY
VdW6
SciTegic.value.DoubleValue
-12.597

@<SCITEGIC>MOL_PROPERTY
VdW12
SciTegic.value.DoubleValue
15.506

@<SCITEGIC>MOL_PROPERTY
Bond
SciTegic.value.DoubleValue
0.434

@<SCITEGIC>MOL_PROPERTY
Angle
SciTegic.value.DoubleValue
5.069

@<SCITEGIC>MOL_PROPERTY
Pdih
SciTegic.value.DoubleValue
11.254

@<SCITEGIC>MOL_PROPERTY
Idih
SciTegic.value.DoubleValue
0.000

@<SCITEGIC>MOL_PROPERTY
Tether
SciTegic.value.DoubleValue
0.000

@<TRIPOS>MOLECULE
guest-s17_confgen4.mol2 : confsearch ligand conformer 14
          25          25           1
SMALL
USER_CHARGES
 
@<TRIPOS>ATOM
       1    C1      21.201975   19.551482   21.100724 C.3        1 MOL1        -0.1684
       2    H1      21.663079   19.748979   20.123247 H          1 MOL1         0.0833
       3    H2      21.916640   19.958742   21.824737 H          1 MOL1         0.0833
       4    C2      21.089322   18.011503   21.246416 C.3        1 MOL1        -0.1684
       5    H3      20.758242   17.607875   20.279733 H          1 MOL1         0.0833
       6    H4      22.091837   17.594707   21.413185 H          1 MOL1         0.0833
       7    C3      20.121905   17.469528   22.328408 C.3        1 MOL1        -0.1684
       8    H5      20.094804   16.376213   22.225312 H          1 MOL1         0.0833
       9    H6      19.095814   17.792263   22.117999 H          1 MOL1         0.0833
      10    C4      20.498481   17.785173   23.798983 C.3        1 MOL1        -0.1760
      11    H7      19.788141   17.248767   24.442566 H          1 MOL1         0.0833
      12    H8      21.485233   17.354533   24.012496 H          1 MOL1         0.0833
      13    C5      20.505442   19.274504   24.222782 C.3        1 MOL1         0.1219
      14    H9      21.422472   19.750566   23.856338 H          1 MOL1         0.0790
      15    C6      19.282927   20.091964   23.731459 C.3        1 MOL1        -0.1760
      16    H10     18.433801   19.432799   23.515580 H          1 MOL1         0.0833
      17    H11     18.942876   20.735619   24.554019 H          1 MOL1         0.0833
      18    C7      19.571851   21.020288   22.521612 C.3        1 MOL1        -0.1684
      19    H12     20.404234   21.692585   22.770895 H          1 MOL1         0.0833
      20    H13     18.698166   21.671946   22.384537 H          1 MOL1         0.0833
      21    C8      19.859803   20.326103   21.164388 C.3        1 MOL1        -0.1684
      22    H14     19.898406   21.116501   20.402292 H          1 MOL1         0.0833
      23    H15     19.019030   19.685575   20.868695 H          1 MOL1         0.0833
      24    O1      20.532295   19.312455   25.645228 O.3        1 MOL1        -0.5508
      25    H16     21.336765   18.827918   25.925391 H          1 MOL1         0.3780
@<TRIPOS>BOND
    1     1     2    1
    2     1     3    1
    3     1     4    1
    4     4     5    1
    5     4     6    1
    6     4     7    1
    7     7     8    1
    8     7     9    1
    9     7    10    1
   10    10    11    1
   11    10    12    1
   12    10    13    1
   13    13    14    1
   14    13    15    1
   15    15    16    1
   16    15    17    1
   17    15    18    1
   18    18    19    1
   19    18    20    1
   20     1    21    1
   21    18    21    1
   22    21    22    1
   23    21    23    1
   24    13    24    1
   25    24    25    1
@<TRIPOS>SUBSTRUCTURE
       1 MOL1            1 RESIDUE      1      MOL     
@<SCITEGIC>MOL_PROPERTY
VConf Rank
SciTegic.value.IntegerValue
14

@<SCITEGIC>MOL_PROPERTY
Conf_Id
SciTegic.value.IntegerValue
133

@<SCITEGIC>MOL_PROPERTY
Delta U+W
SciTegic.value.DoubleValue
-2.139

@<SCITEGIC>MOL_PROPERTY
U+W
SciTegic.value.DoubleValue
8.774

@<SCITEGIC>MOL_PROPERTY
Grad RMS
SciTegic.value.DoubleValue
0.000000

@<SCITEGIC>MOL_PROPERTY
U
SciTegic.value.DoubleValue
10.905

@<SCITEGIC>MOL_PROPERTY
W
SciTegic.value.DoubleValue
-2.131

@<SCITEGIC>MOL_PROPERTY
W(PB)
SciTegic.value.DoubleValue
-4.281

@<SCITEGIC>MOL_PROPERTY
W(SA)
SciTegic.value.DoubleValue
2.150

@<SCITEGIC>MOL_PROPERTY
Valence
SciTegic.value.DoubleValue
16.378

@<SCITEGIC>MOL_PROPERTY
Coulomb
SciTegic.value.DoubleValue
-8.448

@<SCITEGIC>MOL_PROPERTY
VdW
SciTegic.value.DoubleValue
2.976

@<SCITEGIC>MOL_PROPERTY
VdW6
SciTegic.value.DoubleValue
-12.570

@<SCITEGIC>MOL_PROPERTY
VdW12
SciTegic.value.DoubleValue
15.545

@<SCITEGIC>MOL_PROPERTY
Bond
SciTegic.value.DoubleValue
0.439

@<SCITEGIC>MOL_PROPERTY
Angle
SciTegic.value.DoubleValue
5.049

@<SCITEGIC>MOL_PROPERTY
Pdih
SciTegic.value.DoubleValue
10.889

@<SCITEGIC>MOL_PROPERTY
Idih
SciTegic.value.DoubleValue
0.000

@<SCITEGIC>MOL_PROPERTY
Tether
SciTegic.value.DoubleValue
0.000

@<TRIPOS>MOLECULE
guest-s17_confgen4.mol2 : confsearch ligand conformer 15
          25          25           1
SMALL
USER_CHARGES
 
@<TRIPOS>ATOM
       1    C1      21.219419   19.542723   21.108087 C.3        1 MOL1        -0.1684
       2    H1      21.703330   19.699460   20.134254 H          1 MOL1         0.0833
       3    H2      22.024736   19.686657   21.837163 H          1 MOL1         0.0833
       4    C2      20.695432   18.083703   21.155198 C.3        1 MOL1        -0.1684
       5    H3      19.641226   18.032115   20.854201 H          1 MOL1         0.0833
       6    H4      21.239117   17.512868   20.389975 H          1 MOL1         0.0833
       7    C3      20.918127   17.354684   22.506423 C.3        1 MOL1        -0.1684
       8    H5      21.986673   17.377056   22.760778 H          1 MOL1         0.0833
       9    H6      20.673113   16.294171   22.357921 H          1 MOL1         0.0833
      10    C4      20.092265   17.864671   23.717562 C.3        1 MOL1        -0.1760
      11    H7      19.019275   17.821121   23.496394 H          1 MOL1         0.0833
      12    H8      20.244987   17.145759   24.533878 H          1 MOL1         0.0833
      13    C5      20.494717   19.273683   24.224414 C.3        1 MOL1         0.1219
      14    H9      21.503815   19.506521   23.864742 H          1 MOL1         0.0790
      15    C6      19.528841   20.409832   23.807284 C.3        1 MOL1        -0.1760
      16    H10     18.637189   20.353863   24.446299 H          1 MOL1         0.0833
      17    H11     20.002556   21.374013   24.032372 H          1 MOL1         0.0833
      18    C7      19.044197   20.421691   22.334529 C.3        1 MOL1        -0.1684
      19    H12     18.317448   21.239518   22.236070 H          1 MOL1         0.0833
      20    H13     18.470686   19.514415   22.112656 H          1 MOL1         0.0833
      21    C8      20.137650   20.643752   21.259636 C.3        1 MOL1        -0.1684
      22    H14     20.632634   21.607965   21.438114 H          1 MOL1         0.0833
      23    H15     19.628568   20.747324   20.291590 H          1 MOL1         0.0833
      24    O1      20.533353   19.248261   25.646867 O.3        1 MOL1        -0.5508
      25    H16     20.833018   20.135089   25.936996 H          1 MOL1         0.3780
@<TRIPOS>BOND
    1     1     2    1
    2     1     3    1
    3     1     4    1
    4     4     5    1
    5     4     6    1
    6     4     7    1
    7     7     8    1
    8     7     9    1
    9     7    10    1
   10    10    11    1
   11    10    12    1
   12    10    13    1
   13    13    14    1
   14    13    15    1
   15    15    16    1
   16    15    17    1
   17    15    18    1
   18    18    19    1
   19    18    20    1
   20     1    21    1
   21    18    21    1
   22    21    22    1
   23    21    23    1
   24    13    24    1
   25    24    25    1
@<TRIPOS>SUBSTRUCTURE
       1 MOL1            1 RESIDUE      1      MOL     
@<SCITEGIC>MOL_PROPERTY
VConf Rank
SciTegic.value.IntegerValue
15

@<SCITEGIC>MOL_PROPERTY
Conf_Id
SciTegic.value.IntegerValue
95

@<SCITEGIC>MOL_PROPERTY
Delta U+W
SciTegic.value.DoubleValue
-2.190

@<SCITEGIC>MOL_PROPERTY
U+W
SciTegic.value.DoubleValue
8.723

@<SCITEGIC>MOL_PROPERTY
Grad RMS
SciTegic.value.DoubleValue
0.000000

@<SCITEGIC>MOL_PROPERTY
U
SciTegic.value.DoubleValue
10.905

@<SCITEGIC>MOL_PROPERTY
W
SciTegic.value.DoubleValue
-2.182

@<SCITEGIC>MOL_PROPERTY
W(PB)
SciTegic.value.DoubleValue
-4.296

@<SCITEGIC>MOL_PROPERTY
W(SA)
SciTegic.value.DoubleValue
2.114

@<SCITEGIC>MOL_PROPERTY
Valence
SciTegic.value.DoubleValue
16.377

@<SCITEGIC>MOL_PROPERTY
Coulomb
SciTegic.value.DoubleValue
-8.448

@<SCITEGIC>MOL_PROPERTY
VdW
SciTegic.value.DoubleValue
2.976

@<SCITEGIC>MOL_PROPERTY
VdW6
SciTegic.value.DoubleValue
-12.570

@<SCITEGIC>MOL_PROPERTY
VdW12
SciTegic.value.DoubleValue
15.546

@<SCITEGIC>MOL_PROPERTY
Bond
SciTegic.value.DoubleValue
0.439

@<SCITEGIC>MOL_PROPERTY
Angle
SciTegic.value.DoubleValue
5.049

@<SCITEGIC>MOL_PROPERTY
Pdih
SciTegic.value.DoubleValue
10.889

@<SCITEGIC>MOL_PROPERTY
Idih
SciTegic.value.DoubleValue
0.000

@<SCITEGIC>MOL_PROPERTY
Tether
SciTegic.value.DoubleValue
0.000

@<TRIPOS>MOLECULE
guest-s17_confgen4.mol2 : confsearch ligand conformer 16
          25          25           1
SMALL
USER_CHARGES
 
@<TRIPOS>ATOM
       1    C1      21.300829   19.658397   21.216675 C.3        1 MOL1        -0.1684
       2    H1      21.849974   19.862943   20.287427 H          1 MOL1         0.0833
       3    H2      21.923322   20.124229   21.987219 H          1 MOL1         0.0833
       4    C2      21.261958   18.111731   21.391403 C.3        1 MOL1        -0.1684
       5    H3      21.183997   17.670468   20.388332 H          1 MOL1         0.0833
       6    H4      22.230002   17.773057   21.784674 H          1 MOL1         0.0833
       7    C3      20.119872   17.498545   22.243540 C.3        1 MOL1        -0.1684
       8    H5      20.187782   16.405805   22.153396 H          1 MOL1         0.0833
       9    H6      19.156679   17.734020   21.780034 H          1 MOL1         0.0833
      10    C4      20.100258   17.833300   23.764749 C.3        1 MOL1        -0.1760
      11    H7      19.088428   17.658618   24.153413 H          1 MOL1         0.0833
      12    H8      20.741616   17.095414   24.264194 H          1 MOL1         0.0833
      13    C5      20.579766   19.237053   24.213349 C.3        1 MOL1         0.1219
      14    H9      21.605637   19.375152   23.856512 H          1 MOL1         0.0790
      15    C6      19.709799   20.451366   23.778387 C.3        1 MOL1        -0.1760
      16    H10     18.912574   20.579800   24.522868 H          1 MOL1         0.0833
      17    H11     20.325021   21.357593   23.845786 H          1 MOL1         0.0833
      18    C7      19.023699   20.410353   22.386049 C.3        1 MOL1        -0.1684
      19    H12     18.376677   21.294736   22.308968 H          1 MOL1         0.0833
      20    H13     18.318229   19.574037   22.355080 H          1 MOL1         0.0833
      21    C8      19.943794   20.405613   21.130299 C.3        1 MOL1        -0.1684
      22    H14     20.169832   21.452241   20.884645 H          1 MOL1         0.0833
      23    H15     19.373683   20.021074   20.273825 H          1 MOL1         0.0833
      24    O1      20.624025   19.236642   25.635550 O.3        1 MOL1        -0.5508
      25    H16     21.225627   18.509761   25.899703 H          1 MOL1         0.3780
@<TRIPOS>BOND
    1     1     2    1
    2     1     3    1
    3     1     4    1
    4     4     5    1
    5     4     6    1
    6     4     7    1
    7     7     8    1
    8     7     9    1
    9     7    10    1
   10    10    11    1
   11    10    12    1
   12    10    13    1
   13    13    14    1
   14    13    15    1
   15    15    16    1
   16    15    17    1
   17    15    18    1
   18    18    19    1
   19    18    20    1
   20     1    21    1
   21    18    21    1
   22    21    22    1
   23    21    23    1
   24    13    24    1
   25    24    25    1
@<TRIPOS>SUBSTRUCTURE
       1 MOL1            1 RESIDUE      1      MOL     
@<SCITEGIC>MOL_PROPERTY
VConf Rank
SciTegic.value.IntegerValue
16

@<SCITEGIC>MOL_PROPERTY
Conf_Id
SciTegic.value.IntegerValue
161

@<SCITEGIC>MOL_PROPERTY
Delta U+W
SciTegic.value.DoubleValue
2.120

@<SCITEGIC>MOL_PROPERTY
U+W
SciTegic.value.DoubleValue
13.033

@<SCITEGIC>MOL_PROPERTY
Grad RMS
SciTegic.value.DoubleValue
0.000000

@<SCITEGIC>MOL_PROPERTY
U
SciTegic.value.DoubleValue
15.076

@<SCITEGIC>MOL_PROPERTY
W
SciTegic.value.DoubleValue
-2.043

@<SCITEGIC>MOL_PROPERTY
W(PB)
SciTegic.value.DoubleValue
-4.186

@<SCITEGIC>MOL_PROPERTY
W(SA)
SciTegic.value.DoubleValue
2.143

@<SCITEGIC>MOL_PROPERTY
Valence
SciTegic.value.DoubleValue
18.884

@<SCITEGIC>MOL_PROPERTY
Coulomb
SciTegic.value.DoubleValue
-8.074

@<SCITEGIC>MOL_PROPERTY
VdW
SciTegic.value.DoubleValue
4.266

@<SCITEGIC>MOL_PROPERTY
VdW6
SciTegic.value.DoubleValue
-13.486

@<SCITEGIC>MOL_PROPERTY
VdW12
SciTegic.value.DoubleValue
17.752

@<SCITEGIC>MOL_PROPERTY
Bond
SciTegic.value.DoubleValue
0.713

@<SCITEGIC>MOL_PROPERTY
Angle
SciTegic.value.DoubleValue
8.955

@<SCITEGIC>MOL_PROPERTY
Pdih
SciTegic.value.DoubleValue
9.215

@<SCITEGIC>MOL_PROPERTY
Idih
SciTegic.value.DoubleValue
0.000

@<SCITEGIC>MOL_PROPERTY
Tether
SciTegic.value.DoubleValue
0.000

@<TRIPOS>MOLECULE
guest-s17_confgen4.mol2 : confsearch ligand conformer 17
          25          25           1
SMALL
USER_CHARGES
 
@<TRIPOS>ATOM
       1    C1      20.810034   19.510933   20.744525 C.3        1 MOL1        -0.1684
       2    H1      20.864548   19.538989   19.647607 H          1 MOL1         0.0833
       3    H2      21.787751   19.877238   21.082348 H          1 MOL1         0.0833
       4    C2      20.620398   18.035429   21.176501 C.3        1 MOL1        -0.1684
       5    H3      19.556575   17.762541   21.177217 H          1 MOL1         0.0833
       6    H4      21.078921   17.413709   20.395226 H          1 MOL1         0.0833
       7    C3      21.301564   17.646301   22.518113 C.3        1 MOL1        -0.1684
       8    H5      22.267558   18.155779   22.634619 H          1 MOL1         0.0833
       9    H6      21.543828   16.576645   22.452184 H          1 MOL1         0.0833
      10    C4      20.425168   17.830472   23.784006 C.3        1 MOL1        -0.1760
      11    H7      19.375610   17.621578   23.543676 H          1 MOL1         0.0833
      12    H8      20.710906   17.051826   24.503519 H          1 MOL1         0.0833
      13    C5      20.565478   19.185405   24.523128 C.3        1 MOL1         0.1219
      14    H9      21.557085   19.209977   24.997349 H          1 MOL1         0.0790
      15    C6      20.435110   20.459046   23.656106 C.3        1 MOL1        -0.1760
      16    H10     20.323860   21.321778   24.326480 H          1 MOL1         0.0833
      17    H11     21.384320   20.636222   23.139026 H          1 MOL1         0.0833
      18    C7      19.250906   20.448752   22.652719 C.3        1 MOL1        -0.1684
      19    H12     18.614133   21.322149   22.848749 H          1 MOL1         0.0833
      20    H13     18.599235   19.582873   22.816049 H          1 MOL1         0.0833
      21    C8      19.683327   20.490376   21.167471 C.3        1 MOL1        -0.1684
      22    H14     20.008017   21.510994   20.923081 H          1 MOL1         0.0833
      23    H15     18.797356   20.302002   20.545900 H          1 MOL1         0.0833
      24    O1      19.572015   19.236286   25.537430 O.3        1 MOL1        -0.5508
      25    H16     18.719242   19.352756   25.071574 H          1 MOL1         0.3780
@<TRIPOS>BOND
    1     1     2    1
    2     1     3    1
    3     1     4    1
    4     4     5    1
    5     4     6    1
    6     4     7    1
    7     7     8    1
    8     7     9    1
    9     7    10    1
   10    10    11    1
   11    10    12    1
   12    10    13    1
   13    13    14    1
   14    13    15    1
   15    15    16    1
   16    15    17    1
   17    15    18    1
   18    18    19    1
   19    18    20    1
   20     1    21    1
   21    18    21    1
   22    21    22    1
   23    21    23    1
   24    13    24    1
   25    24    25    1
@<TRIPOS>SUBSTRUCTURE
       1 MOL1            1 RESIDUE      1      MOL     
@<SCITEGIC>MOL_PROPERTY
VConf Rank
SciTegic.value.IntegerValue
17

@<SCITEGIC>MOL_PROPERTY
Conf_Id
SciTegic.value.IntegerValue
164

@<SCITEGIC>MOL_PROPERTY
Delta U+W
SciTegic.value.DoubleValue
0.008

@<SCITEGIC>MOL_PROPERTY
U+W
SciTegic.value.DoubleValue
10.922

@<SCITEGIC>MOL_PROPERTY
Grad RMS
SciTegic.value.DoubleValue
0.000000

@<SCITEGIC>MOL_PROPERTY
U
SciTegic.value.DoubleValue
12.433

@<SCITEGIC>MOL_PROPERTY
W
SciTegic.value.DoubleValue
-1.511

@<SCITEGIC>MOL_PROPERTY
W(PB)
SciTegic.value.DoubleValue
-3.669

@<SCITEGIC>MOL_PROPERTY
W(SA)
SciTegic.value.DoubleValue
2.157

@<SCITEGIC>MOL_PROPERTY
Valence
SciTegic.value.DoubleValue
19.007

@<SCITEGIC>MOL_PROPERTY
Coulomb
SciTegic.value.DoubleValue
-9.373

@<SCITEGIC>MOL_PROPERTY
VdW
SciTegic.value.DoubleValue
2.799

@<SCITEGIC>MOL_PROPERTY
VdW6
SciTegic.value.DoubleValue
-12.597

@<SCITEGIC>MOL_PROPERTY
VdW12
SciTegic.value.DoubleValue
15.396

@<SCITEGIC>MOL_PROPERTY
Bond
SciTegic.value.DoubleValue
0.425

@<SCITEGIC>MOL_PROPERTY
Angle
SciTegic.value.DoubleValue
4.784

@<SCITEGIC>MOL_PROPERTY
Pdih
SciTegic.value.DoubleValue
13.799

@<SCITEGIC>MOL_PROPERTY
Idih
SciTegic.value.DoubleValue
0.000

@<SCITEGIC>MOL_PROPERTY
Tether
SciTegic.value.DoubleValue
0.000

@<TRIPOS>MOLECULE
guest-s17_confgen4.mol2 : confsearch ligand conformer 18
          25          25           1
SMALL
USER_CHARGES
 
@<TRIPOS>ATOM
       1    C1      19.706093   18.990088   20.936353 C.3        1 MOL1        -0.1684
       2    H1      18.875682   18.676095   21.578808 H          1 MOL1         0.0833
       3    H2      19.330913   18.852840   19.913086 H          1 MOL1         0.0833
       4    C2      20.916218   18.039369   21.113690 C.3        1 MOL1        -0.1684
       5    H3      20.584424   17.029513   20.836187 H          1 MOL1         0.0833
       6    H4      21.696198   18.305472   20.387516 H          1 MOL1         0.0833
       7    C3      21.550338   17.958223   22.525804 C.3        1 MOL1        -0.1684
       8    H5      22.259168   18.780209   22.677341 H          1 MOL1         0.0833
       9    H6      22.171214   17.052182   22.550458 H          1 MOL1         0.0833
      10    C4      20.540823   17.886066   23.702431 C.3        1 MOL1        -0.1760
      11    H7      19.578190   17.479568   23.369447 H          1 MOL1         0.0833
      12    H8      20.931211   17.154604   24.422708 H          1 MOL1         0.0833
      13    C5      20.340426   19.215800   24.471925 C.3        1 MOL1         0.1219
      14    H9      21.328909   19.585794   24.779508 H          1 MOL1         0.0790
      15    C6      19.614502   20.353634   23.711108 C.3        1 MOL1        -0.1760
      16    H10     18.621397   20.028300   23.378421 H          1 MOL1         0.0833
      17    H11     19.428791   21.156844   24.436784 H          1 MOL1         0.0833
      18    C7      20.419383   20.970869   22.536387 C.3        1 MOL1        -0.1684
      19    H12     21.494374   20.817504   22.684500 H          1 MOL1         0.0833
      20    H13     20.290688   22.061484   22.568043 H          1 MOL1         0.0833
      21    C8      19.992053   20.501166   21.122338 C.3        1 MOL1        -0.1684
      22    H14     20.752780   20.818550   20.396343 H          1 MOL1         0.0833
      23    H15     19.077037   21.044891   20.850291 H          1 MOL1         0.0833
      24    O1      19.584164   18.927786   25.639964 O.3        1 MOL1        -0.5508
      25    H16     18.713665   18.601958   25.331980 H          1 MOL1         0.3780
@<TRIPOS>BOND
    1     1     2    1
    2     1     3    1
    3     1     4    1
    4     4     5    1
    5     4     6    1
    6     4     7    1
    7     7     8    1
    8     7     9    1
    9     7    10    1
   10    10    11    1
   11    10    12    1
   12    10    13    1
   13    13    14    1
   14    13    15    1
   15    15    16    1
   16    15    17    1
   17    15    18    1
   18    18    19    1
   19    18    20    1
   20     1    21    1
   21    18    21    1
   22    21    22    1
   23    21    23    1
   24    13    24    1
   25    24    25    1
@<TRIPOS>SUBSTRUCTURE
       1 MOL1            1 RESIDUE      1      MOL     
@<SCITEGIC>MOL_PROPERTY
VConf Rank
SciTegic.value.IntegerValue
18

@<SCITEGIC>MOL_PROPERTY
Conf_Id
SciTegic.value.IntegerValue
15

@<SCITEGIC>MOL_PROPERTY
Delta U+W
SciTegic.value.DoubleValue
-1.271

@<SCITEGIC>MOL_PROPERTY
U+W
SciTegic.value.DoubleValue
9.643

@<SCITEGIC>MOL_PROPERTY
Grad RMS
SciTegic.value.DoubleValue
0.000000

@<SCITEGIC>MOL_PROPERTY
U
SciTegic.value.DoubleValue
11.413

@<SCITEGIC>MOL_PROPERTY
W
SciTegic.value.DoubleValue
-1.770

@<SCITEGIC>MOL_PROPERTY
W(PB)
SciTegic.value.DoubleValue
-3.908

@<SCITEGIC>MOL_PROPERTY
W(SA)
SciTegic.value.DoubleValue
2.138

@<SCITEGIC>MOL_PROPERTY
Valence
SciTegic.value.DoubleValue
17.496

@<SCITEGIC>MOL_PROPERTY
Coulomb
SciTegic.value.DoubleValue
-8.736

@<SCITEGIC>MOL_PROPERTY
VdW
SciTegic.value.DoubleValue
2.653

@<SCITEGIC>MOL_PROPERTY
VdW6
SciTegic.value.DoubleValue
-12.485

@<SCITEGIC>MOL_PROPERTY
VdW12
SciTegic.value.DoubleValue
15.138

@<SCITEGIC>MOL_PROPERTY
Bond
SciTegic.value.DoubleValue
0.414

@<SCITEGIC>MOL_PROPERTY
Angle
SciTegic.value.DoubleValue
5.295

@<SCITEGIC>MOL_PROPERTY
Pdih
SciTegic.value.DoubleValue
11.787

@<SCITEGIC>MOL_PROPERTY
Idih
SciTegic.value.DoubleValue
0.000

@<SCITEGIC>MOL_PROPERTY
Tether
SciTegic.value.DoubleValue
0.000

@<TRIPOS>MOLECULE
guest-s17_confgen4.mol2 : confsearch ligand conformer 19
          25          25           1
SMALL
USER_CHARGES
 
@<TRIPOS>ATOM
       1    C1      19.831479   18.994402   20.807704 C.3        1 MOL1        -0.1684
       2    H1      19.671332   19.013552   19.720980 H          1 MOL1         0.0833
       3    H2      18.884611   18.627295   21.223443 H          1 MOL1         0.0833
       4    C2      20.976534   17.983455   21.079105 C.3        1 MOL1        -0.1684
       5    H3      20.614704   16.980032   20.816339 H          1 MOL1         0.0833
       6    H4      21.805584   18.191884   20.389171 H          1 MOL1         0.0833
       7    C3      21.541874   17.945079   22.519331 C.3        1 MOL1        -0.1684
       8    H5      22.227310   18.787800   22.666881 H          1 MOL1         0.0833
       9    H6      22.172625   17.050681   22.614159 H          1 MOL1         0.0833
      10    C4      20.455859   17.908567   23.625989 C.3        1 MOL1        -0.1760
      11    H7      19.461248   17.754872   23.192957 H          1 MOL1         0.0833
      12    H8      20.629814   17.024910   24.253752 H          1 MOL1         0.0833
      13    C5      20.444769   19.144760   24.554414 C.3        1 MOL1         0.1219
      14    H9      21.314526   19.066445   25.222410 H          1 MOL1         0.0790
      15    C6      20.523435   20.530934   23.863899 C.3        1 MOL1        -0.1760
      16    H10     20.333609   21.286067   24.638543 H          1 MOL1         0.0833
      17    H11     21.550843   20.728676   23.535504 H          1 MOL1         0.0833
      18    C7      19.539914   20.789445   22.691337 C.3        1 MOL1        -0.1684
      19    H12     19.321239   21.866162   22.693492 H          1 MOL1         0.0833
      20    H13     18.574084   20.298751   22.867977 H          1 MOL1         0.0833
      21    C8      20.088513   20.447236   21.278641 C.3        1 MOL1        -0.1684
      22    H14     21.153170   20.702889   21.193012 H          1 MOL1         0.0833
      23    H15     19.573044   21.108382   20.568463 H          1 MOL1         0.0833
      24    O1      19.261621   19.099122   25.339580 O.3        1 MOL1        -0.5508
      25    H16     18.522896   19.267148   24.720551 H          1 MOL1         0.3780
@<TRIPOS>BOND
    1     1     2    1
    2     1     3    1
    3     1     4    1
    4     4     5    1
    5     4     6    1
    6     4     7    1
    7     7     8    1
    8     7     9    1
    9     7    10    1
   10    10    11    1
   11    10    12    1
   12    10    13    1
   13    13    14    1
   14    13    15    1
   15    15    16    1
   16    15    17    1
   17    15    18    1
   18    18    19    1
   19    18    20    1
   20     1    21    1
   21    18    21    1
   22    21    22    1
   23    21    23    1
   24    13    24    1
   25    24    25    1
@<TRIPOS>SUBSTRUCTURE
       1 MOL1            1 RESIDUE      1      MOL     
@<SCITEGIC>MOL_PROPERTY
VConf Rank
SciTegic.value.IntegerValue
19

@<SCITEGIC>MOL_PROPERTY
Conf_Id
SciTegic.value.IntegerValue
115

@<SCITEGIC>MOL_PROPERTY
Delta U+W
SciTegic.value.DoubleValue
0.038

@<SCITEGIC>MOL_PROPERTY
U+W
SciTegic.value.DoubleValue
10.952

@<SCITEGIC>MOL_PROPERTY
Grad RMS
SciTegic.value.DoubleValue
0.000000

@<SCITEGIC>MOL_PROPERTY
U
SciTegic.value.DoubleValue
12.526

@<SCITEGIC>MOL_PROPERTY
W
SciTegic.value.DoubleValue
-1.575

@<SCITEGIC>MOL_PROPERTY
W(PB)
SciTegic.value.DoubleValue
-3.698

@<SCITEGIC>MOL_PROPERTY
W(SA)
SciTegic.value.DoubleValue
2.123

@<SCITEGIC>MOL_PROPERTY
Valence
SciTegic.value.DoubleValue
19.016

@<SCITEGIC>MOL_PROPERTY
Coulomb
SciTegic.value.DoubleValue
-9.226

@<SCITEGIC>MOL_PROPERTY
VdW
SciTegic.value.DoubleValue
2.737

@<SCITEGIC>MOL_PROPERTY
VdW6
SciTegic.value.DoubleValue
-12.612

@<SCITEGIC>MOL_PROPERTY
VdW12
SciTegic.value.DoubleValue
15.349

@<SCITEGIC>MOL_PROPERTY
Bond
SciTegic.value.DoubleValue
0.421

@<SCITEGIC>MOL_PROPERTY
Angle
SciTegic.value.DoubleValue
4.883

@<SCITEGIC>MOL_PROPERTY
Pdih
SciTegic.value.DoubleValue
13.711

@<SCITEGIC>MOL_PROPERTY
Idih
SciTegic.value.DoubleValue
0.000

@<SCITEGIC>MOL_PROPERTY
Tether
SciTegic.value.DoubleValue
0.000

@<TRIPOS>MOLECULE
guest-s17_confgen4.mol2 : confsearch ligand conformer 20
          25          25           1
SMALL
USER_CHARGES
 
@<TRIPOS>ATOM
       1    C1      21.263349   20.705617   23.926409 C.3        1 MOL1        -0.1684
       2    H1      21.564596   21.726591   24.198160 H          1 MOL1         0.0833
       3    H2      21.424210   20.101325   24.829421 H          1 MOL1         0.0833
       4    C2      22.206634   20.232602   22.795920 C.3        1 MOL1        -0.1684
       5    H3      22.134328   20.911656   21.935541 H          1 MOL1         0.0833
       6    H4      23.236759   20.332311   23.164566 H          1 MOL1         0.0833
       7    C3      22.003962   18.769120   22.339807 C.3        1 MOL1        -0.1684
       8    H5      21.841026   18.117926   23.208931 H          1 MOL1         0.0833
       9    H6      22.949408   18.429750   21.894697 H          1 MOL1         0.0833
      10    C4      20.892377   18.580599   21.272672 C.3        1 MOL1        -0.1760
      11    H7      20.589090   19.541600   20.838731 H          1 MOL1         0.0833
      12    H8      21.329437   18.009901   20.442104 H          1 MOL1         0.0833
      13    C5      19.649247   17.811665   21.773995 C.3        1 MOL1         0.1219
      14    H9      19.973096   17.032593   22.478863 H          1 MOL1         0.0790
      15    C6      18.578838   18.692167   22.456177 C.3        1 MOL1        -0.1760
      16    H10     18.199011   19.438041   21.745548 H          1 MOL1         0.0833
      17    H11     17.723924   18.046848   22.697210 H          1 MOL1         0.0833
      18    C7      19.025048   19.384333   23.767082 C.3        1 MOL1        -0.1684
      19    H12     19.618239   18.694019   24.381591 H          1 MOL1         0.0833
      20    H13     18.118612   19.589389   24.353218 H          1 MOL1         0.0833
      21    C8      19.760133   20.734899   23.563060 C.3        1 MOL1        -0.1684
      22    H14     19.279867   21.472589   24.220603 H          1 MOL1         0.0833
      23    H15     19.619568   21.119649   22.544220 H          1 MOL1         0.0833
      24    O1      19.036739   17.186273   20.652671 O.3        1 MOL1        -0.5508
      25    H16     18.284343   16.661294   20.997102 H          1 MOL1         0.3780
@<TRIPOS>BOND
    1     1     2    1
    2     1     3    1
    3     1     4    1
    4     4     5    1
    5     4     6    1
    6     4     7    1
    7     7     8    1
    8     7     9    1
    9     7    10    1
   10    10    11    1
   11    10    12    1
   12    10    13    1
   13    13    14    1
   14    13    15    1
   15    15    16    1
   16    15    17    1
   17    15    18    1
   18    18    19    1
   19    18    20    1
   20     1    21    1
   21    18    21    1
   22    21    22    1
   23    21    23    1
   24    13    24    1
   25    24    25    1
@<TRIPOS>SUBSTRUCTURE
       1 MOL1            1 RESIDUE      1      MOL     
@<SCITEGIC>MOL_PROPERTY
VConf Rank
SciTegic.value.IntegerValue
20

@<SCITEGIC>MOL_PROPERTY
Conf_Id
SciTegic.value.IntegerValue
30

@<SCITEGIC>MOL_PROPERTY
Delta U+W
SciTegic.value.DoubleValue
0.000

@<SCITEGIC>MOL_PROPERTY
U+W
SciTegic.value.DoubleValue
10.913

@<SCITEGIC>MOL_PROPERTY
Grad RMS
SciTegic.value.DoubleValue
0.000000

@<SCITEGIC>MOL_PROPERTY
U
SciTegic.value.DoubleValue
13.140

@<SCITEGIC>MOL_PROPERTY
W
SciTegic.value.DoubleValue
-2.227

@<SCITEGIC>MOL_PROPERTY
W(PB)
SciTegic.value.DoubleValue
-4.367

@<SCITEGIC>MOL_PROPERTY
W(SA)
SciTegic.value.DoubleValue
2.140

@<SCITEGIC>MOL_PROPERTY
Valence
SciTegic.value.DoubleValue
19.155

@<SCITEGIC>MOL_PROPERTY
Coulomb
SciTegic.value.DoubleValue
-8.157

@<SCITEGIC>MOL_PROPERTY
VdW
SciTegic.value.DoubleValue
2.142

@<SCITEGIC>MOL_PROPERTY
VdW6
SciTegic.value.DoubleValue
-11.576

@<SCITEGIC>MOL_PROPERTY
VdW12
SciTegic.value.DoubleValue
13.718

@<SCITEGIC>MOL_PROPERTY
Bond
SciTegic.value.DoubleValue
0.294

@<SCITEGIC>MOL_PROPERTY
Angle
SciTegic.value.DoubleValue
3.547

@<SCITEGIC>MOL_PROPERTY
Pdih
SciTegic.value.DoubleValue
15.314

@<SCITEGIC>MOL_PROPERTY
Idih
SciTegic.value.DoubleValue
0.000

@<SCITEGIC>MOL_PROPERTY
Tether
SciTegic.value.DoubleValue
0.000

@<TRIPOS>MOLECULE
guest-s17_confgen4.mol2 : confsearch ligand conformer 21
          25          25           1
SMALL
USER_CHARGES
 
@<TRIPOS>ATOM
       1    C1      19.775631   21.132734   23.511804 C.3        1 MOL1        -0.1684
       2    H1      20.197742   21.724359   24.335611 H          1 MOL1         0.0833
       3    H2      18.888247   21.685224   23.174051 H          1 MOL1         0.0833
       4    C2      19.311091   19.767279   24.075558 C.3        1 MOL1        -0.1684
       5    H3      18.787538   19.953052   25.023318 H          1 MOL1         0.0833
       6    H4      18.547236   19.337704   23.417116 H          1 MOL1         0.0833
       7    C3      20.457758   18.757135   24.333562 C.3        1 MOL1        -0.1684
       8    H5      20.414303   18.434532   25.382716 H          1 MOL1         0.0833
       9    H6      21.437090   19.238484   24.229408 H          1 MOL1         0.0833
      10    C4      20.399393   17.492662   23.439550 C.3        1 MOL1        -0.1760
      11    H7      21.340313   16.939473   23.559600 H          1 MOL1         0.0833
      12    H8      19.610646   16.832355   23.823008 H          1 MOL1         0.0833
      13    C5      20.133090   17.714825   21.929616 C.3        1 MOL1         0.1219
      14    H9      19.090297   18.029078   21.788853 H          1 MOL1         0.0790
      15    C6      21.058491   18.749720   21.244108 C.3        1 MOL1        -0.1760
      16    H10     22.047050   18.752210   21.720864 H          1 MOL1         0.0833
      17    H11     21.235157   18.418701   20.212017 H          1 MOL1         0.0833
      18    C7      20.480588   20.190718   21.158660 C.3        1 MOL1        -0.1684
      19    H12     19.398274   20.174879   20.972201 H          1 MOL1         0.0833
      20    H13     20.922619   20.659259   20.268539 H          1 MOL1         0.0833
      21    C8      20.817605   21.105726   22.361980 C.3        1 MOL1        -0.1684
      22    H14     20.907418   22.134935   21.988176 H          1 MOL1         0.0833
      23    H15     21.814794   20.862297   22.750164 H          1 MOL1         0.0833
      24    O1      20.306797   16.459276   21.283365 O.3        1 MOL1        -0.5508
      25    H16     20.059468   16.588681   20.343931 H          1 MOL1         0.3780
@<TRIPOS>BOND
    1     1     2    1
    2     1     3    1
    3     1     4    1
    4     4     5    1
    5     4     6    1
    6     4     7    1
    7     7     8    1
    8     7     9    1
    9     7    10    1
   10    10    11    1
   11    10    12    1
   12    10    13    1
   13    13    14    1
   14    13    15    1
   15    15    16    1
   16    15    17    1
   17    15    18    1
   18    18    19    1
   19    18    20    1
   20     1    21    1
   21    18    21    1
   22    21    22    1
   23    21    23    1
   24    13    24    1
   25    24    25    1
@<TRIPOS>SUBSTRUCTURE
       1 MOL1            1 RESIDUE      1      MOL     
@<SCITEGIC>MOL_PROPERTY
VConf Rank
SciTegic.value.IntegerValue
21

@<SCITEGIC>MOL_PROPERTY
Conf_Id
SciTegic.value.IntegerValue
162

@<SCITEGIC>MOL_PROPERTY
Delta U+W
SciTegic.value.DoubleValue
0.219

@<SCITEGIC>MOL_PROPERTY
U+W
SciTegic.value.DoubleValue
11.132

@<SCITEGIC>MOL_PROPERTY
Grad RMS
SciTegic.value.DoubleValue
0.000000

@<SCITEGIC>MOL_PROPERTY
U
SciTegic.value.DoubleValue
13.296

@<SCITEGIC>MOL_PROPERTY
W
SciTegic.value.DoubleValue
-2.164

@<SCITEGIC>MOL_PROPERTY
W(PB)
SciTegic.value.DoubleValue
-4.311

@<SCITEGIC>MOL_PROPERTY
W(SA)
SciTegic.value.DoubleValue
2.148

@<SCITEGIC>MOL_PROPERTY
Valence
SciTegic.value.DoubleValue
18.607

@<SCITEGIC>MOL_PROPERTY
Coulomb
SciTegic.value.DoubleValue
-8.339

@<SCITEGIC>MOL_PROPERTY
VdW
SciTegic.value.DoubleValue
3.028

@<SCITEGIC>MOL_PROPERTY
VdW6
SciTegic.value.DoubleValue
-12.271

@<SCITEGIC>MOL_PROPERTY
VdW12
SciTegic.value.DoubleValue
15.299

@<SCITEGIC>MOL_PROPERTY
Bond
SciTegic.value.DoubleValue
0.423

@<SCITEGIC>MOL_PROPERTY
Angle
SciTegic.value.DoubleValue
4.488

@<SCITEGIC>MOL_PROPERTY
Pdih
SciTegic.value.DoubleValue
13.696

@<SCITEGIC>MOL_PROPERTY
Idih
SciTegic.value.DoubleValue
0.000

@<SCITEGIC>MOL_PROPERTY
Tether
SciTegic.value.DoubleValue
0.000

@<TRIPOS>MOLECULE
guest-s17_confgen4.mol2 : confsearch ligand conformer 22
          25          25           1
SMALL
USER_CHARGES
 
@<TRIPOS>ATOM
       1    C1      21.917975   17.989667   22.554961 C.3        1 MOL1        -0.1684
       2    H1      22.258900   18.403939   23.512219 H          1 MOL1         0.0833
       3    H2      22.651760   17.209364   22.310721 H          1 MOL1         0.0833
       4    C2      20.538195   17.308871   22.735031 C.3        1 MOL1        -0.1684
       5    H3      20.024125   17.208405   21.769697 H          1 MOL1         0.0833
       6    H4      20.731833   16.280384   23.069484 H          1 MOL1         0.0833
       7    C3      19.612133   17.961234   23.799171 C.3        1 MOL1        -0.1684
       8    H5      20.189920   18.320960   24.661103 H          1 MOL1         0.0833
       9    H6      18.969861   17.161803   24.193542 H          1 MOL1         0.0833
      10    C4      18.669666   19.070937   23.264846 C.3        1 MOL1        -0.1760
      11    H7      18.363671   18.839315   22.237221 H          1 MOL1         0.0833
      12    H8      17.742125   19.033953   23.850947 H          1 MOL1         0.0833
      13    C5      19.195049   20.525538   23.361966 C.3        1 MOL1         0.1219
      14    H9      19.198996   20.811741   24.423646 H          1 MOL1         0.0790
      15    C6      20.619340   20.777636   22.812516 C.3        1 MOL1        -0.1760
      16    H10     20.781637   21.861268   22.746190 H          1 MOL1         0.0833
      17    H11     21.351378   20.437362   23.552726 H          1 MOL1         0.0833
      18    C7      20.901523   20.145461   21.423918 C.3        1 MOL1        -0.1684
      19    H12     21.207405   20.939825   20.729813 H          1 MOL1         0.0833
      20    H13     19.984173   19.732328   20.988141 H          1 MOL1         0.0833
      21    C8      22.004471   19.059560   21.434272 C.3        1 MOL1        -0.1684
      22    H14     22.983393   19.552568   21.507724 H          1 MOL1         0.0833
      23    H15     21.997418   18.553642   20.459228 H          1 MOL1         0.0833
      24    O1      18.284103   21.364284   22.661405 O.3        1 MOL1        -0.5508
      25    H16     18.631663   22.277276   22.730436 H          1 MOL1         0.3780
@<TRIPOS>BOND
    1     1     2    1
    2     1     3    1
    3     1     4    1
    4     4     5    1
    5     4     6    1
    6     4     7    1
    7     7     8    1
    8     7     9    1
    9     7    10    1
   10    10    11    1
   11    10    12    1
   12    10    13    1
   13    13    14    1
   14    13    15    1
   15    15    16    1
   16    15    17    1
   17    15    18    1
   18    18    19    1
   19    18    20    1
   20     1    21    1
   21    18    21    1
   22    21    22    1
   23    21    23    1
   24    13    24    1
   25    24    25    1
@<TRIPOS>SUBSTRUCTURE
       1 MOL1            1 RESIDUE      1      MOL     
@<SCITEGIC>MOL_PROPERTY
VConf Rank
SciTegic.value.IntegerValue
22

@<SCITEGIC>MOL_PROPERTY
Conf_Id
SciTegic.value.IntegerValue
155

@<SCITEGIC>MOL_PROPERTY
Delta U+W
SciTegic.value.DoubleValue
0.339

@<SCITEGIC>MOL_PROPERTY
U+W
SciTegic.value.DoubleValue
11.252

@<SCITEGIC>MOL_PROPERTY
Grad RMS
SciTegic.value.DoubleValue
0.000000

@<SCITEGIC>MOL_PROPERTY
U
SciTegic.value.DoubleValue
13.420

@<SCITEGIC>MOL_PROPERTY
W
SciTegic.value.DoubleValue
-2.167

@<SCITEGIC>MOL_PROPERTY
W(PB)
SciTegic.value.DoubleValue
-4.325

@<SCITEGIC>MOL_PROPERTY
W(SA)
SciTegic.value.DoubleValue
2.157

@<SCITEGIC>MOL_PROPERTY
Valence
SciTegic.value.DoubleValue
18.609

@<SCITEGIC>MOL_PROPERTY
Coulomb
SciTegic.value.DoubleValue
-8.052

@<SCITEGIC>MOL_PROPERTY
VdW
SciTegic.value.DoubleValue
2.863

@<SCITEGIC>MOL_PROPERTY
VdW6
SciTegic.value.DoubleValue
-12.524

@<SCITEGIC>MOL_PROPERTY
VdW12
SciTegic.value.DoubleValue
15.387

@<SCITEGIC>MOL_PROPERTY
Bond
SciTegic.value.DoubleValue
0.430

@<SCITEGIC>MOL_PROPERTY
Angle
SciTegic.value.DoubleValue
4.724

@<SCITEGIC>MOL_PROPERTY
Pdih
SciTegic.value.DoubleValue
13.455

@<SCITEGIC>MOL_PROPERTY
Idih
SciTegic.value.DoubleValue
0.000

@<SCITEGIC>MOL_PROPERTY
Tether
SciTegic.value.DoubleValue
0.000

@<TRIPOS>MOLECULE
guest-s17_confgen4.mol2 : confsearch ligand conformer 23
          25          25           1
SMALL
USER_CHARGES
 
@<TRIPOS>ATOM
       1    C1      18.697868   20.354457   22.769579 C.3        1 MOL1        -0.1684
       2    H1      18.021436   20.244728   21.911244 H          1 MOL1         0.0833
       3    H2      18.208306   21.076675   23.437048 H          1 MOL1         0.0833
       4    C2      18.771242   19.008597   23.537756 C.3        1 MOL1        -0.1684
       5    H3      19.349985   19.147735   24.456362 H          1 MOL1         0.0833
       6    H4      17.760885   18.779521   23.903021 H          1 MOL1         0.0833
       7    C3      19.268317   17.758645   22.754334 C.3        1 MOL1        -0.1684
       8    H5      18.397484   17.319244   22.249232 H          1 MOL1         0.0833
       9    H6      19.605361   16.999036   23.472747 H          1 MOL1         0.0833
      10    C4      20.365963   17.959345   21.674151 C.3        1 MOL1        -0.1760
      11    H7      20.479574   17.006352   21.141051 H          1 MOL1         0.0833
      12    H8      19.989179   18.633414   20.899930 H          1 MOL1         0.0833
      13    C5      21.779082   18.413279   22.144625 C.3        1 MOL1         0.1219
      14    H9      22.276354   18.897623   21.292040 H          1 MOL1         0.0790
      15    C6      21.859675   19.378661   23.353791 C.3        1 MOL1        -0.1760
      16    H10     21.425700   18.889731   24.230793 H          1 MOL1         0.0833
      17    H11     22.919823   19.489426   23.617314 H          1 MOL1         0.0833
      18    C7      21.283469   20.815856   23.178401 C.3        1 MOL1        -0.1684
      19    H12     22.078800   21.438470   22.746386 H          1 MOL1         0.0833
      20    H13     21.084787   21.242227   24.170900 H          1 MOL1         0.0833
      21    C8      20.029245   20.999078   22.283951 C.3        1 MOL1        -0.1684
      22    H14     20.263204   20.686209   21.261527 H          1 MOL1         0.0833
      23    H15     19.847319   22.078049   22.185952 H          1 MOL1         0.0833
      24    O1      22.517016   17.247768   22.495651 O.3        1 MOL1        -0.5508
      25    H16     22.508652   16.660747   21.711700 H          1 MOL1         0.3780
@<TRIPOS>BOND
    1     1     2    1
    2     1     3    1
    3     1     4    1
    4     4     5    1
    5     4     6    1
    6     4     7    1
    7     7     8    1
    8     7     9    1
    9     7    10    1
   10    10    11    1
   11    10    12    1
   12    10    13    1
   13    13    14    1
   14    13    15    1
   15    15    16    1
   16    15    17    1
   17    15    18    1
   18    18    19    1
   19    18    20    1
   20     1    21    1
   21    18    21    1
   22    21    22    1
   23    21    23    1
   24    13    24    1
   25    24    25    1
@<TRIPOS>SUBSTRUCTURE
       1 MOL1            1 RESIDUE      1      MOL     
@<SCITEGIC>MOL_PROPERTY
VConf Rank
SciTegic.value.IntegerValue
23

@<SCITEGIC>MOL_PROPERTY
Conf_Id
SciTegic.value.IntegerValue
146

@<SCITEGIC>MOL_PROPERTY
Delta U+W
SciTegic.value.DoubleValue
2.553

@<SCITEGIC>MOL_PROPERTY
U+W
SciTegic.value.DoubleValue
13.466

@<SCITEGIC>MOL_PROPERTY
Grad RMS
SciTegic.value.DoubleValue
0.000000

@<SCITEGIC>MOL_PROPERTY
U
SciTegic.value.DoubleValue
15.643

@<SCITEGIC>MOL_PROPERTY
W
SciTegic.value.DoubleValue
-2.176

@<SCITEGIC>MOL_PROPERTY
W(PB)
SciTegic.value.DoubleValue
-4.307

@<SCITEGIC>MOL_PROPERTY
W(SA)
SciTegic.value.DoubleValue
2.131

@<SCITEGIC>MOL_PROPERTY
Valence
SciTegic.value.DoubleValue
18.916

@<SCITEGIC>MOL_PROPERTY
Coulomb
SciTegic.value.DoubleValue
-7.506

@<SCITEGIC>MOL_PROPERTY
VdW
SciTegic.value.DoubleValue
4.232

@<SCITEGIC>MOL_PROPERTY
VdW6
SciTegic.value.DoubleValue
-13.632

@<SCITEGIC>MOL_PROPERTY
VdW12
SciTegic.value.DoubleValue
17.864

@<SCITEGIC>MOL_PROPERTY
Bond
SciTegic.value.DoubleValue
0.735

@<SCITEGIC>MOL_PROPERTY
Angle
SciTegic.value.DoubleValue
9.140

@<SCITEGIC>MOL_PROPERTY
Pdih
SciTegic.value.DoubleValue
9.042

@<SCITEGIC>MOL_PROPERTY
Idih
SciTegic.value.DoubleValue
0.000

@<SCITEGIC>MOL_PROPERTY
Tether
SciTegic.value.DoubleValue
0.000

@<TRIPOS>MOLECULE
guest-s17_confgen4.mol2 : confsearch ligand conformer 24
          25          25           1
SMALL
USER_CHARGES
 
@<TRIPOS>ATOM
       1    C1      22.188836   19.628341   21.855738 C.3        1 MOL1        -0.1684
       2    H1      23.119102   19.471886   22.418438 H          1 MOL1         0.0833
       3    H2      22.498463   19.997511   20.868440 H          1 MOL1         0.0833
       4    C2      21.365007   20.752564   22.532178 C.3        1 MOL1        -0.1684
       5    H3      21.977469   21.664240   22.509009 H          1 MOL1         0.0833
       6    H4      20.484508   20.996774   21.927010 H          1 MOL1         0.0833
       7    C3      20.960178   20.508422   24.007607 C.3        1 MOL1        -0.1684
       8    H5      20.491215   21.430049   24.378633 H          1 MOL1         0.0833
       9    H6      21.865176   20.369698   24.614383 H          1 MOL1         0.0833
      10    C4      19.983962   19.335239   24.283917 C.3        1 MOL1        -0.1760
      11    H7      20.529776   18.387243   24.322116 H          1 MOL1         0.0833
      12    H8      19.597511   19.470285   25.303208 H          1 MOL1         0.0833
      13    C5      18.790397   19.226452   23.300228 C.3        1 MOL1         0.1219
      14    H9      18.639048   20.190739   22.796754 H          1 MOL1         0.0790
      15    C6      18.945832   18.110679   22.235965 C.3        1 MOL1        -0.1760
      16    H10     19.129922   17.153443   22.741466 H          1 MOL1         0.0833
      17    H11     17.981975   17.994691   21.723260 H          1 MOL1         0.0833
      18    C7      20.026513   18.329359   21.142388 C.3        1 MOL1        -0.1684
      19    H12     19.842985   19.262345   20.594068 H          1 MOL1         0.0833
      20    H13     19.896865   17.530414   20.399515 H          1 MOL1         0.0833
      21    C8      21.489972   18.259487   21.650217 C.3        1 MOL1        -0.1684
      22    H14     22.081958   17.703315   20.910445 H          1 MOL1         0.0833
      23    H15     21.552919   17.653006   22.560734 H          1 MOL1         0.0833
      24    O1      17.620853   18.930911   24.055325 O.3        1 MOL1        -0.5508
      25    H16     16.870660   18.924805   23.424932 H          1 MOL1         0.3780
@<TRIPOS>BOND
    1     1     2    1
    2     1     3    1
    3     1     4    1
    4     4     5    1
    5     4     6    1
    6     4     7    1
    7     7     8    1
    8     7     9    1
    9     7    10    1
   10    10    11    1
   11    10    12    1
   12    10    13    1
   13    13    14    1
   14    13    15    1
   15    15    16    1
   16    15    17    1
   17    15    18    1
   18    18    19    1
   19    18    20    1
   20     1    21    1
   21    18    21    1
   22    21    22    1
   23    21    23    1
   24    13    24    1
   25    24    25    1
@<TRIPOS>SUBSTRUCTURE
       1 MOL1            1 RESIDUE      1      MOL     
@<SCITEGIC>MOL_PROPERTY
VConf Rank
SciTegic.value.IntegerValue
24

@<SCITEGIC>MOL_PROPERTY
Conf_Id
SciTegic.value.IntegerValue
62

@<SCITEGIC>MOL_PROPERTY
Delta U+W
SciTegic.value.DoubleValue
-1.779

@<SCITEGIC>MOL_PROPERTY
U+W
SciTegic.value.DoubleValue
9.134

@<SCITEGIC>MOL_PROPERTY
Grad RMS
SciTegic.value.DoubleValue
0.000000

@<SCITEGIC>MOL_PROPERTY
U
SciTegic.value.DoubleValue
11.364

@<SCITEGIC>MOL_PROPERTY
W
SciTegic.value.DoubleValue
-2.230

@<SCITEGIC>MOL_PROPERTY
W(PB)
SciTegic.value.DoubleValue
-4.359

@<SCITEGIC>MOL_PROPERTY
W(SA)
SciTegic.value.DoubleValue
2.129

@<SCITEGIC>MOL_PROPERTY
Valence
SciTegic.value.DoubleValue
16.582

@<SCITEGIC>MOL_PROPERTY
Coulomb
SciTegic.value.DoubleValue
-8.150

@<SCITEGIC>MOL_PROPERTY
VdW
SciTegic.value.DoubleValue
2.933

@<SCITEGIC>MOL_PROPERTY
VdW6
SciTegic.value.DoubleValue
-12.531

@<SCITEGIC>MOL_PROPERTY
VdW12
SciTegic.value.DoubleValue
15.464

@<SCITEGIC>MOL_PROPERTY
Bond
SciTegic.value.DoubleValue
0.439

@<SCITEGIC>MOL_PROPERTY
Angle
SciTegic.value.DoubleValue
5.099

@<SCITEGIC>MOL_PROPERTY
Pdih
SciTegic.value.DoubleValue
11.044

@<SCITEGIC>MOL_PROPERTY
Idih
SciTegic.value.DoubleValue
0.000

@<SCITEGIC>MOL_PROPERTY
Tether
SciTegic.value.DoubleValue
0.000

@<TRIPOS>MOLECULE
guest-s17_confgen4.mol2 : confsearch ligand conformer 25
          25          25           1
SMALL
USER_CHARGES
 
@<TRIPOS>ATOM
       1    C1      21.843845   19.633518   21.614963 C.3        1 MOL1        -0.1684
       2    H1      21.081633   20.365861   21.325431 H          1 MOL1         0.0833
       3    H2      22.710750   19.872613   20.984131 H          1 MOL1         0.0833
       4    C2      21.385511   18.201204   21.243400 C.3        1 MOL1        -0.1684
       5    H3      21.230857   18.177122   20.156022 H          1 MOL1         0.0833
       6    H4      22.203232   17.495431   21.442678 H          1 MOL1         0.0833
       7    C3      20.092296   17.676021   21.917564 C.3        1 MOL1        -0.1684
       8    H5      20.312741   17.276854   22.914089 H          1 MOL1         0.0833
       9    H6      19.757904   16.803229   21.340120 H          1 MOL1         0.0833
      10    C4      18.920053   18.691247   21.984459 C.3        1 MOL1        -0.1760
      11    H7      19.014119   19.454663   21.202411 H          1 MOL1         0.0833
      12    H8      18.000959   18.141474   21.742880 H          1 MOL1         0.0833
      13    C5      18.710112   19.355255   23.368804 C.3        1 MOL1         0.1219
      14    H9      18.628553   18.559965   24.123684 H          1 MOL1         0.0790
      15    C6      19.807446   20.346428   23.830694 C.3        1 MOL1        -0.1760
      16    H10     19.924341   21.157614   23.101927 H          1 MOL1         0.0833
      17    H11     19.436942   20.830674   24.743953 H          1 MOL1         0.0833
      18    C7      21.175705   19.697940   24.172601 C.3        1 MOL1        -0.1684
      19    H12     21.044916   18.643215   24.439798 H          1 MOL1         0.0833
      20    H13     21.558308   20.167907   25.088950 H          1 MOL1         0.0833
      21    C8      22.271809   19.853022   23.087507 C.3        1 MOL1        -0.1684
      22    H14     23.107704   19.181742   23.326558 H          1 MOL1         0.0833
      23    H15     22.677479   20.871124   23.163550 H          1 MOL1         0.0833
      24    O1      17.480963   20.069062   23.322994 O.3        1 MOL1        -0.5508
      25    H16     16.784014   19.418547   23.096632 H          1 MOL1         0.3780
@<TRIPOS>BOND
    1     1     2    1
    2     1     3    1
    3     1     4    1
    4     4     5    1
    5     4     6    1
    6     4     7    1
    7     7     8    1
    8     7     9    1
    9     7    10    1
   10    10    11    1
   11    10    12    1
   12    10    13    1
   13    13    14    1
   14    13    15    1
   15    15    16    1
   16    15    17    1
   17    15    18    1
   18    18    19    1
   19    18    20    1
   20     1    21    1
   21    18    21    1
   22    21    22    1
   23    21    23    1
   24    13    24    1
   25    24    25    1
@<TRIPOS>SUBSTRUCTURE
       1 MOL1            1 RESIDUE      1      MOL     
@<SCITEGIC>MOL_PROPERTY
VConf Rank
SciTegic.value.IntegerValue
25

@<SCITEGIC>MOL_PROPERTY
Conf_Id
SciTegic.value.IntegerValue
121

@<SCITEGIC>MOL_PROPERTY
Delta U+W
SciTegic.value.DoubleValue
-1.283

@<SCITEGIC>MOL_PROPERTY
U+W
SciTegic.value.DoubleValue
9.630

@<SCITEGIC>MOL_PROPERTY
Grad RMS
SciTegic.value.DoubleValue
0.000000

@<SCITEGIC>MOL_PROPERTY
U
SciTegic.value.DoubleValue
11.876

@<SCITEGIC>MOL_PROPERTY
W
SciTegic.value.DoubleValue
-2.246

@<SCITEGIC>MOL_PROPERTY
W(PB)
SciTegic.value.DoubleValue
-4.376

@<SCITEGIC>MOL_PROPERTY
W(SA)
SciTegic.value.DoubleValue
2.130

@<SCITEGIC>MOL_PROPERTY
Valence
SciTegic.value.DoubleValue
17.153

@<SCITEGIC>MOL_PROPERTY
Coulomb
SciTegic.value.DoubleValue
-7.966

@<SCITEGIC>MOL_PROPERTY
VdW
SciTegic.value.DoubleValue
2.689

@<SCITEGIC>MOL_PROPERTY
VdW6
SciTegic.value.DoubleValue
-12.458

@<SCITEGIC>MOL_PROPERTY
VdW12
SciTegic.value.DoubleValue
15.147

@<SCITEGIC>MOL_PROPERTY
Bond
SciTegic.value.DoubleValue
0.421

@<SCITEGIC>MOL_PROPERTY
Angle
SciTegic.value.DoubleValue
5.258

@<SCITEGIC>MOL_PROPERTY
Pdih
SciTegic.value.DoubleValue
11.475

@<SCITEGIC>MOL_PROPERTY
Idih
SciTegic.value.DoubleValue
0.000

@<SCITEGIC>MOL_PROPERTY
Tether
SciTegic.value.DoubleValue
0.000

@<TRIPOS>MOLECULE
guest-s17_confgen4.mol2 : confsearch ligand conformer 26
          25          25           1
SMALL
USER_CHARGES
 
@<TRIPOS>ATOM
       1    C1      20.149522   20.465473   24.079584 C.3        1 MOL1        -0.1684
       2    H1      20.589670   21.062726   23.272935 H          1 MOL1         0.0833
       3    H2      20.014878   21.175104   24.907191 H          1 MOL1         0.0833
       4    C2      21.150141   19.384301   24.558699 C.3        1 MOL1        -0.1684
       5    H3      22.047880   19.904374   24.919907 H          1 MOL1         0.0833
       6    H4      20.734285   18.867120   25.433954 H          1 MOL1         0.0833
       7    C3      21.601555   18.328209   23.517632 C.3        1 MOL1        -0.1684
       8    H5      20.866456   17.518532   23.446936 H          1 MOL1         0.0833
       9    H6      22.504223   17.845459   23.916491 H          1 MOL1         0.0833
      10    C4      21.933637   18.886385   22.107761 C.3        1 MOL1        -0.1760
      11    H7      22.211110   19.946308   22.156348 H          1 MOL1         0.0833
      12    H8      22.835039   18.368435   21.754191 H          1 MOL1         0.0833
      13    C5      20.835352   18.660894   21.038725 C.3        1 MOL1         0.1219
      14    H9      20.586070   17.590066   21.025761 H          1 MOL1         0.0790
      15    C6      19.522058   19.463150   21.220464 C.3        1 MOL1        -0.1760
      16    H10     19.729965   20.539887   21.246234 H          1 MOL1         0.0833
      17    H11     18.916190   19.307103   20.318290 H          1 MOL1         0.0833
      18    C7      18.655802   19.032554   22.434340 C.3        1 MOL1        -0.1684
      19    H12     18.874814   17.996023   22.714755 H          1 MOL1         0.0833
      20    H13     17.604309   19.014539   22.116440 H          1 MOL1         0.0833
      21    C8      18.742552   19.961184   23.672419 C.3        1 MOL1        -0.1684
      22    H14     18.275721   19.457127   24.529442 H          1 MOL1         0.0833
      23    H15     18.121299   20.845090   23.473313 H          1 MOL1         0.0833
      24    O1      21.387123   19.016528   19.777179 O.3        1 MOL1        -0.5508
      25    H16     20.708913   18.806003   19.102005 H          1 MOL1         0.3780
@<TRIPOS>BOND
    1     1     2    1
    2     1     3    1
    3     1     4    1
    4     4     5    1
    5     4     6    1
    6     4     7    1
    7     7     8    1
    8     7     9    1
    9     7    10    1
   10    10    11    1
   11    10    12    1
   12    10    13    1
   13    13    14    1
   14    13    15    1
   15    15    16    1
   16    15    17    1
   17    15    18    1
   18    18    19    1
   19    18    20    1
   20     1    21    1
   21    18    21    1
   22    21    22    1
   23    21    23    1
   24    13    24    1
   25    24    25    1
@<TRIPOS>SUBSTRUCTURE
       1 MOL1            1 RESIDUE      1      MOL     
@<SCITEGIC>MOL_PROPERTY
VConf Rank
SciTegic.value.IntegerValue
26

@<SCITEGIC>MOL_PROPERTY
Conf_Id
SciTegic.value.IntegerValue
24

@<SCITEGIC>MOL_PROPERTY
Delta U+W
SciTegic.value.DoubleValue
-1.236

@<SCITEGIC>MOL_PROPERTY
U+W
SciTegic.value.DoubleValue
9.678

@<SCITEGIC>MOL_PROPERTY
Grad RMS
SciTegic.value.DoubleValue
0.000000

@<SCITEGIC>MOL_PROPERTY
U
SciTegic.value.DoubleValue
11.876

@<SCITEGIC>MOL_PROPERTY
W
SciTegic.value.DoubleValue
-2.199

@<SCITEGIC>MOL_PROPERTY
W(PB)
SciTegic.value.DoubleValue
-4.335

@<SCITEGIC>MOL_PROPERTY
W(SA)
SciTegic.value.DoubleValue
2.137

@<SCITEGIC>MOL_PROPERTY
Valence
SciTegic.value.DoubleValue
17.153

@<SCITEGIC>MOL_PROPERTY
Coulomb
SciTegic.value.DoubleValue
-7.966

@<SCITEGIC>MOL_PROPERTY
VdW
SciTegic.value.DoubleValue
2.689

@<SCITEGIC>MOL_PROPERTY
VdW6
SciTegic.value.DoubleValue
-12.458

@<SCITEGIC>MOL_PROPERTY
VdW12
SciTegic.value.DoubleValue
15.147

@<SCITEGIC>MOL_PROPERTY
Bond
SciTegic.value.DoubleValue
0.421

@<SCITEGIC>MOL_PROPERTY
Angle
SciTegic.value.DoubleValue
5.258

@<SCITEGIC>MOL_PROPERTY
Pdih
SciTegic.value.DoubleValue
11.475

@<SCITEGIC>MOL_PROPERTY
Idih
SciTegic.value.DoubleValue
0.000

@<SCITEGIC>MOL_PROPERTY
Tether
SciTegic.value.DoubleValue
0.000

@<TRIPOS>MOLECULE
guest-s17_confgen4.mol2 : confsearch ligand conformer 27
          25          25           1
SMALL
USER_CHARGES
 
@<TRIPOS>ATOM
       1    C1      19.573660   17.165327   22.866111 C.3        1 MOL1        -0.1684
       2    H1      19.339582   16.715432   23.840575 H          1 MOL1         0.0833
       3    H2      19.441321   16.361960   22.128587 H          1 MOL1         0.0833
       4    C2      18.528887   18.271201   22.560023 C.3        1 MOL1        -0.1684
       5    H3      18.522669   18.511319   21.489229 H          1 MOL1         0.0833
       6    H4      17.538315   17.837610   22.754531 H          1 MOL1         0.0833
       7    C3      18.651127   19.571080   23.393109 C.3        1 MOL1        -0.1684
       8    H5      18.996474   19.350288   24.412149 H          1 MOL1         0.0833
       9    H6      17.634572   19.971066   23.510704 H          1 MOL1         0.0833
      10    C4      19.505402   20.695251   22.741664 C.3        1 MOL1        -0.1760
      11    H7      19.365359   20.711069   21.653263 H          1 MOL1         0.0833
      12    H8      19.097824   21.648619   23.104871 H          1 MOL1         0.0833
      13    C5      21.012325   20.659923   23.095237 C.3        1 MOL1         0.1219
      14    H9      21.127193   20.203861   24.087451 H          1 MOL1         0.0790
      15    C6      21.915126   19.913141   22.080804 C.3        1 MOL1        -0.1760
      16    H10     22.009223   20.513188   21.166222 H          1 MOL1         0.0833
      17    H11     22.923849   19.858486   22.511050 H          1 MOL1         0.0833
      18    C7      21.478932   18.482194   21.677361 C.3        1 MOL1        -0.1684
      19    H12     22.318909   18.004731   21.154651 H          1 MOL1         0.0833
      20    H13     20.679182   18.536495   20.929603 H          1 MOL1         0.0833
      21    C8      21.063492   17.587060   22.872141 C.3        1 MOL1        -0.1684
      22    H14     21.306698   18.065868   23.827782 H          1 MOL1         0.0833
      23    H15     21.674090   16.673951   22.855671 H          1 MOL1         0.0833
      24    O1      21.484690   21.998740   23.173648 O.3        1 MOL1        -0.5508
      25    H16     21.353963   22.391065   22.285974 H          1 MOL1         0.3780
@<TRIPOS>BOND
    1     1     2    1
    2     1     3    1
    3     1     4    1
    4     4     5    1
    5     4     6    1
    6     4     7    1
    7     7     8    1
    8     7     9    1
    9     7    10    1
   10    10    11    1
   11    10    12    1
   12    10    13    1
   13    13    14    1
   14    13    15    1
   15    15    16    1
   16    15    17    1
   17    15    18    1
   18    18    19    1
   19    18    20    1
   20     1    21    1
   21    18    21    1
   22    21    22    1
   23    21    23    1
   24    13    24    1
   25    24    25    1
@<TRIPOS>SUBSTRUCTURE
       1 MOL1            1 RESIDUE      1      MOL     
@<SCITEGIC>MOL_PROPERTY
VConf Rank
SciTegic.value.IntegerValue
27

@<SCITEGIC>MOL_PROPERTY
Conf_Id
SciTegic.value.IntegerValue
167

@<SCITEGIC>MOL_PROPERTY
Delta U+W
SciTegic.value.DoubleValue
0.388

@<SCITEGIC>MOL_PROPERTY
U+W
SciTegic.value.DoubleValue
11.301

@<SCITEGIC>MOL_PROPERTY
Grad RMS
SciTegic.value.DoubleValue
0.000000

@<SCITEGIC>MOL_PROPERTY
U
SciTegic.value.DoubleValue
13.202

@<SCITEGIC>MOL_PROPERTY
W
SciTegic.value.DoubleValue
-1.901

@<SCITEGIC>MOL_PROPERTY
W(PB)
SciTegic.value.DoubleValue
-4.065

@<SCITEGIC>MOL_PROPERTY
W(SA)
SciTegic.value.DoubleValue
2.163

@<SCITEGIC>MOL_PROPERTY
Valence
SciTegic.value.DoubleValue
18.957

@<SCITEGIC>MOL_PROPERTY
Coulomb
SciTegic.value.DoubleValue
-8.753

@<SCITEGIC>MOL_PROPERTY
VdW
SciTegic.value.DoubleValue
2.998

@<SCITEGIC>MOL_PROPERTY
VdW6
SciTegic.value.DoubleValue
-12.294

@<SCITEGIC>MOL_PROPERTY
VdW12
SciTegic.value.DoubleValue
15.292

@<SCITEGIC>MOL_PROPERTY
Bond
SciTegic.value.DoubleValue
0.419

@<SCITEGIC>MOL_PROPERTY
Angle
SciTegic.value.DoubleValue
4.543

@<SCITEGIC>MOL_PROPERTY
Pdih
SciTegic.value.DoubleValue
13.996

@<SCITEGIC>MOL_PROPERTY
Idih
SciTegic.value.DoubleValue
0.000

@<SCITEGIC>MOL_PROPERTY
Tether
SciTegic.value.DoubleValue
0.000

@<TRIPOS>MOLECULE
guest-s17_confgen4.mol2 : confsearch ligand conformer 28
          25          25           1
SMALL
USER_CHARGES
 
@<TRIPOS>ATOM
       1    C1      18.289721   18.974183   22.312904 C.3        1 MOL1        -0.1684
       2    H1      17.554518   19.729100   22.622874 H          1 MOL1         0.0833
       3    H2      17.710623   18.183725   21.816174 H          1 MOL1         0.0833
       4    C2      18.940362   18.357595   23.578522 C.3        1 MOL1        -0.1684
       5    H3      19.142542   19.132969   24.325999 H          1 MOL1         0.0833
       6    H4      18.183117   17.715943   24.049583 H          1 MOL1         0.0833
       7    C3      20.208100   17.500744   23.326553 C.3        1 MOL1        -0.1684
       8    H5      20.210785   17.089764   22.308782 H          1 MOL1         0.0833
       9    H6      20.152297   16.625972   23.988796 H          1 MOL1         0.0833
      10    C4      21.551234   18.217076   23.634951 C.3        1 MOL1        -0.1760
      11    H7      21.540440   18.583128   24.669907 H          1 MOL1         0.0833
      12    H8      22.345569   17.459854   23.597120 H          1 MOL1         0.0833
      13    C5      21.960385   19.373857   22.689508 C.3        1 MOL1         0.1219
      14    H9      21.938745   19.014473   21.651949 H          1 MOL1         0.0790
      15    C6      21.079652   20.643087   22.824008 C.3        1 MOL1        -0.1760
      16    H10     20.585184   20.656474   23.800530 H          1 MOL1         0.0833
      17    H11     21.720745   21.534649   22.831744 H          1 MOL1         0.0833
      18    C7      20.037022   20.839959   21.693111 C.3        1 MOL1        -0.1684
      19    H12     20.565476   21.223630   20.809664 H          1 MOL1         0.0833
      20    H13     19.336349   21.632675   21.988424 H          1 MOL1         0.0833
      21    C8      19.236978   19.588541   21.251803 C.3        1 MOL1        -0.1684
      22    H14     19.910468   18.821385   20.853014 H          1 MOL1         0.0833
      23    H15     18.617173   19.884189   20.394333 H          1 MOL1         0.0833
      24    O1      23.301299   19.726785   23.008183 O.3        1 MOL1        -0.5508
      25    H16     23.573225   20.410085   22.360360 H          1 MOL1         0.3780
@<TRIPOS>BOND
    1     1     2    1
    2     1     3    1
    3     1     4    1
    4     4     5    1
    5     4     6    1
    6     4     7    1
    7     7     8    1
    8     7     9    1
    9     7    10    1
   10    10    11    1
   11    10    12    1
   12    10    13    1
   13    13    14    1
   14    13    15    1
   15    15    16    1
   16    15    17    1
   17    15    18    1
   18    18    19    1
   19    18    20    1
   20     1    21    1
   21    18    21    1
   22    21    22    1
   23    21    23    1
   24    13    24    1
   25    24    25    1
@<TRIPOS>SUBSTRUCTURE
       1 MOL1            1 RESIDUE      1      MOL     
@<SCITEGIC>MOL_PROPERTY
VConf Rank
SciTegic.value.IntegerValue
28

@<SCITEGIC>MOL_PROPERTY
Conf_Id
SciTegic.value.IntegerValue
60

@<SCITEGIC>MOL_PROPERTY
Delta U+W
SciTegic.value.DoubleValue
-1.838

@<SCITEGIC>MOL_PROPERTY
U+W
SciTegic.value.DoubleValue
9.075

@<SCITEGIC>MOL_PROPERTY
Grad RMS
SciTegic.value.DoubleValue
0.000000

@<SCITEGIC>MOL_PROPERTY
U
SciTegic.value.DoubleValue
11.150

@<SCITEGIC>MOL_PROPERTY
W
SciTegic.value.DoubleValue
-2.074

@<SCITEGIC>MOL_PROPERTY
W(PB)
SciTegic.value.DoubleValue
-4.196

@<SCITEGIC>MOL_PROPERTY
W(SA)
SciTegic.value.DoubleValue
2.121

@<SCITEGIC>MOL_PROPERTY
Valence
SciTegic.value.DoubleValue
16.582

@<SCITEGIC>MOL_PROPERTY
Coulomb
SciTegic.value.DoubleValue
-8.361

@<SCITEGIC>MOL_PROPERTY
VdW
SciTegic.value.DoubleValue
2.928

@<SCITEGIC>MOL_PROPERTY
VdW6
SciTegic.value.DoubleValue
-12.539

@<SCITEGIC>MOL_PROPERTY
VdW12
SciTegic.value.DoubleValue
15.467

@<SCITEGIC>MOL_PROPERTY
Bond
SciTegic.value.DoubleValue
0.441

@<SCITEGIC>MOL_PROPERTY
Angle
SciTegic.value.DoubleValue
5.093

@<SCITEGIC>MOL_PROPERTY
Pdih
SciTegic.value.DoubleValue
11.049

@<SCITEGIC>MOL_PROPERTY
Idih
SciTegic.value.DoubleValue
0.000

@<SCITEGIC>MOL_PROPERTY
Tether
SciTegic.value.DoubleValue
0.000

@<TRIPOS>MOLECULE
guest-s17_confgen4.mol2 : confsearch ligand conformer 29
          25          25           1
SMALL
USER_CHARGES
 
@<TRIPOS>ATOM
       1    C1      22.265040   19.851205   22.871965 C.3        1 MOL1        -0.1684
       2    H1      22.486826   20.849393   23.273131 H          1 MOL1         0.0833
       3    H2      23.240044   19.405547   22.631809 H          1 MOL1         0.0833
       4    C2      21.483860   19.996782   21.541841 C.3        1 MOL1        -0.1684
       5    H3      22.129084   20.547715   20.844000 H          1 MOL1         0.0833
       6    H4      21.345140   19.016131   21.072556 H          1 MOL1         0.0833
       7    C3      20.136913   20.758625   21.620570 C.3        1 MOL1        -0.1684
       8    H5      19.764909   20.880428   20.594061 H          1 MOL1         0.0833
       9    H6      20.316916   21.775611   21.994586 H          1 MOL1         0.0833
      10    C4      19.009705   20.105400   22.461676 C.3        1 MOL1        -0.1760
      11    H7      19.156386   20.323283   23.524355 H          1 MOL1         0.0833
      12    H8      18.074556   20.620781   22.205120 H          1 MOL1         0.0833
      13    C5      18.834286   18.579331   22.249388 C.3        1 MOL1         0.1219
      14    H9      19.296451   18.280559   21.298970 H          1 MOL1         0.0790
      15    C6      19.417757   17.710756   23.391555 C.3        1 MOL1        -0.1760
      16    H10     18.981343   18.029908   24.347027 H          1 MOL1         0.0833
      17    H11     19.070191   16.680688   23.236823 H          1 MOL1         0.0833
      18    C7      20.965013   17.667307   23.519459 C.3        1 MOL1        -0.1684
      19    H12     21.422849   17.311232   22.587597 H          1 MOL1         0.0833
      20    H13     21.203019   16.898901   24.267663 H          1 MOL1         0.0833
      21    C8      21.616952   18.993435   23.989784 C.3        1 MOL1        -0.1684
      22    H14     22.411208   18.747134   24.707787 H          1 MOL1         0.0833
      23    H15     20.902350   19.589104   24.568858 H          1 MOL1         0.0833
      24    O1      17.441801   18.297804   22.172627 O.3        1 MOL1        -0.5508
      25    H16     17.096115   18.798629   21.404388 H          1 MOL1         0.3780
@<TRIPOS>BOND
    1     1     2    1
    2     1     3    1
    3     1     4    1
    4     4     5    1
    5     4     6    1
    6     4     7    1
    7     7     8    1
    8     7     9    1
    9     7    10    1
   10    10    11    1
   11    10    12    1
   12    10    13    1
   13    13    14    1
   14    13    15    1
   15    15    16    1
   16    15    17    1
   17    15    18    1
   18    18    19    1
   19    18    20    1
   20     1    21    1
   21    18    21    1
   22    21    22    1
   23    21    23    1
   24    13    24    1
   25    24    25    1
@<TRIPOS>SUBSTRUCTURE
       1 MOL1            1 RESIDUE      1      MOL     
@<SCITEGIC>MOL_PROPERTY
VConf Rank
SciTegic.value.IntegerValue
29

@<SCITEGIC>MOL_PROPERTY
Conf_Id
SciTegic.value.IntegerValue
129

@<SCITEGIC>MOL_PROPERTY
Delta U+W
SciTegic.value.DoubleValue
-1.846

@<SCITEGIC>MOL_PROPERTY
U+W
SciTegic.value.DoubleValue
9.067

@<SCITEGIC>MOL_PROPERTY
Grad RMS
SciTegic.value.DoubleValue
0.000000

@<SCITEGIC>MOL_PROPERTY
U
SciTegic.value.DoubleValue
11.150

@<SCITEGIC>MOL_PROPERTY
W
SciTegic.value.DoubleValue
-2.083

@<SCITEGIC>MOL_PROPERTY
W(PB)
SciTegic.value.DoubleValue
-4.217

@<SCITEGIC>MOL_PROPERTY
W(SA)
SciTegic.value.DoubleValue
2.134

@<SCITEGIC>MOL_PROPERTY
Valence
SciTegic.value.DoubleValue
16.583

@<SCITEGIC>MOL_PROPERTY
Coulomb
SciTegic.value.DoubleValue
-8.361

@<SCITEGIC>MOL_PROPERTY
VdW
SciTegic.value.DoubleValue
2.928

@<SCITEGIC>MOL_PROPERTY
VdW6
SciTegic.value.DoubleValue
-12.539

@<SCITEGIC>MOL_PROPERTY
VdW12
SciTegic.value.DoubleValue
15.467

@<SCITEGIC>MOL_PROPERTY
Bond
SciTegic.value.DoubleValue
0.441

@<SCITEGIC>MOL_PROPERTY
Angle
SciTegic.value.DoubleValue
5.093

@<SCITEGIC>MOL_PROPERTY
Pdih
SciTegic.value.DoubleValue
11.049

@<SCITEGIC>MOL_PROPERTY
Idih
SciTegic.value.DoubleValue
0.000

@<SCITEGIC>MOL_PROPERTY
Tether
SciTegic.value.DoubleValue
0.000

@<TRIPOS>MOLECULE
guest-s17_confgen4.mol2 : confsearch ligand conformer 30
          25          25           1
SMALL
USER_CHARGES
 
@<TRIPOS>ATOM
       1    C1      20.601843   20.836058   21.416686 C.3        1 MOL1        -0.1684
       2    H1      20.262538   21.841207   21.701388 H          1 MOL1         0.0833
       3    H2      21.098606   20.955688   20.444146 H          1 MOL1         0.0833
       4    C2      19.369415   19.923372   21.196821 C.3        1 MOL1        -0.1684
       5    H3      18.778245   20.364892   20.382951 H          1 MOL1         0.0833
       6    H4      19.682316   18.946373   20.811119 H          1 MOL1         0.0833
       7    C3      18.422482   19.750761   22.410819 C.3        1 MOL1        -0.1684
       8    H5      17.547655   19.180783   22.068977 H          1 MOL1         0.0833
       9    H6      18.037469   20.733922   22.713568 H          1 MOL1         0.0833
      10    C4      19.000415   19.030638   23.656889 C.3        1 MOL1        -0.1760
      11    H7      19.582443   19.732643   24.262670 H          1 MOL1         0.0833
      12    H8      18.147171   18.757509   24.292492 H          1 MOL1         0.0833
      13    C5      19.837542   17.761439   23.352048 C.3        1 MOL1         0.1219
      14    H9      19.589271   17.386113   22.350369 H          1 MOL1         0.0790
      15    C6      21.369602   17.969383   23.454276 C.3        1 MOL1        -0.1760
      16    H10     21.618413   18.373380   24.444273 H          1 MOL1         0.0833
      17    H11     21.844165   16.979984   23.408292 H          1 MOL1         0.0833
      18    C7      22.031649   18.852696   22.362272 C.3        1 MOL1        -0.1684
      19    H12     21.835299   18.447285   21.361332 H          1 MOL1         0.0833
      20    H13     23.118685   18.768333   22.497185 H          1 MOL1         0.0833
      21    C8      21.668425   20.358418   22.435859 C.3        1 MOL1        -0.1684
      22    H14     22.580781   20.939538   22.243616 H          1 MOL1         0.0833
      23    H15     21.379272   20.635388   23.455897 H          1 MOL1         0.0833
      24    O1      19.483793   16.758585   24.296140 O.3        1 MOL1        -0.5508
      25    H16     19.717877   17.114024   25.178075 H          1 MOL1         0.3780
@<TRIPOS>BOND
    1     1     2    1
    2     1     3    1
    3     1     4    1
    4     4     5    1
    5     4     6    1
    6     4     7    1
    7     7     8    1
    8     7     9    1
    9     7    10    1
   10    10    11    1
   11    10    12    1
   12    10    13    1
   13    13    14    1
   14    13    15    1
   15    15    16    1
   16    15    17    1
   17    15    18    1
   18    18    19    1
   19    18    20    1
   20     1    21    1
   21    18    21    1
   22    21    22    1
   23    21    23    1
   24    13    24    1
   25    24    25    1
@<TRIPOS>SUBSTRUCTURE
       1 MOL1            1 RESIDUE      1      MOL     
@<SCITEGIC>MOL_PROPERTY
VConf Rank
SciTegic.value.IntegerValue
30

@<SCITEGIC>MOL_PROPERTY
Conf_Id
SciTegic.value.IntegerValue
140

@<SCITEGIC>MOL_PROPERTY
Delta U+W
SciTegic.value.DoubleValue
-1.702

@<SCITEGIC>MOL_PROPERTY
U+W
SciTegic.value.DoubleValue
9.211

@<SCITEGIC>MOL_PROPERTY
Grad RMS
SciTegic.value.DoubleValue
0.000000

@<SCITEGIC>MOL_PROPERTY
U
SciTegic.value.DoubleValue
11.181

@<SCITEGIC>MOL_PROPERTY
W
SciTegic.value.DoubleValue
-1.969

@<SCITEGIC>MOL_PROPERTY
W(PB)
SciTegic.value.DoubleValue
-4.093

@<SCITEGIC>MOL_PROPERTY
W(SA)
SciTegic.value.DoubleValue
2.124

@<SCITEGIC>MOL_PROPERTY
Valence
SciTegic.value.DoubleValue
16.954

@<SCITEGIC>MOL_PROPERTY
Coulomb
SciTegic.value.DoubleValue
-8.661

@<SCITEGIC>MOL_PROPERTY
VdW
SciTegic.value.DoubleValue
2.887

@<SCITEGIC>MOL_PROPERTY
VdW6
SciTegic.value.DoubleValue
-12.561

@<SCITEGIC>MOL_PROPERTY
VdW12
SciTegic.value.DoubleValue
15.448

@<SCITEGIC>MOL_PROPERTY
Bond
SciTegic.value.DoubleValue
0.433

@<SCITEGIC>MOL_PROPERTY
Angle
SciTegic.value.DoubleValue
5.120

@<SCITEGIC>MOL_PROPERTY
Pdih
SciTegic.value.DoubleValue
11.401

@<SCITEGIC>MOL_PROPERTY
Idih
SciTegic.value.DoubleValue
0.000

@<SCITEGIC>MOL_PROPERTY
Tether
SciTegic.value.DoubleValue
0.000

@<TRIPOS>MOLECULE
guest-s17_confgen4.mol2 : confsearch ligand conformer 31
          25          25           1
SMALL
USER_CHARGES
 
@<TRIPOS>ATOM
       1    C1      19.903364   17.721766   21.236442 C.3        1 MOL1        -0.1684
       2    H1      19.298311   17.941826   20.346503 H          1 MOL1         0.0833
       3    H2      20.182210   16.662636   21.150374 H          1 MOL1         0.0833
       4    C2      19.015196   17.874939   22.498244 C.3        1 MOL1        -0.1684
       5    H3      18.364280   18.751873   22.408251 H          1 MOL1         0.0833
       6    H4      18.323222   17.021670   22.510692 H          1 MOL1         0.0833
       7    C3      19.776530   17.897735   23.848947 C.3        1 MOL1        -0.1684
       8    H5      20.739145   17.376439   23.768834 H          1 MOL1         0.0833
       9    H6      19.190898   17.308697   24.567998 H          1 MOL1         0.0833
      10    C4      19.964293   19.309989   24.466441 C.3        1 MOL1        -0.1760
      11    H7      18.982649   19.789538   24.574252 H          1 MOL1         0.0833
      12    H8      20.343188   19.173650   25.488246 H          1 MOL1         0.0833
      13    C5      20.930628   20.272325   23.730916 C.3        1 MOL1         0.1219
      14    H9      21.902081   19.777907   23.597864 H          1 MOL1         0.0790
      15    C6      20.408204   20.775422   22.360319 C.3        1 MOL1        -0.1760
      16    H10     19.317169   20.695683   22.317605 H          1 MOL1         0.0833
      17    H11     20.611207   21.851022   22.268175 H          1 MOL1         0.0833
      18    C7      21.043634   20.088788   21.123373 C.3        1 MOL1        -0.1684
      19    H12     22.040912   20.524398   20.972603 H          1 MOL1         0.0833
      20    H13     20.463733   20.356300   20.229701 H          1 MOL1         0.0833
      21    C8      21.211686   18.549803   21.182980 C.3        1 MOL1        -0.1684
      22    H14     21.875947   18.267066   22.007614 H          1 MOL1         0.0833
      23    H15     21.752568   18.245978   20.276370 H          1 MOL1         0.0833
      24    O1      21.124906   21.401033   24.573788 O.3        1 MOL1        -0.5508
      25    H16     20.246777   21.821133   24.680315 H          1 MOL1         0.3780
@<TRIPOS>BOND
    1     1     2    1
    2     1     3    1
    3     1     4    1
    4     4     5    1
    5     4     6    1
    6     4     7    1
    7     7     8    1
    8     7     9    1
    9     7    10    1
   10    10    11    1
   11    10    12    1
   12    10    13    1
   13    13    14    1
   14    13    15    1
   15    15    16    1
   16    15    17    1
   17    15    18    1
   18    18    19    1
   19    18    20    1
   20     1    21    1
   21    18    21    1
   22    21    22    1
   23    21    23    1
   24    13    24    1
   25    24    25    1
@<TRIPOS>SUBSTRUCTURE
       1 MOL1            1 RESIDUE      1      MOL     
@<SCITEGIC>MOL_PROPERTY
VConf Rank
SciTegic.value.IntegerValue
31

@<SCITEGIC>MOL_PROPERTY
Conf_Id
SciTegic.value.IntegerValue
68

@<SCITEGIC>MOL_PROPERTY
Delta U+W
SciTegic.value.DoubleValue
-1.765

@<SCITEGIC>MOL_PROPERTY
U+W
SciTegic.value.DoubleValue
9.148

@<SCITEGIC>MOL_PROPERTY
Grad RMS
SciTegic.value.DoubleValue
0.000000

@<SCITEGIC>MOL_PROPERTY
U
SciTegic.value.DoubleValue
11.181

@<SCITEGIC>MOL_PROPERTY
W
SciTegic.value.DoubleValue
-2.032

@<SCITEGIC>MOL_PROPERTY
W(PB)
SciTegic.value.DoubleValue
-4.147

@<SCITEGIC>MOL_PROPERTY
W(SA)
SciTegic.value.DoubleValue
2.114

@<SCITEGIC>MOL_PROPERTY
Valence
SciTegic.value.DoubleValue
16.955

@<SCITEGIC>MOL_PROPERTY
Coulomb
SciTegic.value.DoubleValue
-8.661

@<SCITEGIC>MOL_PROPERTY
VdW
SciTegic.value.DoubleValue
2.887

@<SCITEGIC>MOL_PROPERTY
VdW6
SciTegic.value.DoubleValue
-12.561

@<SCITEGIC>MOL_PROPERTY
VdW12
SciTegic.value.DoubleValue
15.448

@<SCITEGIC>MOL_PROPERTY
Bond
SciTegic.value.DoubleValue
0.433

@<SCITEGIC>MOL_PROPERTY
Angle
SciTegic.value.DoubleValue
5.121

@<SCITEGIC>MOL_PROPERTY
Pdih
SciTegic.value.DoubleValue
11.402

@<SCITEGIC>MOL_PROPERTY
Idih
SciTegic.value.DoubleValue
0.000

@<SCITEGIC>MOL_PROPERTY
Tether
SciTegic.value.DoubleValue
0.000

@<TRIPOS>MOLECULE
guest-s17_confgen4.mol2 : confsearch ligand conformer 32
          25          25           1
SMALL
USER_CHARGES
 
@<TRIPOS>ATOM
       1    C1      19.706039   19.573795   20.912536 C.3        1 MOL1        -0.1684
       2    H1      19.383512   19.913363   19.918681 H          1 MOL1         0.0833
       3    H2      19.559822   18.488000   20.888828 H          1 MOL1         0.0833
       4    C2      18.776666   20.226398   21.968792 C.3        1 MOL1        -0.1684
       5    H3      19.218361   21.147970   22.369072 H          1 MOL1         0.0833
       6    H4      17.863430   20.549233   21.450337 H          1 MOL1         0.0833
       7    C3      18.334590   19.283332   23.118487 C.3        1 MOL1        -0.1684
       8    H5      17.853256   18.391740   22.693686 H          1 MOL1         0.0833
       9    H6      17.549354   19.798040   23.688849 H          1 MOL1         0.0833
      10    C4      19.434776   18.843531   24.120844 C.3        1 MOL1        -0.1760
      11    H7      19.907051   19.721165   24.578306 H          1 MOL1         0.0833
      12    H8      18.923389   18.328681   24.945479 H          1 MOL1         0.0833
      13    C5      20.500985   17.887170   23.526320 C.3        1 MOL1         0.1219
      14    H9      20.098154   17.422833   22.618761 H          1 MOL1         0.0790
      15    C6      21.858721   18.554435   23.195636 C.3        1 MOL1        -0.1760
      16    H10     22.414604   18.695967   24.131873 H          1 MOL1         0.0833
      17    H11     22.452991   17.852222   22.596617 H          1 MOL1         0.0833
      18    C7      21.816548   19.924591   22.471096 C.3        1 MOL1        -0.1684
      19    H12     22.851963   20.281602   22.386349 H          1 MOL1         0.0833
      20    H13     21.316312   20.673451   23.095820 H          1 MOL1         0.0833
      21    C8      21.211384   19.922285   21.044944 C.3        1 MOL1        -0.1684
      22    H14     21.791909   19.244140   20.404869 H          1 MOL1         0.0833
      23    H15     21.360388   20.926213   20.624321 H          1 MOL1         0.0833
      24    O1      20.752400   16.849212   24.465531 O.3        1 MOL1        -0.5508
      25    H16     21.093995   17.283765   25.273841 H          1 MOL1         0.3780
@<TRIPOS>BOND
    1     1     2    1
    2     1     3    1
    3     1     4    1
    4     4     5    1
    5     4     6    1
    6     4     7    1
    7     7     8    1
    8     7     9    1
    9     7    10    1
   10    10    11    1
   11    10    12    1
   12    10    13    1
   13    13    14    1
   14    13    15    1
   15    15    16    1
   16    15    17    1
   17    15    18    1
   18    18    19    1
   19    18    20    1
   20     1    21    1
   21    18    21    1
   22    21    22    1
   23    21    23    1
   24    13    24    1
   25    24    25    1
@<TRIPOS>SUBSTRUCTURE
       1 MOL1            1 RESIDUE      1      MOL     
@<SCITEGIC>MOL_PROPERTY
VConf Rank
SciTegic.value.IntegerValue
32

@<SCITEGIC>MOL_PROPERTY
Conf_Id
SciTegic.value.IntegerValue
165

@<SCITEGIC>MOL_PROPERTY
Delta U+W
SciTegic.value.DoubleValue
-1.999

@<SCITEGIC>MOL_PROPERTY
U+W
SciTegic.value.DoubleValue
8.915

@<SCITEGIC>MOL_PROPERTY
Grad RMS
SciTegic.value.DoubleValue
0.000000

@<SCITEGIC>MOL_PROPERTY
U
SciTegic.value.DoubleValue
10.935

@<SCITEGIC>MOL_PROPERTY
W
SciTegic.value.DoubleValue
-2.020

@<SCITEGIC>MOL_PROPERTY
W(PB)
SciTegic.value.DoubleValue
-4.135

@<SCITEGIC>MOL_PROPERTY
W(SA)
SciTegic.value.DoubleValue
2.115

@<SCITEGIC>MOL_PROPERTY
Valence
SciTegic.value.DoubleValue
16.757

@<SCITEGIC>MOL_PROPERTY
Coulomb
SciTegic.value.DoubleValue
-8.731

@<SCITEGIC>MOL_PROPERTY
VdW
SciTegic.value.DoubleValue
2.908

@<SCITEGIC>MOL_PROPERTY
VdW6
SciTegic.value.DoubleValue
-12.597

@<SCITEGIC>MOL_PROPERTY
VdW12
SciTegic.value.DoubleValue
15.506

@<SCITEGIC>MOL_PROPERTY
Bond
SciTegic.value.DoubleValue
0.434

@<SCITEGIC>MOL_PROPERTY
Angle
SciTegic.value.DoubleValue
5.069

@<SCITEGIC>MOL_PROPERTY
Pdih
SciTegic.value.DoubleValue
11.254

@<SCITEGIC>MOL_PROPERTY
Idih
SciTegic.value.DoubleValue
0.000

@<SCITEGIC>MOL_PROPERTY
Tether
SciTegic.value.DoubleValue
0.000

@<TRIPOS>MOLECULE
guest-s17_confgen4.mol2 : confsearch ligand conformer 33
          25          25           1
SMALL
USER_CHARGES
 
@<TRIPOS>ATOM
       1    C1      21.504432   18.884073   21.298842 C.3        1 MOL1        -0.1684
       2    H1      22.171803   18.765232   20.434216 H          1 MOL1         0.0833
       3    H2      22.018026   18.358660   22.111839 H          1 MOL1         0.0833
       4    C2      20.170862   18.176512   20.943310 C.3        1 MOL1        -0.1684
       5    H3      19.930337   18.422023   19.899817 H          1 MOL1         0.0833
       6    H4      20.327581   17.089485   20.962785 H          1 MOL1         0.0833
       7    C3      18.928819   18.531170   21.798812 C.3        1 MOL1        -0.1684
       8    H5      18.065810   18.020320   21.350539 H          1 MOL1         0.0833
       9    H6      18.695849   19.598297   21.707940 H          1 MOL1         0.0833
      10    C4      18.987692   18.114510   23.291112 C.3        1 MOL1        -0.1760
      11    H7      18.005297   18.331478   23.731952 H          1 MOL1         0.0833
      12    H8      19.112330   17.025631   23.350494 H          1 MOL1         0.0833
      13    C5      20.071125   18.786075   24.170278 C.3        1 MOL1         0.1219
      14    H9      21.041086   18.315376   23.971585 H          1 MOL1         0.0790
      15    C6      20.205226   20.318158   23.972995 C.3        1 MOL1        -0.1760
      16    H10     19.281320   20.741065   23.561088 H          1 MOL1         0.0833
      17    H11     20.318313   20.786362   24.960177 H          1 MOL1         0.0833
      18    C7      21.428795   20.754441   23.123567 C.3        1 MOL1        -0.1684
      19    H12     22.345301   20.346463   23.571403 H          1 MOL1         0.0833
      20    H13     21.521152   21.845903   23.206953 H          1 MOL1         0.0833
      21    C8      21.391092   20.398447   21.614026 C.3        1 MOL1        -0.1684
      22    H14     22.250034   20.898269   21.145615 H          1 MOL1         0.0833
      23    H15     20.508041   20.837683   21.132465 H          1 MOL1         0.0833
      24    O1      19.733537   18.533315   25.529566 O.3        1 MOL1        -0.5508
      25    H16     19.699681   17.559642   25.635647 H          1 MOL1         0.3780
@<TRIPOS>BOND
    1     1     2    1
    2     1     3    1
    3     1     4    1
    4     4     5    1
    5     4     6    1
    6     4     7    1
    7     7     8    1
    8     7     9    1
    9     7    10    1
   10    10    11    1
   11    10    12    1
   12    10    13    1
   13    13    14    1
   14    13    15    1
   15    15    16    1
   16    15    17    1
   17    15    18    1
   18    18    19    1
   19    18    20    1
   20     1    21    1
   21    18    21    1
   22    21    22    1
   23    21    23    1
   24    13    24    1
   25    24    25    1
@<TRIPOS>SUBSTRUCTURE
       1 MOL1            1 RESIDUE      1      MOL     
@<SCITEGIC>MOL_PROPERTY
VConf Rank
SciTegic.value.IntegerValue
33

@<SCITEGIC>MOL_PROPERTY
Conf_Id
SciTegic.value.IntegerValue
133

@<SCITEGIC>MOL_PROPERTY
Delta U+W
SciTegic.value.DoubleValue
-2.139

@<SCITEGIC>MOL_PROPERTY
U+W
SciTegic.value.DoubleValue
8.774

@<SCITEGIC>MOL_PROPERTY
Grad RMS
SciTegic.value.DoubleValue
0.000000

@<SCITEGIC>MOL_PROPERTY
U
SciTegic.value.DoubleValue
10.905

@<SCITEGIC>MOL_PROPERTY
W
SciTegic.value.DoubleValue
-2.131

@<SCITEGIC>MOL_PROPERTY
W(PB)
SciTegic.value.DoubleValue
-4.281

@<SCITEGIC>MOL_PROPERTY
W(SA)
SciTegic.value.DoubleValue
2.150

@<SCITEGIC>MOL_PROPERTY
Valence
SciTegic.value.DoubleValue
16.378

@<SCITEGIC>MOL_PROPERTY
Coulomb
SciTegic.value.DoubleValue
-8.448

@<SCITEGIC>MOL_PROPERTY
VdW
SciTegic.value.DoubleValue
2.976

@<SCITEGIC>MOL_PROPERTY
VdW6
SciTegic.value.DoubleValue
-12.570

@<SCITEGIC>MOL_PROPERTY
VdW12
SciTegic.value.DoubleValue
15.545

@<SCITEGIC>MOL_PROPERTY
Bond
SciTegic.value.DoubleValue
0.439

@<SCITEGIC>MOL_PROPERTY
Angle
SciTegic.value.DoubleValue
5.049

@<SCITEGIC>MOL_PROPERTY
Pdih
SciTegic.value.DoubleValue
10.889

@<SCITEGIC>MOL_PROPERTY
Idih
SciTegic.value.DoubleValue
0.000

@<SCITEGIC>MOL_PROPERTY
Tether
SciTegic.value.DoubleValue
0.000

@<TRIPOS>MOLECULE
guest-s17_confgen4.mol2 : confsearch ligand conformer 34
          25          25           1
SMALL
USER_CHARGES
 
@<TRIPOS>ATOM
       1    C1      18.833074   19.559335   21.590525 C.3        1 MOL1        -0.1684
       2    H1      17.953516   19.832982   20.991709 H          1 MOL1         0.0833
       3    H2      19.017752   18.509445   21.336698 H          1 MOL1         0.0833
       4    C2      18.457389   19.700277   23.088697 C.3        1 MOL1        -0.1684
       5    H3      18.752586   20.682363   23.479815 H          1 MOL1         0.0833
       6    H4      17.361004   19.683517   23.157041 H          1 MOL1         0.0833
       7    C3      18.984831   18.562915   24.002527 C.3        1 MOL1        -0.1684
       8    H5      18.634974   17.594932   23.618345 H          1 MOL1         0.0833
       9    H6      18.510102   18.677976   24.986482 H          1 MOL1         0.0833
      10    C4      20.519911   18.502031   24.223467 C.3        1 MOL1        -0.1760
      11    H7      20.886255   19.449091   24.636974 H          1 MOL1         0.0833
      12    H8      20.700093   17.757855   25.011038 H          1 MOL1         0.0833
      13    C5      21.335749   18.094902   22.969339 C.3        1 MOL1         0.1219
      14    H9      20.668886   17.593323   22.258304 H          1 MOL1         0.0790
      15    C6      22.052781   19.268026   22.257024 C.3        1 MOL1        -0.1760
      16    H10     22.944261   19.531207   22.842272 H          1 MOL1         0.0833
      17    H11     22.421767   18.916061   21.285073 H          1 MOL1         0.0833
      18    C7      21.238071   20.569565   22.041926 C.3        1 MOL1        -0.1684
      19    H12     21.916485   21.310172   21.597004 H          1 MOL1         0.0833
      20    H13     20.948671   21.004030   23.005658 H          1 MOL1         0.0833
      21    C8      20.004955   20.454991   21.110990 C.3        1 MOL1        -0.1684
      22    H14     20.329341   20.116399   20.117663 H          1 MOL1         0.0833
      23    H15     19.610969   21.469888   20.963462 H          1 MOL1         0.0833
      24    O1      22.335009   17.161382   23.363712 O.3        1 MOL1        -0.5508
      25    H16     22.803939   16.888250   22.547660 H          1 MOL1         0.3780
@<TRIPOS>BOND
    1     1     2    1
    2     1     3    1
    3     1     4    1
    4     4     5    1
    5     4     6    1
    6     4     7    1
    7     7     8    1
    8     7     9    1
    9     7    10    1
   10    10    11    1
   11    10    12    1
   12    10    13    1
   13    13    14    1
   14    13    15    1
   15    15    16    1
   16    15    17    1
   17    15    18    1
   18    18    19    1
   19    18    20    1
   20     1    21    1
   21    18    21    1
   22    21    22    1
   23    21    23    1
   24    13    24    1
   25    24    25    1
@<TRIPOS>SUBSTRUCTURE
       1 MOL1            1 RESIDUE      1      MOL     
@<SCITEGIC>MOL_PROPERTY
VConf Rank
SciTegic.value.IntegerValue
34

@<SCITEGIC>MOL_PROPERTY
Conf_Id
SciTegic.value.IntegerValue
95

@<SCITEGIC>MOL_PROPERTY
Delta U+W
SciTegic.value.DoubleValue
-2.190

@<SCITEGIC>MOL_PROPERTY
U+W
SciTegic.value.DoubleValue
8.723

@<SCITEGIC>MOL_PROPERTY
Grad RMS
SciTegic.value.DoubleValue
0.000000

@<SCITEGIC>MOL_PROPERTY
U
SciTegic.value.DoubleValue
10.905

@<SCITEGIC>MOL_PROPERTY
W
SciTegic.value.DoubleValue
-2.182

@<SCITEGIC>MOL_PROPERTY
W(PB)
SciTegic.value.DoubleValue
-4.296

@<SCITEGIC>MOL_PROPERTY
W(SA)
SciTegic.value.DoubleValue
2.114

@<SCITEGIC>MOL_PROPERTY
Valence
SciTegic.value.DoubleValue
16.377

@<SCITEGIC>MOL_PROPERTY
Coulomb
SciTegic.value.DoubleValue
-8.448

@<SCITEGIC>MOL_PROPERTY
VdW
SciTegic.value.DoubleValue
2.976

@<SCITEGIC>MOL_PROPERTY
VdW6
SciTegic.value.DoubleValue
-12.570

@<SCITEGIC>MOL_PROPERTY
VdW12
SciTegic.value.DoubleValue
15.546

@<SCITEGIC>MOL_PROPERTY
Bond
SciTegic.value.DoubleValue
0.439

@<SCITEGIC>MOL_PROPERTY
Angle
SciTegic.value.DoubleValue
5.049

@<SCITEGIC>MOL_PROPERTY
Pdih
SciTegic.value.DoubleValue
10.889

@<SCITEGIC>MOL_PROPERTY
Idih
SciTegic.value.DoubleValue
0.000

@<SCITEGIC>MOL_PROPERTY
Tether
SciTegic.value.DoubleValue
0.000

@<TRIPOS>MOLECULE
guest-s17_confgen4.mol2 : confsearch ligand conformer 35
          25          25           1
SMALL
USER_CHARGES
 
@<TRIPOS>ATOM
       1    C1      21.652191   20.195158   23.326229 C.3        1 MOL1        -0.1684
       2    H1      22.542349   20.716233   23.704383 H          1 MOL1         0.0833
       3    H2      20.822608   20.759173   23.764308 H          1 MOL1         0.0833
       4    C2      21.699594   18.744854   23.890669 C.3        1 MOL1        -0.1684
       5    H3      22.755359   18.444003   23.932978 H          1 MOL1         0.0833
       6    H4      21.357733   18.757291   24.934435 H          1 MOL1         0.0833
       7    C3      20.944485   17.632030   23.117411 C.3        1 MOL1        -0.1684
       8    H5      21.189306   16.672310   23.592614 H          1 MOL1         0.0833
       9    H6      21.370560   17.536487   22.113738 H          1 MOL1         0.0833
      10    C4      19.391122   17.729717   23.053832 C.3        1 MOL1        -0.1760
      11    H7      19.032184   17.128615   22.208130 H          1 MOL1         0.0833
      12    H8      19.001320   17.237594   23.954461 H          1 MOL1         0.0833
      13    C5      18.746722   19.137411   22.984268 C.3        1 MOL1         0.1219
      14    H9      19.079356   19.706333   23.858624 H          1 MOL1         0.0790
      15    C6      19.005033   19.967868   21.694226 C.3        1 MOL1        -0.1760
      16    H10     18.250541   19.679469   20.949993 H          1 MOL1         0.0833
      17    H11     18.808698   21.023848   21.919278 H          1 MOL1         0.0833
      18    C7      20.389610   19.849140   21.001503 C.3        1 MOL1        -0.1684
      19    H12     20.340492   20.417201   20.062563 H          1 MOL1         0.0833
      20    H13     20.540006   18.817378   20.668457 H          1 MOL1         0.0833
      21    C8      21.632430   20.365252   21.784148 C.3        1 MOL1        -0.1684
      22    H14     21.726295   21.440520   21.579559 H          1 MOL1         0.0833
      23    H15     22.535441   19.906997   21.358686 H          1 MOL1         0.0833
      24    O1      17.339044   18.966740   23.102291 O.3        1 MOL1        -0.5508
      25    H16     17.180602   18.500327   23.949292 H          1 MOL1         0.3780
@<TRIPOS>BOND
    1     1     2    1
    2     1     3    1
    3     1     4    1
    4     4     5    1
    5     4     6    1
    6     4     7    1
    7     7     8    1
    8     7     9    1
    9     7    10    1
   10    10    11    1
   11    10    12    1
   12    10    13    1
   13    13    14    1
   14    13    15    1
   15    15    16    1
   16    15    17    1
   17    15    18    1
   18    18    19    1
   19    18    20    1
   20     1    21    1
   21    18    21    1
   22    21    22    1
   23    21    23    1
   24    13    24    1
   25    24    25    1
@<TRIPOS>SUBSTRUCTURE
       1 MOL1            1 RESIDUE      1      MOL     
@<SCITEGIC>MOL_PROPERTY
VConf Rank
SciTegic.value.IntegerValue
35

@<SCITEGIC>MOL_PROPERTY
Conf_Id
SciTegic.value.IntegerValue
161

@<SCITEGIC>MOL_PROPERTY
Delta U+W
SciTegic.value.DoubleValue
2.120

@<SCITEGIC>MOL_PROPERTY
U+W
SciTegic.value.DoubleValue
13.033

@<SCITEGIC>MOL_PROPERTY
Grad RMS
SciTegic.value.DoubleValue
0.000000

@<SCITEGIC>MOL_PROPERTY
U
SciTegic.value.DoubleValue
15.076

@<SCITEGIC>MOL_PROPERTY
W
SciTegic.value.DoubleValue
-2.043

@<SCITEGIC>MOL_PROPERTY
W(PB)
SciTegic.value.DoubleValue
-4.186

@<SCITEGIC>MOL_PROPERTY
W(SA)
SciTegic.value.DoubleValue
2.143

@<SCITEGIC>MOL_PROPERTY
Valence
SciTegic.value.DoubleValue
18.884

@<SCITEGIC>MOL_PROPERTY
Coulomb
SciTegic.value.DoubleValue
-8.074

@<SCITEGIC>MOL_PROPERTY
VdW
SciTegic.value.DoubleValue
4.266

@<SCITEGIC>MOL_PROPERTY
VdW6
SciTegic.value.DoubleValue
-13.486

@<SCITEGIC>MOL_PROPERTY
VdW12
SciTegic.value.DoubleValue
17.752

@<SCITEGIC>MOL_PROPERTY
Bond
SciTegic.value.DoubleValue
0.713

@<SCITEGIC>MOL_PROPERTY
Angle
SciTegic.value.DoubleValue
8.955

@<SCITEGIC>MOL_PROPERTY
Pdih
SciTegic.value.DoubleValue
9.215

@<SCITEGIC>MOL_PROPERTY
Idih
SciTegic.value.DoubleValue
0.000

@<SCITEGIC>MOL_PROPERTY
Tether
SciTegic.value.DoubleValue
0.000

@<TRIPOS>MOLECULE
guest-s17_confgen4.mol2 : confsearch ligand conformer 36
          25          25           1
SMALL
USER_CHARGES
 
@<TRIPOS>ATOM
       1    C1      22.170202   18.595485   22.948566 C.3        1 MOL1        -0.1684
       2    H1      23.093430   18.016090   23.086191 H          1 MOL1         0.0833
       3    H2      22.421031   19.606797   23.292904 H          1 MOL1         0.0833
       4    C2      21.079602   17.981655   23.861517 C.3        1 MOL1        -0.1684
       5    H3      20.564801   17.155296   23.353286 H          1 MOL1         0.0833
       6    H4      21.599582   17.520135   24.712276 H          1 MOL1         0.0833
       7    C3      20.063555   18.997924   24.453275 C.3        1 MOL1        -0.1684
       8    H5      20.554796   19.946412   24.708889 H          1 MOL1         0.0833
       9    H6      19.719976   18.581994   25.410436 H          1 MOL1         0.0833
      10    C4      18.798084   19.247162   23.592499 C.3        1 MOL1        -0.1760
      11    H7      18.513272   18.323906   23.073415 H          1 MOL1         0.0833
      12    H8      17.965038   19.455327   24.276850 H          1 MOL1         0.0833
      13    C5      18.865109   20.439977   22.605315 C.3        1 MOL1         0.1219
      14    H9      18.855046   21.367467   23.195598 H          1 MOL1         0.0790
      15    C6      20.099784   20.495779   21.676150 C.3        1 MOL1        -0.1760
      16    H10     19.906722   21.239650   20.891633 H          1 MOL1         0.0833
      17    H11     20.948244   20.903874   22.235915 H          1 MOL1         0.0833
      18    C7      20.475263   19.147136   21.005771 C.3        1 MOL1        -0.1684
      19    H12     20.479345   19.283473   19.915760 H          1 MOL1         0.0833
      20    H13     19.710230   18.384630   21.191268 H          1 MOL1         0.0833
      21    C8      21.858530   18.597106   21.428527 C.3        1 MOL1        -0.1684
      22    H14     22.639723   19.178441   20.920002 H          1 MOL1         0.0833
      23    H15     21.952542   17.571708   21.045774 H          1 MOL1         0.0833
      24    O1      17.700380   20.402334   21.792692 O.3        1 MOL1        -0.5508
      25    H16     17.818658   19.640298   21.190097 H          1 MOL1         0.3780
@<TRIPOS>BOND
    1     1     2    1
    2     1     3    1
    3     1     4    1
    4     4     5    1
    5     4     6    1
    6     4     7    1
    7     7     8    1
    8     7     9    1
    9     7    10    1
   10    10    11    1
   11    10    12    1
   12    10    13    1
   13    13    14    1
   14    13    15    1
   15    15    16    1
   16    15    17    1
   17    15    18    1
   18    18    19    1
   19    18    20    1
   20     1    21    1
   21    18    21    1
   22    21    22    1
   23    21    23    1
   24    13    24    1
   25    24    25    1
@<TRIPOS>SUBSTRUCTURE
       1 MOL1            1 RESIDUE      1      MOL     
@<SCITEGIC>MOL_PROPERTY
VConf Rank
SciTegic.value.IntegerValue
36

@<SCITEGIC>MOL_PROPERTY
Conf_Id
SciTegic.value.IntegerValue
164

@<SCITEGIC>MOL_PROPERTY
Delta U+W
SciTegic.value.DoubleValue
0.008

@<SCITEGIC>MOL_PROPERTY
U+W
SciTegic.value.DoubleValue
10.922

@<SCITEGIC>MOL_PROPERTY
Grad RMS
SciTegic.value.DoubleValue
0.000000

@<SCITEGIC>MOL_PROPERTY
U
SciTegic.value.DoubleValue
12.433

@<SCITEGIC>MOL_PROPERTY
W
SciTegic.value.DoubleValue
-1.511

@<SCITEGIC>MOL_PROPERTY
W(PB)
SciTegic.value.DoubleValue
-3.669

@<SCITEGIC>MOL_PROPERTY
W(SA)
SciTegic.value.DoubleValue
2.157

@<SCITEGIC>MOL_PROPERTY
Valence
SciTegic.value.DoubleValue
19.007

@<SCITEGIC>MOL_PROPERTY
Coulomb
SciTegic.value.DoubleValue
-9.373

@<SCITEGIC>MOL_PROPERTY
VdW
SciTegic.value.DoubleValue
2.799

@<SCITEGIC>MOL_PROPERTY
VdW6
SciTegic.value.DoubleValue
-12.597

@<SCITEGIC>MOL_PROPERTY
VdW12
SciTegic.value.DoubleValue
15.396

@<SCITEGIC>MOL_PROPERTY
Bond
SciTegic.value.DoubleValue
0.425

@<SCITEGIC>MOL_PROPERTY
Angle
SciTegic.value.DoubleValue
4.784

@<SCITEGIC>MOL_PROPERTY
Pdih
SciTegic.value.DoubleValue
13.799

@<SCITEGIC>MOL_PROPERTY
Idih
SciTegic.value.DoubleValue
0.000

@<SCITEGIC>MOL_PROPERTY
Tether
SciTegic.value.DoubleValue
0.000

@<TRIPOS>MOLECULE
guest-s17_confgen4.mol2 : confsearch ligand conformer 37
          25          25           1
SMALL
USER_CHARGES
 
@<TRIPOS>ATOM
       1    C1      19.689658   19.629739   24.293871 C.3        1 MOL1        -0.1684
       2    H1      20.762441   19.850979   24.327189 H          1 MOL1         0.0833
       3    H2      19.323591   19.885179   25.297573 H          1 MOL1         0.0833
       4    C2      19.456754   18.111585   24.092164 C.3        1 MOL1        -0.1684
       5    H3      19.923845   17.591788   24.939831 H          1 MOL1         0.0833
       6    H4      18.382317   17.896149   24.167515 H          1 MOL1         0.0833
       7    C3      20.006212   17.479357   22.787885 C.3        1 MOL1        -0.1684
       8    H5      19.302464   17.629195   21.961235 H          1 MOL1         0.0833
       9    H6      20.025287   16.391252   22.938442 H          1 MOL1         0.0833
      10    C4      21.431721   17.937055   22.378965 C.3        1 MOL1        -0.1760
      11    H7      21.997370   18.286022   23.251343 H          1 MOL1         0.0833
      12    H8      21.969284   17.048783   22.020865 H          1 MOL1         0.0833
      13    C5      21.477966   18.984138   21.237934 C.3        1 MOL1         0.1219
      14    H9      20.895505   18.593850   20.391166 H          1 MOL1         0.0790
      15    C6      20.948630   20.400512   21.575818 C.3        1 MOL1        -0.1760
      16    H10     21.498398   20.830508   22.421772 H          1 MOL1         0.0833
      17    H11     21.185733   21.044343   20.718204 H          1 MOL1         0.0833
      18    C7      19.416409   20.486992   21.807340 C.3        1 MOL1        -0.1684
      19    H12     18.903605   19.663094   21.298136 H          1 MOL1         0.0833
      20    H13     19.044592   21.392236   21.308050 H          1 MOL1         0.0833
      21    C8      18.974794   20.569288   23.290907 C.3        1 MOL1        -0.1684
      22    H14     17.890317   20.405048   23.349569 H          1 MOL1         0.0833
      23    H15     19.137732   21.600490   23.632923 H          1 MOL1         0.0833
      24    O1      22.832530   19.116611   20.829516 O.3        1 MOL1        -0.5508
      25    H16     23.321486   19.464613   21.603210 H          1 MOL1         0.3780
@<TRIPOS>BOND
    1     1     2    1
    2     1     3    1
    3     1     4    1
    4     4     5    1
    5     4     6    1
    6     4     7    1
    7     7     8    1
    8     7     9    1
    9     7    10    1
   10    10    11    1
   11    10    12    1
   12    10    13    1
   13    13    14    1
   14    13    15    1
   15    15    16    1
   16    15    17    1
   17    15    18    1
   18    18    19    1
   19    18    20    1
   20     1    21    1
   21    18    21    1
   22    21    22    1
   23    21    23    1
   24    13    24    1
   25    24    25    1
@<TRIPOS>SUBSTRUCTURE
       1 MOL1            1 RESIDUE      1      MOL     
@<SCITEGIC>MOL_PROPERTY
VConf Rank
SciTegic.value.IntegerValue
37

@<SCITEGIC>MOL_PROPERTY
Conf_Id
SciTegic.value.IntegerValue
15

@<SCITEGIC>MOL_PROPERTY
Delta U+W
SciTegic.value.DoubleValue
-1.271

@<SCITEGIC>MOL_PROPERTY
U+W
SciTegic.value.DoubleValue
9.643

@<SCITEGIC>MOL_PROPERTY
Grad RMS
SciTegic.value.DoubleValue
0.000000

@<SCITEGIC>MOL_PROPERTY
U
SciTegic.value.DoubleValue
11.413

@<SCITEGIC>MOL_PROPERTY
W
SciTegic.value.DoubleValue
-1.770

@<SCITEGIC>MOL_PROPERTY
W(PB)
SciTegic.value.DoubleValue
-3.908

@<SCITEGIC>MOL_PROPERTY
W(SA)
SciTegic.value.DoubleValue
2.138

@<SCITEGIC>MOL_PROPERTY
Valence
SciTegic.value.DoubleValue
17.496

@<SCITEGIC>MOL_PROPERTY
Coulomb
SciTegic.value.DoubleValue
-8.736

@<SCITEGIC>MOL_PROPERTY
VdW
SciTegic.value.DoubleValue
2.653

@<SCITEGIC>MOL_PROPERTY
VdW6
SciTegic.value.DoubleValue
-12.485

@<SCITEGIC>MOL_PROPERTY
VdW12
SciTegic.value.DoubleValue
15.138

@<SCITEGIC>MOL_PROPERTY
Bond
SciTegic.value.DoubleValue
0.414

@<SCITEGIC>MOL_PROPERTY
Angle
SciTegic.value.DoubleValue
5.295

@<SCITEGIC>MOL_PROPERTY
Pdih
SciTegic.value.DoubleValue
11.787

@<SCITEGIC>MOL_PROPERTY
Idih
SciTegic.value.DoubleValue
0.000

@<SCITEGIC>MOL_PROPERTY
Tether
SciTegic.value.DoubleValue
0.000

@<TRIPOS>MOLECULE
guest-s17_confgen4.mol2 : confsearch ligand conformer 38
          25          25           1
SMALL
USER_CHARGES
 
@<TRIPOS>ATOM
       1    C1      19.419824   20.785449   23.272222 C.3        1 MOL1        -0.1684
       2    H1      18.733486   21.601759   23.535963 H          1 MOL1         0.0833
       3    H2      20.413832   21.250052   23.256220 H          1 MOL1         0.0833
       4    C2      19.326964   19.731210   24.406587 C.3        1 MOL1        -0.1684
       5    H3      19.738055   20.178361   25.321947 H          1 MOL1         0.0833
       6    H4      18.268098   19.532346   24.621131 H          1 MOL1         0.0833
       7    C3      20.033724   18.377375   24.155683 C.3        1 MOL1        -0.1684
       8    H5      19.411861   17.754555   23.502114 H          1 MOL1         0.0833
       9    H6      20.073205   17.831806   25.108354 H          1 MOL1         0.0833
      10    C4      21.474372   18.508305   23.596358 C.3        1 MOL1        -0.1760
      11    H7      21.810643   19.550731   23.622063 H          1 MOL1         0.0833
      12    H8      22.157795   17.974770   24.269760 H          1 MOL1         0.0833
      13    C5      21.667085   17.923753   22.178110 C.3        1 MOL1         0.1219
      14    H9      21.660527   16.827878   22.266673 H          1 MOL1         0.0790
      15    C6      20.597468   18.302269   21.121169 C.3        1 MOL1        -0.1760
      16    H10     20.970580   17.953878   20.148675 H          1 MOL1         0.0833
      17    H11     19.683203   17.720075   21.287550 H          1 MOL1         0.0833
      18    C7      20.242810   19.807364   20.987203 C.3        1 MOL1        -0.1684
      19    H12     19.959828   19.973505   19.938652 H          1 MOL1         0.0833
      20    H13     21.125282   20.439147   21.151235 H          1 MOL1         0.0833
      21    C8      19.046061   20.285892   21.854718 C.3        1 MOL1        -0.1684
      22    H14     18.260385   19.520151   21.905115 H          1 MOL1         0.0833
      23    H15     18.590399   21.135246   21.327323 H          1 MOL1         0.0833
      24    O1      22.939651   18.334517   21.698260 O.3        1 MOL1        -0.5508
      25    H16     22.869499   19.298154   21.544551 H          1 MOL1         0.3780
@<TRIPOS>BOND
    1     1     2    1
    2     1     3    1
    3     1     4    1
    4     4     5    1
    5     4     6    1
    6     4     7    1
    7     7     8    1
    8     7     9    1
    9     7    10    1
   10    10    11    1
   11    10    12    1
   12    10    13    1
   13    13    14    1
   14    13    15    1
   15    15    16    1
   16    15    17    1
   17    15    18    1
   18    18    19    1
   19    18    20    1
   20     1    21    1
   21    18    21    1
   22    21    22    1
   23    21    23    1
   24    13    24    1
   25    24    25    1
@<TRIPOS>SUBSTRUCTURE
       1 MOL1            1 RESIDUE      1      MOL     
@<SCITEGIC>MOL_PROPERTY
VConf Rank
SciTegic.value.IntegerValue
38

@<SCITEGIC>MOL_PROPERTY
Conf_Id
SciTegic.value.IntegerValue
115

@<SCITEGIC>MOL_PROPERTY
Delta U+W
SciTegic.value.DoubleValue
0.038

@<SCITEGIC>MOL_PROPERTY
U+W
SciTegic.value.DoubleValue
10.952

@<SCITEGIC>MOL_PROPERTY
Grad RMS
SciTegic.value.DoubleValue
0.000000

@<SCITEGIC>MOL_PROPERTY
U
SciTegic.value.DoubleValue
12.526

@<SCITEGIC>MOL_PROPERTY
W
SciTegic.value.DoubleValue
-1.575

@<SCITEGIC>MOL_PROPERTY
W(PB)
SciTegic.value.DoubleValue
-3.698

@<SCITEGIC>MOL_PROPERTY
W(SA)
SciTegic.value.DoubleValue
2.123

@<SCITEGIC>MOL_PROPERTY
Valence
SciTegic.value.DoubleValue
19.016

@<SCITEGIC>MOL_PROPERTY
Coulomb
SciTegic.value.DoubleValue
-9.226

@<SCITEGIC>MOL_PROPERTY
VdW
SciTegic.value.DoubleValue
2.737

@<SCITEGIC>MOL_PROPERTY
VdW6
SciTegic.value.DoubleValue
-12.612

@<SCITEGIC>MOL_PROPERTY
VdW12
SciTegic.value.DoubleValue
15.349

@<SCITEGIC>MOL_PROPERTY
Bond
SciTegic.value.DoubleValue
0.421

@<SCITEGIC>MOL_PROPERTY
Angle
SciTegic.value.DoubleValue
4.883

@<SCITEGIC>MOL_PROPERTY
Pdih
SciTegic.value.DoubleValue
13.711

@<SCITEGIC>MOL_PROPERTY
Idih
SciTegic.value.DoubleValue
0.000

@<SCITEGIC>MOL_PROPERTY
Tether
SciTegic.value.DoubleValue
0.000

@<TRIPOS>MOLECULE
guest-s17_confgen4.mol2 : confsearch ligand conformer 39
          25          25           1
SMALL
USER_CHARGES
 
@<TRIPOS>ATOM
       1    C1      22.444876   19.037073   22.388759 C.3        1 MOL1        -0.1684
       2    H1      23.442363   19.395811   22.100118 H          1 MOL1         0.0833
       3    H2      22.616212   18.100140   22.935822 H          1 MOL1         0.0833
       4    C2      21.661767   18.755344   21.085338 C.3        1 MOL1        -0.1684
       5    H3      21.596570   19.669291   20.479495 H          1 MOL1         0.0833
       6    H4      22.257250   18.049144   20.490628 H          1 MOL1         0.0833
       7    C3      20.255355   18.143765   21.282489 C.3        1 MOL1        -0.1684
       8    H5      20.279489   17.377715   22.068977 H          1 MOL1         0.0833
       9    H6      19.998692   17.605730   20.359556 H          1 MOL1         0.0833
      10    C4      19.135296   19.187273   21.540369 C.3        1 MOL1        -0.1760
      11    H7      19.476171   20.203876   21.307706 H          1 MOL1         0.0833
      12    H8      18.325093   18.980572   20.828045 H          1 MOL1         0.0833
      13    C5      18.537160   19.143775   22.964552 C.3        1 MOL1         0.1219
      14    H9      18.503804   18.098855   23.304700 H          1 MOL1         0.0790
      15    C6      19.299903   19.987718   24.009739 C.3        1 MOL1        -0.1760
      16    H10     19.289637   21.045761   23.716430 H          1 MOL1         0.0833
      17    H11     18.738995   19.933585   24.952005 H          1 MOL1         0.0833
      18    C7      20.749576   19.530342   24.302867 C.3        1 MOL1        -0.1684
      19    H12     20.800665   18.434938   24.362108 H          1 MOL1         0.0833
      20    H13     21.007912   19.888079   25.309105 H          1 MOL1         0.0833
      21    C8      21.812151   20.094447   23.323722 C.3        1 MOL1        -0.1684
      22    H14     22.623222   20.521139   23.929776 H          1 MOL1         0.0833
      23    H15     21.414574   20.934410   22.738725 H          1 MOL1         0.0833
      24    O1      17.207389   19.644830   22.898955 O.3        1 MOL1        -0.5508
      25    H16     16.827718   19.559145   23.798312 H          1 MOL1         0.3780
@<TRIPOS>BOND
    1     1     2    1
    2     1     3    1
    3     1     4    1
    4     4     5    1
    5     4     6    1
    6     4     7    1
    7     7     8    1
    8     7     9    1
    9     7    10    1
   10    10    11    1
   11    10    12    1
   12    10    13    1
   13    13    14    1
   14    13    15    1
   15    15    16    1
   16    15    17    1
   17    15    18    1
   18    18    19    1
   19    18    20    1
   20     1    21    1
   21    18    21    1
   22    21    22    1
   23    21    23    1
   24    13    24    1
   25    24    25    1
@<TRIPOS>SUBSTRUCTURE
       1 MOL1            1 RESIDUE      1      MOL     
@<SCITEGIC>MOL_PROPERTY
VConf Rank
SciTegic.value.IntegerValue
39

@<SCITEGIC>MOL_PROPERTY
Conf_Id
SciTegic.value.IntegerValue
30

@<SCITEGIC>MOL_PROPERTY
Delta U+W
SciTegic.value.DoubleValue
0.000

@<SCITEGIC>MOL_PROPERTY
U+W
SciTegic.value.DoubleValue
10.913

@<SCITEGIC>MOL_PROPERTY
Grad RMS
SciTegic.value.DoubleValue
0.000000

@<SCITEGIC>MOL_PROPERTY
U
SciTegic.value.DoubleValue
13.140

@<SCITEGIC>MOL_PROPERTY
W
SciTegic.value.DoubleValue
-2.227

@<SCITEGIC>MOL_PROPERTY
W(PB)
SciTegic.value.DoubleValue
-4.367

@<SCITEGIC>MOL_PROPERTY
W(SA)
SciTegic.value.DoubleValue
2.140

@<SCITEGIC>MOL_PROPERTY
Valence
SciTegic.value.DoubleValue
19.155

@<SCITEGIC>MOL_PROPERTY
Coulomb
SciTegic.value.DoubleValue
-8.157

@<SCITEGIC>MOL_PROPERTY
VdW
SciTegic.value.DoubleValue
2.142

@<SCITEGIC>MOL_PROPERTY
VdW6
SciTegic.value.DoubleValue
-11.576

@<SCITEGIC>MOL_PROPERTY
VdW12
SciTegic.value.DoubleValue
13.718

@<SCITEGIC>MOL_PROPERTY
Bond
SciTegic.value.DoubleValue
0.294

@<SCITEGIC>MOL_PROPERTY
Angle
SciTegic.value.DoubleValue
3.547

@<SCITEGIC>MOL_PROPERTY
Pdih
SciTegic.value.DoubleValue
15.314

@<SCITEGIC>MOL_PROPERTY
Idih
SciTegic.value.DoubleValue
0.000

@<SCITEGIC>MOL_PROPERTY
Tether
SciTegic.value.DoubleValue
0.000

@<TRIPOS>MOLECULE
guest-s17_confgen4.mol2 : confsearch ligand conformer 40
          25          25           1
SMALL
USER_CHARGES
 
@<TRIPOS>ATOM
       1    C1      19.671748   17.468743   23.664822 C.3        1 MOL1        -0.1684
       2    H1      20.177542   16.782541   24.357755 H          1 MOL1         0.0833
       3    H2      18.679742   17.032014   23.486038 H          1 MOL1         0.0833
       4    C2      20.447879   17.473860   22.324792 C.3        1 MOL1        -0.1684
       5    H3      20.701240   16.434100   22.076643 H          1 MOL1         0.0833
       6    H4      19.783100   17.797331   21.515477 H          1 MOL1         0.0833
       7    C3      21.752578   18.310052   22.343307 C.3        1 MOL1        -0.1684
       8    H5      22.588933   17.665651   22.040083 H          1 MOL1         0.0833
       9    H6      22.000846   18.629460   23.362119 H          1 MOL1         0.0833
      10    C4      21.728326   19.540388   21.401372 C.3        1 MOL1        -0.1760
      11    H7      22.604407   20.164128   21.623163 H          1 MOL1         0.0833
      12    H8      21.861171   19.190340   20.369392 H          1 MOL1         0.0833
      13    C5      20.456579   20.424432   21.437461 C.3        1 MOL1         0.1219
      14    H9      19.624505   19.879990   20.971390 H          1 MOL1         0.0790
      15    C6      20.016913   20.886505   22.848304 C.3        1 MOL1        -0.1760
      16    H10     20.891694   21.006865   23.500090 H          1 MOL1         0.0833
      17    H11     19.581952   21.890853   22.758362 H          1 MOL1         0.0833
      18    C7      18.940125   19.992009   23.525174 C.3        1 MOL1        -0.1684
      19    H12     18.214240   19.618295   22.790429 H          1 MOL1         0.0833
      20    H13     18.364299   20.641037   24.199284 H          1 MOL1         0.0833
      21    C8      19.497338   18.831603   24.386437 C.3        1 MOL1        -0.1684
      22    H14     18.800411   18.665079   25.219281 H          1 MOL1         0.0833
      23    H15     20.435969   19.137743   24.865582 H          1 MOL1         0.0833
      24    O1      20.724983   21.578625   20.650049 O.3        1 MOL1        -0.5508
      25    H16     19.892115   22.093657   20.610970 H          1 MOL1         0.3780
@<TRIPOS>BOND
    1     1     2    1
    2     1     3    1
    3     1     4    1
    4     4     5    1
    5     4     6    1
    6     4     7    1
    7     7     8    1
    8     7     9    1
    9     7    10    1
   10    10    11    1
   11    10    12    1
   12    10    13    1
   13    13    14    1
   14    13    15    1
   15    15    16    1
   16    15    17    1
   17    15    18    1
   18    18    19    1
   19    18    20    1
   20     1    21    1
   21    18    21    1
   22    21    22    1
   23    21    23    1
   24    13    24    1
   25    24    25    1
@<TRIPOS>SUBSTRUCTURE
       1 MOL1            1 RESIDUE      1      MOL     
@<SCITEGIC>MOL_PROPERTY
VConf Rank
SciTegic.value.IntegerValue
40

@<SCITEGIC>MOL_PROPERTY
Conf_Id
SciTegic.value.IntegerValue
162

@<SCITEGIC>MOL_PROPERTY
Delta U+W
SciTegic.value.DoubleValue
0.219

@<SCITEGIC>MOL_PROPERTY
U+W
SciTegic.value.DoubleValue
11.132

@<SCITEGIC>MOL_PROPERTY
Grad RMS
SciTegic.value.DoubleValue
0.000000

@<SCITEGIC>MOL_PROPERTY
U
SciTegic.value.DoubleValue
13.296

@<SCITEGIC>MOL_PROPERTY
W
SciTegic.value.DoubleValue
-2.164

@<SCITEGIC>MOL_PROPERTY
W(PB)
SciTegic.value.DoubleValue
-4.311

@<SCITEGIC>MOL_PROPERTY
W(SA)
SciTegic.value.DoubleValue
2.148

@<SCITEGIC>MOL_PROPERTY
Valence
SciTegic.value.DoubleValue
18.607

@<SCITEGIC>MOL_PROPERTY
Coulomb
SciTegic.value.DoubleValue
-8.339

@<SCITEGIC>MOL_PROPERTY
VdW
SciTegic.value.DoubleValue
3.028

@<SCITEGIC>MOL_PROPERTY
VdW6
SciTegic.value.DoubleValue
-12.271

@<SCITEGIC>MOL_PROPERTY
VdW12
SciTegic.value.DoubleValue
15.299

@<SCITEGIC>MOL_PROPERTY
Bond
SciTegic.value.DoubleValue
0.423

@<SCITEGIC>MOL_PROPERTY
Angle
SciTegic.value.DoubleValue
4.488

@<SCITEGIC>MOL_PROPERTY
Pdih
SciTegic.value.DoubleValue
13.696

@<SCITEGIC>MOL_PROPERTY
Idih
SciTegic.value.DoubleValue
0.000

@<SCITEGIC>MOL_PROPERTY
Tether
SciTegic.value.DoubleValue
0.000

@<TRIPOS>MOLECULE
guest-s17_confgen4.mol2 : confsearch ligand conformer 41
          25          25           1
SMALL
USER_CHARGES
 
@<TRIPOS>ATOM
       1    C1      18.459739   19.844797   22.904449 C.3        1 MOL1        -0.1684
       2    H1      18.853885   20.694717   23.475833 H          1 MOL1         0.0833
       3    H2      17.374559   20.012012   22.867185 H          1 MOL1         0.0833
       4    C2      19.000109   19.887305   21.453279 C.3        1 MOL1        -0.1684
       5    H3      18.922300   18.899645   20.979247 H          1 MOL1         0.0833
       6    H4      18.324861   20.538223   20.881016 H          1 MOL1         0.0833
       7    C3      20.430700   20.474200   21.296675 C.3        1 MOL1        -0.1684
       8    H5      20.596909   21.306146   21.994104 H          1 MOL1         0.0833
       9    H6      20.482203   20.921081   20.294289 H          1 MOL1         0.0833
      10    C4      21.583286   19.440428   21.386381 C.3        1 MOL1        -0.1760
      11    H7      21.258949   18.480801   20.965410 H          1 MOL1         0.0833
      12    H8      22.390907   19.780505   20.725087 H          1 MOL1         0.0833
      13    C5      22.216143   19.235203   22.785917 C.3        1 MOL1         0.1219
      14    H9      22.789295   20.140719   23.032146 H          1 MOL1         0.0790
      15    C6      21.231699   18.982743   23.952616 C.3        1 MOL1        -0.1760
      16    H10     21.804581   18.647802   24.827042 H          1 MOL1         0.0833
      17    H11     20.795213   19.938232   24.262612 H          1 MOL1         0.0833
      18    C7      20.123253   17.939073   23.653326 C.3        1 MOL1        -0.1684
      19    H12     20.182111   17.137003   24.401376 H          1 MOL1         0.0833
      20    H13     20.304399   17.439719   22.694190 H          1 MOL1         0.0833
      21    C8      18.687212   18.516277   23.673467 C.3        1 MOL1        -0.1684
      22    H14     18.384165   18.670253   24.718068 H          1 MOL1         0.0833
      23    H15     18.004945   17.753611   23.274011 H          1 MOL1         0.0833
      24    O1      23.110469   18.132001   22.700905 O.3        1 MOL1        -0.5508
      25    H16     23.498816   18.014823   23.592294 H          1 MOL1         0.3780
@<TRIPOS>BOND
    1     1     2    1
    2     1     3    1
    3     1     4    1
    4     4     5    1
    5     4     6    1
    6     4     7    1
    7     7     8    1
    8     7     9    1
    9     7    10    1
   10    10    11    1
   11    10    12    1
   12    10    13    1
   13    13    14    1
   14    13    15    1
   15    15    16    1
   16    15    17    1
   17    15    18    1
   18    18    19    1
   19    18    20    1
   20     1    21    1
   21    18    21    1
   22    21    22    1
   23    21    23    1
   24    13    24    1
   25    24    25    1
@<TRIPOS>SUBSTRUCTURE
       1 MOL1            1 RESIDUE      1      MOL     
@<SCITEGIC>MOL_PROPERTY
VConf Rank
SciTegic.value.IntegerValue
41

@<SCITEGIC>MOL_PROPERTY
Conf_Id
SciTegic.value.IntegerValue
155

@<SCITEGIC>MOL_PROPERTY
Delta U+W
SciTegic.value.DoubleValue
0.339

@<SCITEGIC>MOL_PROPERTY
U+W
SciTegic.value.DoubleValue
11.252

@<SCITEGIC>MOL_PROPERTY
Grad RMS
SciTegic.value.DoubleValue
0.000000

@<SCITEGIC>MOL_PROPERTY
U
SciTegic.value.DoubleValue
13.420

@<SCITEGIC>MOL_PROPERTY
W
SciTegic.value.DoubleValue
-2.167

@<SCITEGIC>MOL_PROPERTY
W(PB)
SciTegic.value.DoubleValue
-4.325

@<SCITEGIC>MOL_PROPERTY
W(SA)
SciTegic.value.DoubleValue
2.157

@<SCITEGIC>MOL_PROPERTY
Valence
SciTegic.value.DoubleValue
18.609

@<SCITEGIC>MOL_PROPERTY
Coulomb
SciTegic.value.DoubleValue
-8.052

@<SCITEGIC>MOL_PROPERTY
VdW
SciTegic.value.DoubleValue
2.863

@<SCITEGIC>MOL_PROPERTY
VdW6
SciTegic.value.DoubleValue
-12.524

@<SCITEGIC>MOL_PROPERTY
VdW12
SciTegic.value.DoubleValue
15.387

@<SCITEGIC>MOL_PROPERTY
Bond
SciTegic.value.DoubleValue
0.430

@<SCITEGIC>MOL_PROPERTY
Angle
SciTegic.value.DoubleValue
4.724

@<SCITEGIC>MOL_PROPERTY
Pdih
SciTegic.value.DoubleValue
13.455

@<SCITEGIC>MOL_PROPERTY
Idih
SciTegic.value.DoubleValue
0.000

@<SCITEGIC>MOL_PROPERTY
Tether
SciTegic.value.DoubleValue
0.000

@<TRIPOS>MOLECULE
guest-s17_confgen4.mol2 : confsearch ligand conformer 42
          25          25           1
SMALL
USER_CHARGES
 
@<TRIPOS>ATOM
       1    C1      18.820035   17.944416   22.905660 C.3        1 MOL1        -0.1684
       2    H1      19.009107   17.131047   23.619117 H          1 MOL1         0.0833
       3    H2      17.793166   17.787081   22.548491 H          1 MOL1         0.0833
       4    C2      18.831997   19.299610   23.660727 C.3        1 MOL1        -0.1684
       5    H3      18.528913   20.097788   22.975750 H          1 MOL1         0.0833
       6    H4      18.020495   19.274335   24.400686 H          1 MOL1         0.0833
       7    C3      20.132939   19.688021   24.422240 C.3        1 MOL1        -0.1684
       8    H5      20.077084   19.234810   25.421256 H          1 MOL1         0.0833
       9    H6      20.135620   20.773355   24.591834 H          1 MOL1         0.0833
      10    C4      21.495503   19.266026   23.808038 C.3        1 MOL1        -0.1760
      11    H7      22.274027   19.498103   24.546508 H          1 MOL1         0.0833
      12    H8      21.536147   18.175461   23.738975 H          1 MOL1         0.0833
      13    C5      21.916574   19.909121   22.453994 C.3        1 MOL1         0.1219
      14    H9      22.638157   19.233670   21.972484 H          1 MOL1         0.0790
      15    C6      20.799228   20.222068   21.427279 C.3        1 MOL1        -0.1760
      16    H10     20.103237   20.943254   21.865466 H          1 MOL1         0.0833
      17    H11     21.258786   20.776576   20.598454 H          1 MOL1         0.0833
      18    C7      20.030431   19.021332   20.798399 C.3        1 MOL1        -0.1684
      19    H12     20.607492   18.681231   19.927670 H          1 MOL1         0.0833
      20    H13     19.076051   19.383836   20.393341 H          1 MOL1         0.0833
      21    C8      19.768498   17.773992   21.682832 C.3        1 MOL1        -0.1684
      22    H14     20.724754   17.338585   21.989379 H          1 MOL1         0.0833
      23    H15     19.328864   16.998973   21.040223 H          1 MOL1         0.0833
      24    O1      22.571581   21.139913   22.740875 O.3        1 MOL1        -0.5508
      25    H16     23.310041   20.932268   23.349810 H          1 MOL1         0.3780
@<TRIPOS>BOND
    1     1     2    1
    2     1     3    1
    3     1     4    1
    4     4     5    1
    5     4     6    1
    6     4     7    1
    7     7     8    1
    8     7     9    1
    9     7    10    1
   10    10    11    1
   11    10    12    1
   12    10    13    1
   13    13    14    1
   14    13    15    1
   15    15    16    1
   16    15    17    1
   17    15    18    1
   18    18    19    1
   19    18    20    1
   20     1    21    1
   21    18    21    1
   22    21    22    1
   23    21    23    1
   24    13    24    1
   25    24    25    1
@<TRIPOS>SUBSTRUCTURE
       1 MOL1            1 RESIDUE      1      MOL     
@<SCITEGIC>MOL_PROPERTY
VConf Rank
SciTegic.value.IntegerValue
42

@<SCITEGIC>MOL_PROPERTY
Conf_Id
SciTegic.value.IntegerValue
146

@<SCITEGIC>MOL_PROPERTY
Delta U+W
SciTegic.value.DoubleValue
2.553

@<SCITEGIC>MOL_PROPERTY
U+W
SciTegic.value.DoubleValue
13.466

@<SCITEGIC>MOL_PROPERTY
Grad RMS
SciTegic.value.DoubleValue
0.000000

@<SCITEGIC>MOL_PROPERTY
U
SciTegic.value.DoubleValue
15.643

@<SCITEGIC>MOL_PROPERTY
W
SciTegic.value.DoubleValue
-2.176

@<SCITEGIC>MOL_PROPERTY
W(PB)
SciTegic.value.DoubleValue
-4.307

@<SCITEGIC>MOL_PROPERTY
W(SA)
SciTegic.value.DoubleValue
2.131

@<SCITEGIC>MOL_PROPERTY
Valence
SciTegic.value.DoubleValue
18.916

@<SCITEGIC>MOL_PROPERTY
Coulomb
SciTegic.value.DoubleValue
-7.506

@<SCITEGIC>MOL_PROPERTY
VdW
SciTegic.value.DoubleValue
4.232

@<SCITEGIC>MOL_PROPERTY
VdW6
SciTegic.value.DoubleValue
-13.632

@<SCITEGIC>MOL_PROPERTY
VdW12
SciTegic.value.DoubleValue
17.864

@<SCITEGIC>MOL_PROPERTY
Bond
SciTegic.value.DoubleValue
0.735

@<SCITEGIC>MOL_PROPERTY
Angle
SciTegic.value.DoubleValue
9.140

@<SCITEGIC>MOL_PROPERTY
Pdih
SciTegic.value.DoubleValue
9.042

@<SCITEGIC>MOL_PROPERTY
Idih
SciTegic.value.DoubleValue
0.000

@<SCITEGIC>MOL_PROPERTY
Tether
SciTegic.value.DoubleValue
0.000

@<TRIPOS>MOLECULE
guest-s17_confgen4.mol2 : confsearch ligand conformer 43
          25          25           1
SMALL
USER_CHARGES
 
@<TRIPOS>ATOM
       1    C1      19.252770   20.646309   23.765079 C.3        1 MOL1        -0.1684
       2    H1      18.207350   20.492124   24.064795 H          1 MOL1         0.0833
       3    H2      19.533902   21.629636   24.166258 H          1 MOL1         0.0833
       4    C2      19.333882   20.736722   22.220609 C.3        1 MOL1        -0.1684
       5    H3      18.722628   21.595759   21.912023 H          1 MOL1         0.0833
       6    H4      20.351505   20.995842   21.906846 H          1 MOL1         0.0833
       7    C3      18.820784   19.502603   21.436988 C.3        1 MOL1        -0.1684
       8    H5      18.832101   19.760821   20.369198 H          1 MOL1         0.0833
       9    H6      17.766642   19.324751   21.689171 H          1 MOL1         0.0833
      10    C4      19.610835   18.179556   21.613254 C.3        1 MOL1        -0.1760
      11    H7      19.301010   17.671043   22.531673 H          1 MOL1         0.0833
      12    H8      19.294448   17.504849   20.806282 H          1 MOL1         0.0833
      13    C5      21.154111   18.324467   21.576151 C.3        1 MOL1         0.1219
      14    H9      21.423635   19.268303   21.083430 H          1 MOL1         0.0790
      15    C6      21.830325   18.261419   22.969177 C.3        1 MOL1        -0.1760
      16    H10     21.532581   17.332162   23.472713 H          1 MOL1         0.0833
      17    H11     22.914571   18.181543   22.816297 H          1 MOL1         0.0833
      18    C7      21.586319   19.462455   23.922895 C.3        1 MOL1        -0.1684
      19    H12     21.912618   20.401787   23.458154 H          1 MOL1         0.0833
      20    H13     22.250105   19.325053   24.787471 H          1 MOL1         0.0833
      21    C8      20.137560   19.581074   24.462814 C.3        1 MOL1        -0.1684
      22    H14     20.190536   19.852490   25.526094 H          1 MOL1         0.0833
      23    H15     19.642908   18.603273   24.455846 H          1 MOL1         0.0833
      24    O1      21.680180   17.252701   20.801607 O.3        1 MOL1        -0.5508
      25    H16     22.647791   17.395156   20.741147 H          1 MOL1         0.3780
@<TRIPOS>BOND
    1     1     2    1
    2     1     3    1
    3     1     4    1
    4     4     5    1
    5     4     6    1
    6     4     7    1
    7     7     8    1
    8     7     9    1
    9     7    10    1
   10    10    11    1
   11    10    12    1
   12    10    13    1
   13    13    14    1
   14    13    15    1
   15    15    16    1
   16    15    17    1
   17    15    18    1
   18    18    19    1
   19    18    20    1
   20     1    21    1
   21    18    21    1
   22    21    22    1
   23    21    23    1
   24    13    24    1
   25    24    25    1
@<TRIPOS>SUBSTRUCTURE
       1 MOL1            1 RESIDUE      1      MOL     
@<SCITEGIC>MOL_PROPERTY
VConf Rank
SciTegic.value.IntegerValue
43

@<SCITEGIC>MOL_PROPERTY
Conf_Id
SciTegic.value.IntegerValue
62

@<SCITEGIC>MOL_PROPERTY
Delta U+W
SciTegic.value.DoubleValue
-1.779

@<SCITEGIC>MOL_PROPERTY
U+W
SciTegic.value.DoubleValue
9.134

@<SCITEGIC>MOL_PROPERTY
Grad RMS
SciTegic.value.DoubleValue
0.000000

@<SCITEGIC>MOL_PROPERTY
U
SciTegic.value.DoubleValue
11.364

@<SCITEGIC>MOL_PROPERTY
W
SciTegic.value.DoubleValue
-2.230

@<SCITEGIC>MOL_PROPERTY
W(PB)
SciTegic.value.DoubleValue
-4.359

@<SCITEGIC>MOL_PROPERTY
W(SA)
SciTegic.value.DoubleValue
2.129

@<SCITEGIC>MOL_PROPERTY
Valence
SciTegic.value.DoubleValue
16.582

@<SCITEGIC>MOL_PROPERTY
Coulomb
SciTegic.value.DoubleValue
-8.150

@<SCITEGIC>MOL_PROPERTY
VdW
SciTegic.value.DoubleValue
2.933

@<SCITEGIC>MOL_PROPERTY
VdW6
SciTegic.value.DoubleValue
-12.531

@<SCITEGIC>MOL_PROPERTY
VdW12
SciTegic.value.DoubleValue
15.464

@<SCITEGIC>MOL_PROPERTY
Bond
SciTegic.value.DoubleValue
0.439

@<SCITEGIC>MOL_PROPERTY
Angle
SciTegic.value.DoubleValue
5.099

@<SCITEGIC>MOL_PROPERTY
Pdih
SciTegic.value.DoubleValue
11.044

@<SCITEGIC>MOL_PROPERTY
Idih
SciTegic.value.DoubleValue
0.000

@<SCITEGIC>MOL_PROPERTY
Tether
SciTegic.value.DoubleValue
0.000

@<TRIPOS>MOLECULE
guest-s17_confgen4.mol2 : confsearch ligand conformer 44
          25          25           1
SMALL
USER_CHARGES
 
@<TRIPOS>ATOM
       1    C1      19.735948   18.867482   20.943787 C.3        1 MOL1        -0.1684
       2    H1      20.437662   18.047610   21.134915 H          1 MOL1         0.0833
       3    H2      19.374801   18.689714   19.921725 H          1 MOL1         0.0833
       4    C2      20.480656   20.225805   20.938877 C.3        1 MOL1        -0.1684
       5    H3      21.238154   20.182657   20.144382 H          1 MOL1         0.0833
       6    H4      19.783450   21.020763   20.641485 H          1 MOL1         0.0833
       7    C3      21.192763   20.645870   22.250047 C.3        1 MOL1        -0.1684
       8    H5      20.481864   21.112055   22.941630 H          1 MOL1         0.0833
       9    H6      21.894408   21.451388   21.993412 H          1 MOL1         0.0833
      10    C4      21.987605   19.519391   22.963198 C.3        1 MOL1        -0.1760
      11    H7      22.279767   18.733838   22.255527 H          1 MOL1         0.0833
      12    H8      22.930866   19.959436   23.312429 H          1 MOL1         0.0833
      13    C5      21.281268   18.903085   24.197153 C.3        1 MOL1         0.1219
      14    H9      20.998291   19.720319   24.876147 H          1 MOL1         0.0790
      15    C6      20.017341   18.053232   23.914046 C.3        1 MOL1        -0.1760
      16    H10     20.254888   17.225077   23.235430 H          1 MOL1         0.0833
      17    H11     19.733564   17.576817   24.861838 H          1 MOL1         0.0833
      18    C7      18.786591   18.854780   23.411707 C.3        1 MOL1        -0.1684
      19    H12     18.854756   19.901772   23.728105 H          1 MOL1         0.0833
      20    H13     17.894501   18.470397   23.924907 H          1 MOL1         0.0833
      21    C8      18.512882   18.762775   21.888704 C.3        1 MOL1        -0.1684
      22    H14     17.774122   19.527207   21.612369 H          1 MOL1         0.0833
      23    H15     18.027988   17.796667   21.692758 H          1 MOL1         0.0833
      24    O1      22.220888   18.064911   24.858217 O.3        1 MOL1        -0.5508
      25    H16     22.987168   18.628683   25.093003 H          1 MOL1         0.3780
@<TRIPOS>BOND
    1     1     2    1
    2     1     3    1
    3     1     4    1
    4     4     5    1
    5     4     6    1
    6     4     7    1
    7     7     8    1
    8     7     9    1
    9     7    10    1
   10    10    11    1
   11    10    12    1
   12    10    13    1
   13    13    14    1
   14    13    15    1
   15    15    16    1
   16    15    17    1
   17    15    18    1
   18    18    19    1
   19    18    20    1
   20     1    21    1
   21    18    21    1
   22    21    22    1
   23    21    23    1
   24    13    24    1
   25    24    25    1
@<TRIPOS>SUBSTRUCTURE
       1 MOL1            1 RESIDUE      1      MOL     
@<SCITEGIC>MOL_PROPERTY
VConf Rank
SciTegic.value.IntegerValue
44

@<SCITEGIC>MOL_PROPERTY
Conf_Id
SciTegic.value.IntegerValue
121

@<SCITEGIC>MOL_PROPERTY
Delta U+W
SciTegic.value.DoubleValue
-1.283

@<SCITEGIC>MOL_PROPERTY
U+W
SciTegic.value.DoubleValue
9.630

@<SCITEGIC>MOL_PROPERTY
Grad RMS
SciTegic.value.DoubleValue
0.000000

@<SCITEGIC>MOL_PROPERTY
U
SciTegic.value.DoubleValue
11.876

@<SCITEGIC>MOL_PROPERTY
W
SciTegic.value.DoubleValue
-2.246

@<SCITEGIC>MOL_PROPERTY
W(PB)
SciTegic.value.DoubleValue
-4.376

@<SCITEGIC>MOL_PROPERTY
W(SA)
SciTegic.value.DoubleValue
2.130

@<SCITEGIC>MOL_PROPERTY
Valence
SciTegic.value.DoubleValue
17.153

@<SCITEGIC>MOL_PROPERTY
Coulomb
SciTegic.value.DoubleValue
-7.966

@<SCITEGIC>MOL_PROPERTY
VdW
SciTegic.value.DoubleValue
2.689

@<SCITEGIC>MOL_PROPERTY
VdW6
SciTegic.value.DoubleValue
-12.458

@<SCITEGIC>MOL_PROPERTY
VdW12
SciTegic.value.DoubleValue
15.147

@<SCITEGIC>MOL_PROPERTY
Bond
SciTegic.value.DoubleValue
0.421

@<SCITEGIC>MOL_PROPERTY
Angle
SciTegic.value.DoubleValue
5.258

@<SCITEGIC>MOL_PROPERTY
Pdih
SciTegic.value.DoubleValue
11.475

@<SCITEGIC>MOL_PROPERTY
Idih
SciTegic.value.DoubleValue
0.000

@<SCITEGIC>MOL_PROPERTY
Tether
SciTegic.value.DoubleValue
0.000

@<TRIPOS>MOLECULE
guest-s17_confgen4.mol2 : confsearch ligand conformer 45
          25          25           1
SMALL
USER_CHARGES
 
@<TRIPOS>ATOM
       1    C1      18.796803   19.921189   23.476234 C.3        1 MOL1        -0.1684
       2    H1      18.751361   18.840996   23.655790 H          1 MOL1         0.0833
       3    H2      17.897869   20.320776   23.964995 H          1 MOL1         0.0833
       4    C2      18.669826   20.222694   21.962070 C.3        1 MOL1        -0.1684
       5    H3      17.702228   19.824190   21.627658 H          1 MOL1         0.0833
       6    H4      18.611322   21.309207   21.811903 H          1 MOL1         0.0833
       7    C3      19.766864   19.644492   21.031955 C.3        1 MOL1        -0.1684
       8    H5      20.645144   20.299776   21.018796 H          1 MOL1         0.0833
       9    H6      19.376997   19.687271   20.005738 H          1 MOL1         0.0833
      10    C4      20.185156   18.179734   21.330430 C.3        1 MOL1        -0.1760
      11    H7      19.384915   17.636518   21.847458 H          1 MOL1         0.0833
      12    H8      20.302957   17.669400   20.365292 H          1 MOL1         0.0833
      13    C5      21.526318   18.023433   22.089885 C.3        1 MOL1         0.1219
      14    H9      22.296910   18.583756   21.541062 H          1 MOL1         0.0790
      15    C6      21.541263   18.495411   23.565826 C.3        1 MOL1        -0.1760
      16    H10     20.778240   17.963327   24.147146 H          1 MOL1         0.0833
      17    H11     22.501941   18.186302   23.998138 H          1 MOL1         0.0833
      18    C7      21.423108   20.030578   23.762317 C.3        1 MOL1        -0.1684
      19    H12     21.764015   20.560462   22.865657 H          1 MOL1         0.0833
      20    H13     22.132266   20.331939   24.545451 H          1 MOL1         0.0833
      21    C8      20.023334   20.537064   24.194548 C.3        1 MOL1        -0.1684
      22    H14     19.992594   21.630260   24.092210 H          1 MOL1         0.0833
      23    H15     19.910507   20.336095   25.268685 H          1 MOL1         0.0833
      24    O1      21.867887   16.643024   22.074857 O.3        1 MOL1        -0.5508
      25    H16     22.748737   16.564679   22.496893 H          1 MOL1         0.3780
@<TRIPOS>BOND
    1     1     2    1
    2     1     3    1
    3     1     4    1
    4     4     5    1
    5     4     6    1
    6     4     7    1
    7     7     8    1
    8     7     9    1
    9     7    10    1
   10    10    11    1
   11    10    12    1
   12    10    13    1
   13    13    14    1
   14    13    15    1
   15    15    16    1
   16    15    17    1
   17    15    18    1
   18    18    19    1
   19    18    20    1
   20     1    21    1
   21    18    21    1
   22    21    22    1
   23    21    23    1
   24    13    24    1
   25    24    25    1
@<TRIPOS>SUBSTRUCTURE
       1 MOL1            1 RESIDUE      1      MOL     
@<SCITEGIC>MOL_PROPERTY
VConf Rank
SciTegic.value.IntegerValue
45

@<SCITEGIC>MOL_PROPERTY
Conf_Id
SciTegic.value.IntegerValue
24

@<SCITEGIC>MOL_PROPERTY
Delta U+W
SciTegic.value.DoubleValue
-1.236

@<SCITEGIC>MOL_PROPERTY
U+W
SciTegic.value.DoubleValue
9.678

@<SCITEGIC>MOL_PROPERTY
Grad RMS
SciTegic.value.DoubleValue
0.000000

@<SCITEGIC>MOL_PROPERTY
U
SciTegic.value.DoubleValue
11.876

@<SCITEGIC>MOL_PROPERTY
W
SciTegic.value.DoubleValue
-2.199

@<SCITEGIC>MOL_PROPERTY
W(PB)
SciTegic.value.DoubleValue
-4.335

@<SCITEGIC>MOL_PROPERTY
W(SA)
SciTegic.value.DoubleValue
2.137

@<SCITEGIC>MOL_PROPERTY
Valence
SciTegic.value.DoubleValue
17.153

@<SCITEGIC>MOL_PROPERTY
Coulomb
SciTegic.value.DoubleValue
-7.966

@<SCITEGIC>MOL_PROPERTY
VdW
SciTegic.value.DoubleValue
2.689

@<SCITEGIC>MOL_PROPERTY
VdW6
SciTegic.value.DoubleValue
-12.458

@<SCITEGIC>MOL_PROPERTY
VdW12
SciTegic.value.DoubleValue
15.147

@<SCITEGIC>MOL_PROPERTY
Bond
SciTegic.value.DoubleValue
0.421

@<SCITEGIC>MOL_PROPERTY
Angle
SciTegic.value.DoubleValue
5.258

@<SCITEGIC>MOL_PROPERTY
Pdih
SciTegic.value.DoubleValue
11.475

@<SCITEGIC>MOL_PROPERTY
Idih
SciTegic.value.DoubleValue
0.000

@<SCITEGIC>MOL_PROPERTY
Tether
SciTegic.value.DoubleValue
0.000

@<TRIPOS>MOLECULE
guest-s17_confgen4.mol2 : confsearch ligand conformer 46
          25          25           1
SMALL
USER_CHARGES
 
@<TRIPOS>ATOM
       1    C1      18.818494   19.065095   21.061171 C.3        1 MOL1        -0.1684
       2    H1      18.207353   19.919958   20.741024 H          1 MOL1         0.0833
       3    H2      18.473358   18.211993   20.461210 H          1 MOL1         0.0833
       4    C2      20.300082   19.340792   20.690918 C.3        1 MOL1        -0.1684
       5    H3      20.877990   18.407887   20.688835 H          1 MOL1         0.0833
       6    H4      20.310742   19.677988   19.645331 H          1 MOL1         0.0833
       7    C3      21.025890   20.410968   21.543318 C.3        1 MOL1        -0.1684
       8    H5      20.332527   21.209578   21.839842 H          1 MOL1         0.0833
       9    H6      21.763186   20.894416   20.887669 H          1 MOL1         0.0833
      10    C4      21.806278   19.860269   22.770368 C.3        1 MOL1        -0.1760
      11    H7      22.264276   18.890227   22.538562 H          1 MOL1         0.0833
      12    H8      22.645225   20.548378   22.942483 H          1 MOL1         0.0833
      13    C5      20.987775   19.775271   24.081820 C.3        1 MOL1         0.1219
      14    H9      20.211336   20.551357   24.059310 H          1 MOL1         0.0790
      15    C6      20.330114   18.401090   24.366281 C.3        1 MOL1        -0.1760
      16    H10     21.105883   17.677446   24.648935 H          1 MOL1         0.0833
      17    H11     19.688478   18.516270   25.249830 H          1 MOL1         0.0833
      18    C7      19.483384   17.781439   23.226228 C.3        1 MOL1        -0.1684
      19    H12     18.902655   16.949275   23.646960 H          1 MOL1         0.0833
      20    H13     20.144301   17.314923   22.486470 H          1 MOL1         0.0833
      21    C8      18.507171   18.777214   22.550364 C.3        1 MOL1        -0.1684
      22    H14     18.458692   19.721215   23.105493 H          1 MOL1         0.0833
      23    H15     17.489818   18.367046   22.610595 H          1 MOL1         0.0833
      24    O1      21.856917   20.059801   25.170555 O.3        1 MOL1        -0.5508
      25    H16     22.550939   19.369027   25.158835 H          1 MOL1         0.3780
@<TRIPOS>BOND
    1     1     2    1
    2     1     3    1
    3     1     4    1
    4     4     5    1
    5     4     6    1
    6     4     7    1
    7     7     8    1
    8     7     9    1
    9     7    10    1
   10    10    11    1
   11    10    12    1
   12    10    13    1
   13    13    14    1
   14    13    15    1
   15    15    16    1
   16    15    17    1
   17    15    18    1
   18    18    19    1
   19    18    20    1
   20     1    21    1
   21    18    21    1
   22    21    22    1
   23    21    23    1
   24    13    24    1
   25    24    25    1
@<TRIPOS>SUBSTRUCTURE
       1 MOL1            1 RESIDUE      1      MOL     
@<SCITEGIC>MOL_PROPERTY
VConf Rank
SciTegic.value.IntegerValue
46

@<SCITEGIC>MOL_PROPERTY
Conf_Id
SciTegic.value.IntegerValue
167

@<SCITEGIC>MOL_PROPERTY
Delta U+W
SciTegic.value.DoubleValue
0.388

@<SCITEGIC>MOL_PROPERTY
U+W
SciTegic.value.DoubleValue
11.301

@<SCITEGIC>MOL_PROPERTY
Grad RMS
SciTegic.value.DoubleValue
0.000000

@<SCITEGIC>MOL_PROPERTY
U
SciTegic.value.DoubleValue
13.202

@<SCITEGIC>MOL_PROPERTY
W
SciTegic.value.DoubleValue
-1.901

@<SCITEGIC>MOL_PROPERTY
W(PB)
SciTegic.value.DoubleValue
-4.065

@<SCITEGIC>MOL_PROPERTY
W(SA)
SciTegic.value.DoubleValue
2.163

@<SCITEGIC>MOL_PROPERTY
Valence
SciTegic.value.DoubleValue
18.957

@<SCITEGIC>MOL_PROPERTY
Coulomb
SciTegic.value.DoubleValue
-8.753

@<SCITEGIC>MOL_PROPERTY
VdW
SciTegic.value.DoubleValue
2.998

@<SCITEGIC>MOL_PROPERTY
VdW6
SciTegic.value.DoubleValue
-12.294

@<SCITEGIC>MOL_PROPERTY
VdW12
SciTegic.value.DoubleValue
15.292

@<SCITEGIC>MOL_PROPERTY
Bond
SciTegic.value.DoubleValue
0.419

@<SCITEGIC>MOL_PROPERTY
Angle
SciTegic.value.DoubleValue
4.543

@<SCITEGIC>MOL_PROPERTY
Pdih
SciTegic.value.DoubleValue
13.996

@<SCITEGIC>MOL_PROPERTY
Idih
SciTegic.value.DoubleValue
0.000

@<SCITEGIC>MOL_PROPERTY
Tether
SciTegic.value.DoubleValue
0.000

@<TRIPOS>MOLECULE
guest-s17_confgen4.mol2 : confsearch ligand conformer 47
          25          25           1
SMALL
USER_CHARGES
 
@<TRIPOS>ATOM
       1    C1      20.286978   19.919573   20.708268 C.3        1 MOL1        -0.1684
       2    H1      20.885191   19.433276   19.925861 H          1 MOL1         0.0833
       3    H2      19.740304   20.727713   20.203317 H          1 MOL1         0.0833
       4    C2      21.244166   20.570821   21.740243 C.3        1 MOL1        -0.1684
       5    H3      22.096034   19.913001   21.946146 H          1 MOL1         0.0833
       6    H4      21.689972   21.450185   21.255464 H          1 MOL1         0.0833
       7    C3      20.582259   21.034574   23.063745 C.3        1 MOL1        -0.1684
       8    H5      19.515391   21.247459   22.917999 H          1 MOL1         0.0833
       9    H6      21.032132   21.998655   23.337728 H          1 MOL1         0.0833
      10    C4      20.793478   20.077689   24.268737 C.3        1 MOL1        -0.1760
      11    H7      21.868282   19.912648   24.419735 H          1 MOL1         0.0833
      12    H8      20.444715   20.599473   25.169788 H          1 MOL1         0.0833
      13    C5      20.070987   18.708758   24.210070 C.3        1 MOL1         0.1219
      14    H9      19.001053   18.874897   24.026235 H          1 MOL1         0.0790
      15    C6      20.641932   17.736656   23.145286 C.3        1 MOL1        -0.1760
      16    H10     21.670013   18.015755   22.893439 H          1 MOL1         0.0833
      17    H11     20.731441   16.731220   23.577756 H          1 MOL1         0.0833
      18    C7      19.791503   17.604997   21.855248 C.3        1 MOL1        -0.1684
      19    H12     18.934758   16.955212   22.080443 H          1 MOL1         0.0833
      20    H13     20.377824   17.071651   21.094773 H          1 MOL1         0.0833
      21    C8      19.235429   18.916425   21.245488 C.3        1 MOL1        -0.1684
      22    H14     18.560603   19.413880   21.951389 H          1 MOL1         0.0833
      23    H15     18.592219   18.635326   20.400452 H          1 MOL1         0.0833
      24    O1      20.211600   18.100830   25.488668 O.3        1 MOL1        -0.5508
      25    H16     19.693747   17.269168   25.462519 H          1 MOL1         0.3780
@<TRIPOS>BOND
    1     1     2    1
    2     1     3    1
    3     1     4    1
    4     4     5    1
    5     4     6    1
    6     4     7    1
    7     7     8    1
    8     7     9    1
    9     7    10    1
   10    10    11    1
   11    10    12    1
   12    10    13    1
   13    13    14    1
   14    13    15    1
   15    15    16    1
   16    15    17    1
   17    15    18    1
   18    18    19    1
   19    18    20    1
   20     1    21    1
   21    18    21    1
   22    21    22    1
   23    21    23    1
   24    13    24    1
   25    24    25    1
@<TRIPOS>SUBSTRUCTURE
       1 MOL1            1 RESIDUE      1      MOL     
@<SCITEGIC>MOL_PROPERTY
VConf Rank
SciTegic.value.IntegerValue
47

@<SCITEGIC>MOL_PROPERTY
Conf_Id
SciTegic.value.IntegerValue
60

@<SCITEGIC>MOL_PROPERTY
Delta U+W
SciTegic.value.DoubleValue
-1.838

@<SCITEGIC>MOL_PROPERTY
U+W
SciTegic.value.DoubleValue
9.075

@<SCITEGIC>MOL_PROPERTY
Grad RMS
SciTegic.value.DoubleValue
0.000000

@<SCITEGIC>MOL_PROPERTY
U
SciTegic.value.DoubleValue
11.150

@<SCITEGIC>MOL_PROPERTY
W
SciTegic.value.DoubleValue
-2.074

@<SCITEGIC>MOL_PROPERTY
W(PB)
SciTegic.value.DoubleValue
-4.196

@<SCITEGIC>MOL_PROPERTY
W(SA)
SciTegic.value.DoubleValue
2.121

@<SCITEGIC>MOL_PROPERTY
Valence
SciTegic.value.DoubleValue
16.582

@<SCITEGIC>MOL_PROPERTY
Coulomb
SciTegic.value.DoubleValue
-8.361

@<SCITEGIC>MOL_PROPERTY
VdW
SciTegic.value.DoubleValue
2.928

@<SCITEGIC>MOL_PROPERTY
VdW6
SciTegic.value.DoubleValue
-12.539

@<SCITEGIC>MOL_PROPERTY
VdW12
SciTegic.value.DoubleValue
15.467

@<SCITEGIC>MOL_PROPERTY
Bond
SciTegic.value.DoubleValue
0.441

@<SCITEGIC>MOL_PROPERTY
Angle
SciTegic.value.DoubleValue
5.093

@<SCITEGIC>MOL_PROPERTY
Pdih
SciTegic.value.DoubleValue
11.049

@<SCITEGIC>MOL_PROPERTY
Idih
SciTegic.value.DoubleValue
0.000

@<SCITEGIC>MOL_PROPERTY
Tether
SciTegic.value.DoubleValue
0.000

@<TRIPOS>MOLECULE
guest-s17_confgen4.mol2 : confsearch ligand conformer 48
          25          25           1
SMALL
USER_CHARGES
 
@<TRIPOS>ATOM
       1    C1      20.750814   17.263269   22.048238 C.3        1 MOL1        -0.1684
       2    H1      21.718007   16.794492   22.274709 H          1 MOL1         0.0833
       3    H2      20.190795   16.519356   21.465237 H          1 MOL1         0.0833
       4    C2      20.979989   18.491010   21.131289 C.3        1 MOL1        -0.1684
       5    H3      21.445838   18.124184   20.206494 H          1 MOL1         0.0833
       6    H4      20.019897   18.909561   20.808513 H          1 MOL1         0.0833
       7    C3      21.897194   19.604373   21.696999 C.3        1 MOL1        -0.1684
       8    H5      22.055971   20.340718   20.897293 H          1 MOL1         0.0833
       9    H6      22.887853   19.182489   21.914157 H          1 MOL1         0.0833
      10    C4      21.388039   20.363509   22.949690 C.3        1 MOL1        -0.1760
      11    H7      21.593569   19.781589   23.853792 H          1 MOL1         0.0833
      12    H8      22.009431   21.262448   23.057956 H          1 MOL1         0.0833
      13    C5      19.892392   20.770770   22.906072 C.3        1 MOL1         0.1219
      14    H9      19.534795   20.762192   21.867705 H          1 MOL1         0.0790
      15    C6      18.967723   19.875255   23.767724 C.3        1 MOL1        -0.1760
      16    H10     19.342522   19.856198   24.799424 H          1 MOL1         0.0833
      17    H11     17.985390   20.363321   23.818679 H          1 MOL1         0.0833
      18    C7      18.741249   18.420318   23.273641 C.3        1 MOL1        -0.1684
      19    H12     18.327388   18.414363   22.257051 H          1 MOL1         0.0833
      20    H13     17.954680   17.986211   23.905911 H          1 MOL1         0.0833
      21    C8      19.983286   17.497371   23.375416 C.3        1 MOL1        -0.1684
      22    H14     19.648715   16.513374   23.731572 H          1 MOL1         0.0833
      23    H15     20.663380   17.852662   24.157748 H          1 MOL1         0.0833
      24    O1      19.778108   22.099000   23.402972 O.3        1 MOL1        -0.5508
      25    H16     20.311691   22.667658   22.809312 H          1 MOL1         0.3780
@<TRIPOS>BOND
    1     1     2    1
    2     1     3    1
    3     1     4    1
    4     4     5    1
    5     4     6    1
    6     4     7    1
    7     7     8    1
    8     7     9    1
    9     7    10    1
   10    10    11    1
   11    10    12    1
   12    10    13    1
   13    13    14    1
   14    13    15    1
   15    15    16    1
   16    15    17    1
   17    15    18    1
   18    18    19    1
   19    18    20    1
   20     1    21    1
   21    18    21    1
   22    21    22    1
   23    21    23    1
   24    13    24    1
   25    24    25    1
@<TRIPOS>SUBSTRUCTURE
       1 MOL1            1 RESIDUE      1      MOL     
@<SCITEGIC>MOL_PROPERTY
VConf Rank
SciTegic.value.IntegerValue
48

@<SCITEGIC>MOL_PROPERTY
Conf_Id
SciTegic.value.IntegerValue
129

@<SCITEGIC>MOL_PROPERTY
Delta U+W
SciTegic.value.DoubleValue
-1.846

@<SCITEGIC>MOL_PROPERTY
U+W
SciTegic.value.DoubleValue
9.067

@<SCITEGIC>MOL_PROPERTY
Grad RMS
SciTegic.value.DoubleValue
0.000000

@<SCITEGIC>MOL_PROPERTY
U
SciTegic.value.DoubleValue
11.150

@<SCITEGIC>MOL_PROPERTY
W
SciTegic.value.DoubleValue
-2.083

@<SCITEGIC>MOL_PROPERTY
W(PB)
SciTegic.value.DoubleValue
-4.217

@<SCITEGIC>MOL_PROPERTY
W(SA)
SciTegic.value.DoubleValue
2.134

@<SCITEGIC>MOL_PROPERTY
Valence
SciTegic.value.DoubleValue
16.583

@<SCITEGIC>MOL_PROPERTY
Coulomb
SciTegic.value.DoubleValue
-8.361

@<SCITEGIC>MOL_PROPERTY
VdW
SciTegic.value.DoubleValue
2.928

@<SCITEGIC>MOL_PROPERTY
VdW6
SciTegic.value.DoubleValue
-12.539

@<SCITEGIC>MOL_PROPERTY
VdW12
SciTegic.value.DoubleValue
15.467

@<SCITEGIC>MOL_PROPERTY
Bond
SciTegic.value.DoubleValue
0.441

@<SCITEGIC>MOL_PROPERTY
Angle
SciTegic.value.DoubleValue
5.093

@<SCITEGIC>MOL_PROPERTY
Pdih
SciTegic.value.DoubleValue
11.049

@<SCITEGIC>MOL_PROPERTY
Idih
SciTegic.value.DoubleValue
0.000

@<SCITEGIC>MOL_PROPERTY
Tether
SciTegic.value.DoubleValue
0.000

@<TRIPOS>MOLECULE
guest-s17_confgen4.mol2 : confsearch ligand conformer 49
          25          25           1
SMALL
USER_CHARGES
 
@<TRIPOS>ATOM
       1    C1      21.452055   18.767196   21.022378 C.3        1 MOL1        -0.1684
       2    H1      21.284542   17.853247   20.436594 H          1 MOL1         0.0833
       3    H2      22.297966   19.276593   20.540850 H          1 MOL1         0.0833
       4    C2      21.899404   18.381869   22.454725 C.3        1 MOL1        -0.1684
       5    H3      22.837466   17.817698   22.362230 H          1 MOL1         0.0833
       6    H4      22.172201   19.278315   23.023202 H          1 MOL1         0.0833
       7    C3      20.913258   17.503506   23.264825 C.3        1 MOL1        -0.1684
       8    H5      21.414919   17.220480   24.200392 H          1 MOL1         0.0833
       9    H6      20.737208   16.563147   22.725172 H          1 MOL1         0.0833
      10    C4      19.546135   18.136807   23.632493 C.3        1 MOL1        -0.1760
      11    H7      18.855088   18.060827   22.786786 H          1 MOL1         0.0833
      12    H8      19.100371   17.504383   24.412204 H          1 MOL1         0.0833
      13    C5      19.616000   19.600521   24.139675 C.3        1 MOL1         0.1219
      14    H9      20.633182   19.823198   24.488427 H          1 MOL1         0.0790
      15    C6      19.192775   20.658988   23.090186 C.3        1 MOL1        -0.1760
      16    H10     18.187929   20.422131   22.716825 H          1 MOL1         0.0833
      17    H11     19.098722   21.622939   23.608055 H          1 MOL1         0.0833
      18    C7      20.147578   20.871406   21.884263 C.3        1 MOL1        -0.1684
      19    H12     21.151711   21.152366   22.227152 H          1 MOL1         0.0833
      20    H13     19.777907   21.746831   21.332957 H          1 MOL1         0.0833
      21    C8      20.209606   19.685125   20.887551 C.3        1 MOL1        -0.1684
      22    H14     20.221335   20.095601   19.868521 H          1 MOL1         0.0833
      23    H15     19.287053   19.095508   20.932798 H          1 MOL1         0.0833
      24    O1      18.734486   19.729180   25.248072 O.3        1 MOL1        -0.5508
      25    H16     17.836472   19.530550   24.911830 H          1 MOL1         0.3780
@<TRIPOS>BOND
    1     1     2    1
    2     1     3    1
    3     1     4    1
    4     4     5    1
    5     4     6    1
    6     4     7    1
    7     7     8    1
    8     7     9    1
    9     7    10    1
   10    10    11    1
   11    10    12    1
   12    10    13    1
   13    13    14    1
   14    13    15    1
   15    15    16    1
   16    15    17    1
   17    15    18    1
   18    18    19    1
   19    18    20    1
   20     1    21    1
   21    18    21    1
   22    21    22    1
   23    21    23    1
   24    13    24    1
   25    24    25    1
@<TRIPOS>SUBSTRUCTURE
       1 MOL1            1 RESIDUE      1      MOL     
@<SCITEGIC>MOL_PROPERTY
VConf Rank
SciTegic.value.IntegerValue
49

@<SCITEGIC>MOL_PROPERTY
Conf_Id
SciTegic.value.IntegerValue
140

@<SCITEGIC>MOL_PROPERTY
Delta U+W
SciTegic.value.DoubleValue
-1.702

@<SCITEGIC>MOL_PROPERTY
U+W
SciTegic.value.DoubleValue
9.211

@<SCITEGIC>MOL_PROPERTY
Grad RMS
SciTegic.value.DoubleValue
0.000000

@<SCITEGIC>MOL_PROPERTY
U
SciTegic.value.DoubleValue
11.181

@<SCITEGIC>MOL_PROPERTY
W
SciTegic.value.DoubleValue
-1.969

@<SCITEGIC>MOL_PROPERTY
W(PB)
SciTegic.value.DoubleValue
-4.093

@<SCITEGIC>MOL_PROPERTY
W(SA)
SciTegic.value.DoubleValue
2.124

@<SCITEGIC>MOL_PROPERTY
Valence
SciTegic.value.DoubleValue
16.954

@<SCITEGIC>MOL_PROPERTY
Coulomb
SciTegic.value.DoubleValue
-8.661

@<SCITEGIC>MOL_PROPERTY
VdW
SciTegic.value.DoubleValue
2.887

@<SCITEGIC>MOL_PROPERTY
VdW6
SciTegic.value.DoubleValue
-12.561

@<SCITEGIC>MOL_PROPERTY
VdW12
SciTegic.value.DoubleValue
15.448

@<SCITEGIC>MOL_PROPERTY
Bond
SciTegic.value.DoubleValue
0.433

@<SCITEGIC>MOL_PROPERTY
Angle
SciTegic.value.DoubleValue
5.120

@<SCITEGIC>MOL_PROPERTY
Pdih
SciTegic.value.DoubleValue
11.401

@<SCITEGIC>MOL_PROPERTY
Idih
SciTegic.value.DoubleValue
0.000

@<SCITEGIC>MOL_PROPERTY
Tether
SciTegic.value.DoubleValue
0.000

@<TRIPOS>MOLECULE
guest-s17_confgen4.mol2 : confsearch ligand conformer 50
          25          25           1
SMALL
USER_CHARGES
 
@<TRIPOS>ATOM
       1    C1      18.535069   19.426109   21.576594 C.3        1 MOL1        -0.1684
       2    H1      17.959015   20.358845   21.644953 H          1 MOL1         0.0833
       3    H2      17.974339   18.781797   20.885679 H          1 MOL1         0.0833
       4    C2      18.541054   18.736396   22.965373 C.3        1 MOL1        -0.1684
       5    H3      18.674930   19.475608   23.763149 H          1 MOL1         0.0833
       6    H4      17.531282   18.336329   23.130777 H          1 MOL1         0.0833
       7    C3      19.552861   17.572315   23.125717 C.3        1 MOL1        -0.1684
       8    H5      19.792839   17.120717   22.154499 H          1 MOL1         0.0833
       9    H6      19.053424   16.776949   23.695735 H          1 MOL1         0.0833
      10    C4      20.848884   17.938321   23.898619 C.3        1 MOL1        -0.1760
      11    H7      20.579205   18.346803   24.881285 H          1 MOL1         0.0833
      12    H8      21.385150   17.001725   24.102192 H          1 MOL1         0.0833
      13    C5      21.836025   18.901687   23.192667 C.3        1 MOL1         0.1219
      14    H9      22.079741   18.505232   22.198032 H          1 MOL1         0.0790
      15    C6      21.321493   20.358726   23.062810 C.3        1 MOL1        -0.1760
      16    H10     20.551385   20.557657   23.815072 H          1 MOL1         0.0833
      17    H11     22.135758   21.053534   23.309451 H          1 MOL1         0.0833
      18    C7      20.806161   20.749762   21.653273 C.3        1 MOL1        -0.1684
      19    H12     21.681062   20.936543   21.015533 H          1 MOL1         0.0833
      20    H13     20.276557   21.709695   21.720696 H          1 MOL1         0.0833
      21    C8      19.908466   19.719919   20.922631 C.3        1 MOL1        -0.1684
      22    H14     20.456142   18.786421   20.749903 H          1 MOL1         0.0833
      23    H15     19.712250   20.114942   19.916519 H          1 MOL1         0.0833
      24    O1      23.031517   18.919669   23.962495 O.3        1 MOL1        -0.5508
      25    H16     22.788133   19.271916   24.843194 H          1 MOL1         0.3780
@<TRIPOS>BOND
    1     1     2    1
    2     1     3    1
    3     1     4    1
    4     4     5    1
    5     4     6    1
    6     4     7    1
    7     7     8    1
    8     7     9    1
    9     7    10    1
   10    10    11    1
   11    10    12    1
   12    10    13    1
   13    13    14    1
   14    13    15    1
   15    15    16    1
   16    15    17    1
   17    15    18    1
   18    18    19    1
   19    18    20    1
   20     1    21    1
   21    18    21    1
   22    21    22    1
   23    21    23    1
   24    13    24    1
   25    24    25    1
@<TRIPOS>SUBSTRUCTURE
       1 MOL1            1 RESIDUE      1      MOL     
@<SCITEGIC>MOL_PROPERTY
VConf Rank
SciTegic.value.IntegerValue
50

@<SCITEGIC>MOL_PROPERTY
Conf_Id
SciTegic.value.IntegerValue
68

@<SCITEGIC>MOL_PROPERTY
Delta U+W
SciTegic.value.DoubleValue
-1.765

@<SCITEGIC>MOL_PROPERTY
U+W
SciTegic.value.DoubleValue
9.148

@<SCITEGIC>MOL_PROPERTY
Grad RMS
SciTegic.value.DoubleValue
0.000000

@<SCITEGIC>MOL_PROPERTY
U
SciTegic.value.DoubleValue
11.181

@<SCITEGIC>MOL_PROPERTY
W
SciTegic.value.DoubleValue
-2.032

@<SCITEGIC>MOL_PROPERTY
W(PB)
SciTegic.value.DoubleValue
-4.147

@<SCITEGIC>MOL_PROPERTY
W(SA)
SciTegic.value.DoubleValue
2.114

@<SCITEGIC>MOL_PROPERTY
Valence
SciTegic.value.DoubleValue
16.955

@<SCITEGIC>MOL_PROPERTY
Coulomb
SciTegic.value.DoubleValue
-8.661

@<SCITEGIC>MOL_PROPERTY
VdW
SciTegic.value.DoubleValue
2.887

@<SCITEGIC>MOL_PROPERTY
VdW6
SciTegic.value.DoubleValue
-12.561

@<SCITEGIC>MOL_PROPERTY
VdW12
SciTegic.value.DoubleValue
15.448

@<SCITEGIC>MOL_PROPERTY
Bond
SciTegic.value.DoubleValue
0.433

@<SCITEGIC>MOL_PROPERTY
Angle
SciTegic.value.DoubleValue
5.121

@<SCITEGIC>MOL_PROPERTY
Pdih
SciTegic.value.DoubleValue
11.402

@<SCITEGIC>MOL_PROPERTY
Idih
SciTegic.value.DoubleValue
0.000

@<SCITEGIC>MOL_PROPERTY
Tether
SciTegic.value.DoubleValue
0.000

@<TRIPOS>MOLECULE
guest-s17_confgen4.mol2 : confsearch ligand conformer 51
          25          25           1
SMALL
USER_CHARGES
 
@<TRIPOS>ATOM
       1    C1      19.785504   20.584032   21.503044 C.3        1 MOL1        -0.1684
       2    H1      19.437148   21.437168   20.904811 H          1 MOL1         0.0833
       3    H2      20.341592   19.963018   20.791707 H          1 MOL1         0.0833
       4    C2      18.539639   19.826170   22.031031 C.3        1 MOL1        -0.1684
       5    H3      18.272657   20.159616   23.042044 H          1 MOL1         0.0833
       6    H4      17.686830   20.113857   21.400974 H          1 MOL1         0.0833
       7    C3      18.644611   18.279558   21.971259 C.3        1 MOL1        -0.1684
       8    H5      18.864988   17.968882   20.940730 H          1 MOL1         0.0833
       9    H6      17.650869   17.868832   22.196235 H          1 MOL1         0.0833
      10    C4      19.660646   17.612409   22.936214 C.3        1 MOL1        -0.1760
      11    H7      19.438093   17.887268   23.974231 H          1 MOL1         0.0833
      12    H8      19.484935   16.529515   22.880736 H          1 MOL1         0.0833
      13    C5      21.147960   17.890055   22.596074 C.3        1 MOL1         0.1219
      14    H9      21.221421   18.211805   21.550787 H          1 MOL1         0.0790
      15    C6      21.834853   18.942490   23.500840 C.3        1 MOL1        -0.1760
      16    H10     22.076082   18.470921   24.462613 H          1 MOL1         0.0833
      17    H11     22.798045   19.212311   23.048577 H          1 MOL1         0.0833
      18    C7      21.041336   20.238795   23.807413 C.3        1 MOL1        -0.1684
      19    H12     21.639623   20.828701   24.515076 H          1 MOL1         0.0833
      20    H13     20.119965   20.004427   24.352807 H          1 MOL1         0.0833
      21    C8      20.731334   21.150424   22.593753 C.3        1 MOL1        -0.1684
      22    H14     21.673633   21.460837   22.122263 H          1 MOL1         0.0833
      23    H15     20.277900   22.072000   22.983743 H          1 MOL1         0.0833
      24    O1      21.876343   16.675305   22.724619 O.3        1 MOL1        -0.5508
      25    H16     21.784595   16.394740   23.658297 H          1 MOL1         0.3780
@<TRIPOS>BOND
    1     1     2    1
    2     1     3    1
    3     1     4    1
    4     4     5    1
    5     4     6    1
    6     4     7    1
    7     7     8    1
    8     7     9    1
    9     7    10    1
   10    10    11    1
   11    10    12    1
   12    10    13    1
   13    13    14    1
   14    13    15    1
   15    15    16    1
   16    15    17    1
   17    15    18    1
   18    18    19    1
   19    18    20    1
   20     1    21    1
   21    18    21    1
   22    21    22    1
   23    21    23    1
   24    13    24    1
   25    24    25    1
@<TRIPOS>SUBSTRUCTURE
       1 MOL1            1 RESIDUE      1      MOL     
@<SCITEGIC>MOL_PROPERTY
VConf Rank
SciTegic.value.IntegerValue
51

@<SCITEGIC>MOL_PROPERTY
Conf_Id
SciTegic.value.IntegerValue
165

@<SCITEGIC>MOL_PROPERTY
Delta U+W
SciTegic.value.DoubleValue
-1.999

@<SCITEGIC>MOL_PROPERTY
U+W
SciTegic.value.DoubleValue
8.915

@<SCITEGIC>MOL_PROPERTY
Grad RMS
SciTegic.value.DoubleValue
0.000000

@<SCITEGIC>MOL_PROPERTY
U
SciTegic.value.DoubleValue
10.935

@<SCITEGIC>MOL_PROPERTY
W
SciTegic.value.DoubleValue
-2.020

@<SCITEGIC>MOL_PROPERTY
W(PB)
SciTegic.value.DoubleValue
-4.135

@<SCITEGIC>MOL_PROPERTY
W(SA)
SciTegic.value.DoubleValue
2.115

@<SCITEGIC>MOL_PROPERTY
Valence
SciTegic.value.DoubleValue
16.757

@<SCITEGIC>MOL_PROPERTY
Coulomb
SciTegic.value.DoubleValue
-8.731

@<SCITEGIC>MOL_PROPERTY
VdW
SciTegic.value.DoubleValue
2.908

@<SCITEGIC>MOL_PROPERTY
VdW6
SciTegic.value.DoubleValue
-12.597

@<SCITEGIC>MOL_PROPERTY
VdW12
SciTegic.value.DoubleValue
15.506

@<SCITEGIC>MOL_PROPERTY
Bond
SciTegic.value.DoubleValue
0.434

@<SCITEGIC>MOL_PROPERTY
Angle
SciTegic.value.DoubleValue
5.069

@<SCITEGIC>MOL_PROPERTY
Pdih
SciTegic.value.DoubleValue
11.254

@<SCITEGIC>MOL_PROPERTY
Idih
SciTegic.value.DoubleValue
0.000

@<SCITEGIC>MOL_PROPERTY
Tether
SciTegic.value.DoubleValue
0.000

@<TRIPOS>MOLECULE
guest-s17_confgen4.mol2 : confsearch ligand conformer 52
          25          25           1
SMALL
USER_CHARGES
 
@<TRIPOS>ATOM
       1    C1      22.073349   19.428336   23.093922 C.3        1 MOL1        -0.1684
       2    H1      23.102848   19.640903   23.413344 H          1 MOL1         0.0833
       3    H2      22.166919   18.550971   22.444093 H          1 MOL1         0.0833
       4    C2      21.585048   20.659895   22.287525 C.3        1 MOL1        -0.1684
       5    H3      21.927687   21.561180   22.814109 H          1 MOL1         0.0833
       6    H4      22.094706   20.674111   21.314584 H          1 MOL1         0.0833
       7    C3      20.058170   20.805619   22.069012 C.3        1 MOL1        -0.1684
       8    H5      19.889215   21.770488   21.571838 H          1 MOL1         0.0833
       9    H6      19.542638   20.897102   23.031899 H          1 MOL1         0.0833
      10    C4      19.387294   19.713317   21.196755 C.3        1 MOL1        -0.1760
      11    H7      18.340902   20.010783   21.044794 H          1 MOL1         0.0833
      12    H8      19.851268   19.719462   20.202065 H          1 MOL1         0.0833
      13    C5      19.403656   18.264242   21.742350 C.3        1 MOL1         0.1219
      14    H9      20.395211   17.826741   21.577212 H          1 MOL1         0.0790
      15    C6      19.040153   18.134972   23.244128 C.3        1 MOL1        -0.1760
      16    H10     18.455590   18.999565   23.580109 H          1 MOL1         0.0833
      17    H11     18.370564   17.272793   23.365908 H          1 MOL1         0.0833
      18    C7      20.253264   17.900699   24.183525 C.3        1 MOL1        -0.1684
      19    H12     20.805950   17.012602   23.847654 H          1 MOL1         0.0833
      20    H13     19.861505   17.645034   25.177474 H          1 MOL1         0.0833
      21    C8      21.239493   19.085802   24.356012 C.3        1 MOL1        -0.1684
      22    H14     21.943904   18.803167   25.150325 H          1 MOL1         0.0833
      23    H15     20.718839   19.972908   24.738858 H          1 MOL1         0.0833
      24    O1      18.463040   17.512727   20.983416 O.3        1 MOL1        -0.5508
      25    H16     18.742321   17.575169   20.046110 H          1 MOL1         0.3780
@<TRIPOS>BOND
    1     1     2    1
    2     1     3    1
    3     1     4    1
    4     4     5    1
    5     4     6    1
    6     4     7    1
    7     7     8    1
    8     7     9    1
    9     7    10    1
   10    10    11    1
   11    10    12    1
   12    10    13    1
   13    13    14    1
   14    13    15    1
   15    15    16    1
   16    15    17    1
   17    15    18    1
   18    18    19    1
   19    18    20    1
   20     1    21    1
   21    18    21    1
   22    21    22    1
   23    21    23    1
   24    13    24    1
   25    24    25    1
@<TRIPOS>SUBSTRUCTURE
       1 MOL1            1 RESIDUE      1      MOL     
@<SCITEGIC>MOL_PROPERTY
VConf Rank
SciTegic.value.IntegerValue
52

@<SCITEGIC>MOL_PROPERTY
Conf_Id
SciTegic.value.IntegerValue
133

@<SCITEGIC>MOL_PROPERTY
Delta U+W
SciTegic.value.DoubleValue
-2.139

@<SCITEGIC>MOL_PROPERTY
U+W
SciTegic.value.DoubleValue
8.774

@<SCITEGIC>MOL_PROPERTY
Grad RMS
SciTegic.value.DoubleValue
0.000000

@<SCITEGIC>MOL_PROPERTY
U
SciTegic.value.DoubleValue
10.905

@<SCITEGIC>MOL_PROPERTY
W
SciTegic.value.DoubleValue
-2.131

@<SCITEGIC>MOL_PROPERTY
W(PB)
SciTegic.value.DoubleValue
-4.281

@<SCITEGIC>MOL_PROPERTY
W(SA)
SciTegic.value.DoubleValue
2.150

@<SCITEGIC>MOL_PROPERTY
Valence
SciTegic.value.DoubleValue
16.378

@<SCITEGIC>MOL_PROPERTY
Coulomb
SciTegic.value.DoubleValue
-8.448

@<SCITEGIC>MOL_PROPERTY
VdW
SciTegic.value.DoubleValue
2.976

@<SCITEGIC>MOL_PROPERTY
VdW6
SciTegic.value.DoubleValue
-12.570

@<SCITEGIC>MOL_PROPERTY
VdW12
SciTegic.value.DoubleValue
15.545

@<SCITEGIC>MOL_PROPERTY
Bond
SciTegic.value.DoubleValue
0.439

@<SCITEGIC>MOL_PROPERTY
Angle
SciTegic.value.DoubleValue
5.049

@<SCITEGIC>MOL_PROPERTY
Pdih
SciTegic.value.DoubleValue
10.889

@<SCITEGIC>MOL_PROPERTY
Idih
SciTegic.value.DoubleValue
0.000

@<SCITEGIC>MOL_PROPERTY
Tether
SciTegic.value.DoubleValue
0.000

@<TRIPOS>MOLECULE
guest-s17_confgen4.mol2 : confsearch ligand conformer 53
          25          25           1
SMALL
USER_CHARGES
 
@<TRIPOS>ATOM
       1    C1      19.542799   17.603506   22.277182 C.3        1 MOL1        -0.1684
       2    H1      19.086198   16.614067   22.137142 H          1 MOL1         0.0833
       3    H2      19.887342   17.887077   21.276342 H          1 MOL1         0.0833
       4    C2      20.745552   17.445447   23.243580 C.3        1 MOL1        -0.1684
       5    H3      20.452226   17.661794   24.278840 H          1 MOL1         0.0833
       6    H4      21.031748   16.384738   23.243629 H          1 MOL1         0.0833
       7    C3      22.009062   18.254674   22.849162 C.3        1 MOL1        -0.1684
       8    H5      22.311157   17.983971   21.828159 H          1 MOL1         0.0833
       9    H6      22.832569   17.924623   23.496986 H          1 MOL1         0.0833
      10    C4      21.910202   19.799518   22.961744 C.3        1 MOL1        -0.1760
      11    H7      21.640048   20.093661   23.982829 H          1 MOL1         0.0833
      12    H8      22.922882   20.196486   22.808681 H          1 MOL1         0.0833
      13    C5      20.963351   20.461646   21.927702 C.3        1 MOL1         0.1219
      14    H9      20.806219   19.767808   21.093583 H          1 MOL1         0.0790
      15    C6      19.590198   20.896757   22.495925 C.3        1 MOL1        -0.1760
      16    H10     19.733766   21.823434   23.067916 H          1 MOL1         0.0833
      17    H11     18.930007   21.157048   21.658600 H          1 MOL1         0.0833
      18    C7      18.855353   19.890839   23.419049 C.3        1 MOL1        -0.1684
      19    H12     17.946626   20.387269   23.785753 H          1 MOL1         0.0833
      20    H13     19.446769   19.696090   24.321042 H          1 MOL1         0.0833
      21    C8      18.419809   18.556873   22.762404 C.3        1 MOL1        -0.1684
      22    H14     17.743977   18.768433   21.922724 H          1 MOL1         0.0833
      23    H15     17.814227   18.011816   23.499418 H          1 MOL1         0.0833
      24    O1      21.599637   21.626010   21.413011 O.3        1 MOL1        -0.5508
      25    H16     21.000645   21.997328   20.732004 H          1 MOL1         0.3780
@<TRIPOS>BOND
    1     1     2    1
    2     1     3    1
    3     1     4    1
    4     4     5    1
    5     4     6    1
    6     4     7    1
    7     7     8    1
    8     7     9    1
    9     7    10    1
   10    10    11    1
   11    10    12    1
   12    10    13    1
   13    13    14    1
   14    13    15    1
   15    15    16    1
   16    15    17    1
   17    15    18    1
   18    18    19    1
   19    18    20    1
   20     1    21    1
   21    18    21    1
   22    21    22    1
   23    21    23    1
   24    13    24    1
   25    24    25    1
@<TRIPOS>SUBSTRUCTURE
       1 MOL1            1 RESIDUE      1      MOL     
@<SCITEGIC>MOL_PROPERTY
VConf Rank
SciTegic.value.IntegerValue
53

@<SCITEGIC>MOL_PROPERTY
Conf_Id
SciTegic.value.IntegerValue
95

@<SCITEGIC>MOL_PROPERTY
Delta U+W
SciTegic.value.DoubleValue
-2.190

@<SCITEGIC>MOL_PROPERTY
U+W
SciTegic.value.DoubleValue
8.723

@<SCITEGIC>MOL_PROPERTY
Grad RMS
SciTegic.value.DoubleValue
0.000000

@<SCITEGIC>MOL_PROPERTY
U
SciTegic.value.DoubleValue
10.905

@<SCITEGIC>MOL_PROPERTY
W
SciTegic.value.DoubleValue
-2.182

@<SCITEGIC>MOL_PROPERTY
W(PB)
SciTegic.value.DoubleValue
-4.296

@<SCITEGIC>MOL_PROPERTY
W(SA)
SciTegic.value.DoubleValue
2.114

@<SCITEGIC>MOL_PROPERTY
Valence
SciTegic.value.DoubleValue
16.377

@<SCITEGIC>MOL_PROPERTY
Coulomb
SciTegic.value.DoubleValue
-8.448

@<SCITEGIC>MOL_PROPERTY
VdW
SciTegic.value.DoubleValue
2.976

@<SCITEGIC>MOL_PROPERTY
VdW6
SciTegic.value.DoubleValue
-12.570

@<SCITEGIC>MOL_PROPERTY
VdW12
SciTegic.value.DoubleValue
15.546

@<SCITEGIC>MOL_PROPERTY
Bond
SciTegic.value.DoubleValue
0.439

@<SCITEGIC>MOL_PROPERTY
Angle
SciTegic.value.DoubleValue
5.049

@<SCITEGIC>MOL_PROPERTY
Pdih
SciTegic.value.DoubleValue
10.889

@<SCITEGIC>MOL_PROPERTY
Idih
SciTegic.value.DoubleValue
0.000

@<SCITEGIC>MOL_PROPERTY
Tether
SciTegic.value.DoubleValue
0.000

@<TRIPOS>MOLECULE
guest-s17_confgen4.mol2 : confsearch ligand conformer 54
          25          25           1
SMALL
USER_CHARGES
 
@<TRIPOS>ATOM
       1    C1      19.096288   18.776710   21.339585 C.3        1 MOL1        -0.1684
       2    H1      18.470508   18.500504   20.479928 H          1 MOL1         0.0833
       3    H2      18.458539   19.460703   21.908501 H          1 MOL1         0.0833
       4    C2      20.343904   19.517638   20.775051 C.3        1 MOL1        -0.1684
       5    H3      20.594950   19.050502   19.812917 H          1 MOL1         0.0833
       6    H4      20.064869   20.552084   20.533117 H          1 MOL1         0.0833
       7    C3      21.641088   19.522460   21.625806 C.3        1 MOL1        -0.1684
       8    H5      22.434168   19.981766   21.020100 H          1 MOL1         0.0833
       9    H6      21.987421   18.493206   21.762620 H          1 MOL1         0.0833
      10    C4      21.604624   20.281080   22.985838 C.3        1 MOL1        -0.1760
      11    H7      22.417220   19.907239   23.622473 H          1 MOL1         0.0833
      12    H8      21.851120   21.329944   22.775158 H          1 MOL1         0.0833
      13    C5      20.282922   20.273496   23.794998 C.3        1 MOL1         0.1219
      14    H9      19.494463   20.691613   23.160705 H          1 MOL1         0.0790
      15    C6      19.816711   18.905310   24.370591 C.3        1 MOL1        -0.1760
      16    H10     20.311430   18.760519   25.340438 H          1 MOL1         0.0833
      17    H11     18.744360   18.972893   24.593714 H          1 MOL1         0.0833
      18    C7      20.077923   17.622518   23.535588 C.3        1 MOL1        -0.1684
      19    H12     19.779909   16.761216   24.148824 H          1 MOL1         0.0833
      20    H13     21.156698   17.486059   23.410313 H          1 MOL1         0.0833
      21    C8      19.340667   17.489661   22.170923 C.3        1 MOL1        -0.1684
      22    H14     18.355709   17.046336   22.371390 H          1 MOL1         0.0833
      23    H15     19.871189   16.754507   21.550812 H          1 MOL1         0.0833
      24    O1      20.453300   21.159097   24.895587 O.3        1 MOL1        -0.5508
      25    H16     20.683103   22.034888   24.521103 H          1 MOL1         0.3780
@<TRIPOS>BOND
    1     1     2    1
    2     1     3    1
    3     1     4    1
    4     4     5    1
    5     4     6    1
    6     4     7    1
    7     7     8    1
    8     7     9    1
    9     7    10    1
   10    10    11    1
   11    10    12    1
   12    10    13    1
   13    13    14    1
   14    13    15    1
   15    15    16    1
   16    15    17    1
   17    15    18    1
   18    18    19    1
   19    18    20    1
   20     1    21    1
   21    18    21    1
   22    21    22    1
   23    21    23    1
   24    13    24    1
   25    24    25    1
@<TRIPOS>SUBSTRUCTURE
       1 MOL1            1 RESIDUE      1      MOL     
@<SCITEGIC>MOL_PROPERTY
VConf Rank
SciTegic.value.IntegerValue
54

@<SCITEGIC>MOL_PROPERTY
Conf_Id
SciTegic.value.IntegerValue
161

@<SCITEGIC>MOL_PROPERTY
Delta U+W
SciTegic.value.DoubleValue
2.120

@<SCITEGIC>MOL_PROPERTY
U+W
SciTegic.value.DoubleValue
13.033

@<SCITEGIC>MOL_PROPERTY
Grad RMS
SciTegic.value.DoubleValue
0.000000

@<SCITEGIC>MOL_PROPERTY
U
SciTegic.value.DoubleValue
15.076

@<SCITEGIC>MOL_PROPERTY
W
SciTegic.value.DoubleValue
-2.043

@<SCITEGIC>MOL_PROPERTY
W(PB)
SciTegic.value.DoubleValue
-4.186

@<SCITEGIC>MOL_PROPERTY
W(SA)
SciTegic.value.DoubleValue
2.143

@<SCITEGIC>MOL_PROPERTY
Valence
SciTegic.value.DoubleValue
18.884

@<SCITEGIC>MOL_PROPERTY
Coulomb
SciTegic.value.DoubleValue
-8.074

@<SCITEGIC>MOL_PROPERTY
VdW
SciTegic.value.DoubleValue
4.266

@<SCITEGIC>MOL_PROPERTY
VdW6
SciTegic.value.DoubleValue
-13.486

@<SCITEGIC>MOL_PROPERTY
VdW12
SciTegic.value.DoubleValue
17.752

@<SCITEGIC>MOL_PROPERTY
Bond
SciTegic.value.DoubleValue
0.713

@<SCITEGIC>MOL_PROPERTY
Angle
SciTegic.value.DoubleValue
8.955

@<SCITEGIC>MOL_PROPERTY
Pdih
SciTegic.value.DoubleValue
9.215

@<SCITEGIC>MOL_PROPERTY
Idih
SciTegic.value.DoubleValue
0.000

@<SCITEGIC>MOL_PROPERTY
Tether
SciTegic.value.DoubleValue
0.000

@<TRIPOS>MOLECULE
guest-s17_confgen4.mol2 : confsearch ligand conformer 55
          25          25           1
SMALL
USER_CHARGES
 
@<TRIPOS>ATOM
       1    C1      21.881633   19.508334   23.801950 C.3        1 MOL1        -0.1684
       2    H1      22.730634   19.414829   24.492923 H          1 MOL1         0.0833
       3    H2      21.711640   20.588788   23.712750 H          1 MOL1         0.0833
       4    C2      20.652741   18.832519   24.459806 C.3        1 MOL1        -0.1684
       5    H3      20.634773   17.756597   24.240139 H          1 MOL1         0.0833
       6    H4      20.794129   18.904386   25.547012 H          1 MOL1         0.0833
       7    C3      19.283607   19.494636   24.139799 C.3        1 MOL1        -0.1684
       8    H5      19.374476   20.587957   24.088046 H          1 MOL1         0.0833
       9    H6      18.627879   19.298394   24.999282 H          1 MOL1         0.0833
      10    C4      18.557303   18.942046   22.886164 C.3        1 MOL1        -0.1760
      11    H7      18.761856   17.869737   22.779958 H          1 MOL1         0.0833
      12    H8      17.476921   19.006885   23.071109 H          1 MOL1         0.0833
      13    C5      18.821641   19.691206   21.555482 C.3        1 MOL1         0.1219
      14    H9      18.330860   20.673054   21.617778 H          1 MOL1         0.0790
      15    C6      20.303004   19.936542   21.186351 C.3        1 MOL1        -0.1760
      16    H10     20.347484   20.258355   20.137284 H          1 MOL1         0.0833
      17    H11     20.672571   20.798723   21.751882 H          1 MOL1         0.0833
      18    C7      21.235466   18.709897   21.373668 C.3        1 MOL1        -0.1684
      19    H12     21.725547   18.489087   20.415653 H          1 MOL1         0.0833
      20    H13     20.661424   17.806973   21.610951 H          1 MOL1         0.0833
      21    C8      22.335464   18.912284   22.443119 C.3        1 MOL1        -0.1684
      22    H14     23.115890   19.564178   22.027451 H          1 MOL1         0.0833
      23    H15     22.820938   17.943724   22.624743 H          1 MOL1         0.0833
      24    O1      18.221129   18.945464   20.505901 O.3        1 MOL1        -0.5508
      25    H16     18.773933   18.145460   20.395404 H          1 MOL1         0.3780
@<TRIPOS>BOND
    1     1     2    1
    2     1     3    1
    3     1     4    1
    4     4     5    1
    5     4     6    1
    6     4     7    1
    7     7     8    1
    8     7     9    1
    9     7    10    1
   10    10    11    1
   11    10    12    1
   12    10    13    1
   13    13    14    1
   14    13    15    1
   15    15    16    1
   16    15    17    1
   17    15    18    1
   18    18    19    1
   19    18    20    1
   20     1    21    1
   21    18    21    1
   22    21    22    1
   23    21    23    1
   24    13    24    1
   25    24    25    1
@<TRIPOS>SUBSTRUCTURE
       1 MOL1            1 RESIDUE      1      MOL     
@<SCITEGIC>MOL_PROPERTY
VConf Rank
SciTegic.value.IntegerValue
55

@<SCITEGIC>MOL_PROPERTY
Conf_Id
SciTegic.value.IntegerValue
164

@<SCITEGIC>MOL_PROPERTY
Delta U+W
SciTegic.value.DoubleValue
0.008

@<SCITEGIC>MOL_PROPERTY
U+W
SciTegic.value.DoubleValue
10.922

@<SCITEGIC>MOL_PROPERTY
Grad RMS
SciTegic.value.DoubleValue
0.000000

@<SCITEGIC>MOL_PROPERTY
U
SciTegic.value.DoubleValue
12.433

@<SCITEGIC>MOL_PROPERTY
W
SciTegic.value.DoubleValue
-1.511

@<SCITEGIC>MOL_PROPERTY
W(PB)
SciTegic.value.DoubleValue
-3.669

@<SCITEGIC>MOL_PROPERTY
W(SA)
SciTegic.value.DoubleValue
2.157

@<SCITEGIC>MOL_PROPERTY
Valence
SciTegic.value.DoubleValue
19.007

@<SCITEGIC>MOL_PROPERTY
Coulomb
SciTegic.value.DoubleValue
-9.373

@<SCITEGIC>MOL_PROPERTY
VdW
SciTegic.value.DoubleValue
2.799

@<SCITEGIC>MOL_PROPERTY
VdW6
SciTegic.value.DoubleValue
-12.597

@<SCITEGIC>MOL_PROPERTY
VdW12
SciTegic.value.DoubleValue
15.396

@<SCITEGIC>MOL_PROPERTY
Bond
SciTegic.value.DoubleValue
0.425

@<SCITEGIC>MOL_PROPERTY
Angle
SciTegic.value.DoubleValue
4.784

@<SCITEGIC>MOL_PROPERTY
Pdih
SciTegic.value.DoubleValue
13.799

@<SCITEGIC>MOL_PROPERTY
Idih
SciTegic.value.DoubleValue
0.000

@<SCITEGIC>MOL_PROPERTY
Tether
SciTegic.value.DoubleValue
0.000

@<TRIPOS>MOLECULE
guest-s17_confgen4.mol2 : confsearch ligand conformer 56
          25          25           1
SMALL
USER_CHARGES
 
@<TRIPOS>ATOM
       1    C1      19.163100   19.737779   23.944930 C.3        1 MOL1        -0.1684
       2    H1      19.863120   20.572565   23.826494 H          1 MOL1         0.0833
       3    H2      18.474454   20.064787   24.735819 H          1 MOL1         0.0833
       4    C2      19.902996   18.482098   24.469848 C.3        1 MOL1        -0.1684
       5    H3      20.347073   18.743689   25.440037 H          1 MOL1         0.0833
       6    H4      19.170504   17.691622   24.682240 H          1 MOL1         0.0833
       7    C3      21.027297   17.899000   23.576145 C.3        1 MOL1        -0.1684
       8    H5      20.605462   17.245527   22.804076 H          1 MOL1         0.0833
       9    H6      21.626764   17.227875   24.206410 H          1 MOL1         0.0833
      10    C4      21.979897   18.947026   22.941342 C.3        1 MOL1        -0.1760
      11    H7      21.996792   19.870890   23.532078 H          1 MOL1         0.0833
      12    H8      22.999014   18.542682   23.005730 H          1 MOL1         0.0833
      13    C5      21.708713   19.253823   21.447084 C.3        1 MOL1         0.1219
      14    H9      21.695830   18.301073   20.898721 H          1 MOL1         0.0790
      15    C6      20.398714   20.014970   21.122992 C.3        1 MOL1        -0.1760
      16    H10     20.363610   20.973965   21.653912 H          1 MOL1         0.0833
      17    H11     20.434437   20.274806   20.056480 H          1 MOL1         0.0833
      18    C7      19.096828   19.202862   21.356136 C.3        1 MOL1        -0.1684
      19    H12     19.299989   18.127249   21.302797 H          1 MOL1         0.0833
      20    H13     18.416853   19.395902   20.515081 H          1 MOL1         0.0833
      21    C8      18.325505   19.547555   22.655757 C.3        1 MOL1        -0.1684
      22    H14     17.560152   18.779274   22.830361 H          1 MOL1         0.0833
      23    H15     17.774064   20.481533   22.481119 H          1 MOL1         0.0833
      24    O1      22.792219   20.036324   20.964483 O.3        1 MOL1        -0.5508
      25    H16     22.775253   20.873932   21.471349 H          1 MOL1         0.3780
@<TRIPOS>BOND
    1     1     2    1
    2     1     3    1
    3     1     4    1
    4     4     5    1
    5     4     6    1
    6     4     7    1
    7     7     8    1
    8     7     9    1
    9     7    10    1
   10    10    11    1
   11    10    12    1
   12    10    13    1
   13    13    14    1
   14    13    15    1
   15    15    16    1
   16    15    17    1
   17    15    18    1
   18    18    19    1
   19    18    20    1
   20     1    21    1
   21    18    21    1
   22    21    22    1
   23    21    23    1
   24    13    24    1
   25    24    25    1
@<TRIPOS>SUBSTRUCTURE
       1 MOL1            1 RESIDUE      1      MOL     
@<SCITEGIC>MOL_PROPERTY
VConf Rank
SciTegic.value.IntegerValue
56

@<SCITEGIC>MOL_PROPERTY
Conf_Id
SciTegic.value.IntegerValue
15

@<SCITEGIC>MOL_PROPERTY
Delta U+W
SciTegic.value.DoubleValue
-1.271

@<SCITEGIC>MOL_PROPERTY
U+W
SciTegic.value.DoubleValue
9.643

@<SCITEGIC>MOL_PROPERTY
Grad RMS
SciTegic.value.DoubleValue
0.000000

@<SCITEGIC>MOL_PROPERTY
U
SciTegic.value.DoubleValue
11.413

@<SCITEGIC>MOL_PROPERTY
W
SciTegic.value.DoubleValue
-1.770

@<SCITEGIC>MOL_PROPERTY
W(PB)
SciTegic.value.DoubleValue
-3.908

@<SCITEGIC>MOL_PROPERTY
W(SA)
SciTegic.value.DoubleValue
2.138

@<SCITEGIC>MOL_PROPERTY
Valence
SciTegic.value.DoubleValue
17.496

@<SCITEGIC>MOL_PROPERTY
Coulomb
SciTegic.value.DoubleValue
-8.736

@<SCITEGIC>MOL_PROPERTY
VdW
SciTegic.value.DoubleValue
2.653

@<SCITEGIC>MOL_PROPERTY
VdW6
SciTegic.value.DoubleValue
-12.485

@<SCITEGIC>MOL_PROPERTY
VdW12
SciTegic.value.DoubleValue
15.138

@<SCITEGIC>MOL_PROPERTY
Bond
SciTegic.value.DoubleValue
0.414

@<SCITEGIC>MOL_PROPERTY
Angle
SciTegic.value.DoubleValue
5.295

@<SCITEGIC>MOL_PROPERTY
Pdih
SciTegic.value.DoubleValue
11.787

@<SCITEGIC>MOL_PROPERTY
Idih
SciTegic.value.DoubleValue
0.000

@<SCITEGIC>MOL_PROPERTY
Tether
SciTegic.value.DoubleValue
0.000

@<TRIPOS>MOLECULE
guest-s17_confgen4.mol2 : confsearch ligand conformer 57
          25          25           1
SMALL
USER_CHARGES
 
@<TRIPOS>ATOM
       1    C1      21.906613   19.923390   23.498831 C.3        1 MOL1        -0.1684
       2    H1      22.753161   20.201288   24.141568 H          1 MOL1         0.0833
       3    H2      21.720824   20.811477   22.881621 H          1 MOL1         0.0833
       4    C2      22.376504   18.734719   22.619575 C.3        1 MOL1        -0.1684
       5    H3      23.156204   19.101969   21.938384 H          1 MOL1         0.0833
       6    H4      22.867277   17.990267   23.261219 H          1 MOL1         0.0833
       7    C3      21.288867   18.015230   21.786080 C.3        1 MOL1        -0.1684
       8    H5      20.721286   17.335561   22.432355 H          1 MOL1         0.0833
       9    H6      21.792138   17.359357   21.062661 H          1 MOL1         0.0833
      10    C4      20.342948   18.973276   21.016120 C.3        1 MOL1        -0.1760
      11    H7      20.706175   20.005698   21.066731 H          1 MOL1         0.0833
      12    H8      20.378829   18.713572   19.950070 H          1 MOL1         0.0833
      13    C5      18.863916   18.909024   21.461769 C.3        1 MOL1         0.1219
      14    H9      18.441131   17.970253   21.076035 H          1 MOL1         0.0790
      15    C6      18.598513   18.934997   22.989305 C.3        1 MOL1        -0.1760
      16    H10     17.515147   19.055075   23.124335 H          1 MOL1         0.0833
      17    H11     18.821129   17.953817   23.425469 H          1 MOL1         0.0833
      18    C7      19.309540   20.045541   23.807948 C.3        1 MOL1        -0.1684
      19    H12     18.651233   20.285128   24.654336 H          1 MOL1         0.0833
      20    H13     19.387211   20.975929   23.230751 H          1 MOL1         0.0833
      21    C8      20.685194   19.647011   24.410052 C.3        1 MOL1        -0.1684
      22    H14     20.681835   18.603585   24.752741 H          1 MOL1         0.0833
      23    H15     20.821889   20.250449   25.317990 H          1 MOL1         0.0833
      24    O1      18.173486   19.998422   20.866012 O.3        1 MOL1        -0.5508
      25    H16     18.513590   20.803511   21.305675 H          1 MOL1         0.3780
@<TRIPOS>BOND
    1     1     2    1
    2     1     3    1
    3     1     4    1
    4     4     5    1
    5     4     6    1
    6     4     7    1
    7     7     8    1
    8     7     9    1
    9     7    10    1
   10    10    11    1
   11    10    12    1
   12    10    13    1
   13    13    14    1
   14    13    15    1
   15    15    16    1
   16    15    17    1
   17    15    18    1
   18    18    19    1
   19    18    20    1
   20     1    21    1
   21    18    21    1
   22    21    22    1
   23    21    23    1
   24    13    24    1
   25    24    25    1
@<TRIPOS>SUBSTRUCTURE
       1 MOL1            1 RESIDUE      1      MOL     
@<SCITEGIC>MOL_PROPERTY
VConf Rank
SciTegic.value.IntegerValue
57

@<SCITEGIC>MOL_PROPERTY
Conf_Id
SciTegic.value.IntegerValue
115

@<SCITEGIC>MOL_PROPERTY
Delta U+W
SciTegic.value.DoubleValue
0.038

@<SCITEGIC>MOL_PROPERTY
U+W
SciTegic.value.DoubleValue
10.952

@<SCITEGIC>MOL_PROPERTY
Grad RMS
SciTegic.value.DoubleValue
0.000000

@<SCITEGIC>MOL_PROPERTY
U
SciTegic.value.DoubleValue
12.526

@<SCITEGIC>MOL_PROPERTY
W
SciTegic.value.DoubleValue
-1.575

@<SCITEGIC>MOL_PROPERTY
W(PB)
SciTegic.value.DoubleValue
-3.698

@<SCITEGIC>MOL_PROPERTY
W(SA)
SciTegic.value.DoubleValue
2.123

@<SCITEGIC>MOL_PROPERTY
Valence
SciTegic.value.DoubleValue
19.016

@<SCITEGIC>MOL_PROPERTY
Coulomb
SciTegic.value.DoubleValue
-9.226

@<SCITEGIC>MOL_PROPERTY
VdW
SciTegic.value.DoubleValue
2.737

@<SCITEGIC>MOL_PROPERTY
VdW6
SciTegic.value.DoubleValue
-12.612

@<SCITEGIC>MOL_PROPERTY
VdW12
SciTegic.value.DoubleValue
15.349

@<SCITEGIC>MOL_PROPERTY
Bond
SciTegic.value.DoubleValue
0.421

@<SCITEGIC>MOL_PROPERTY
Angle
SciTegic.value.DoubleValue
4.883

@<SCITEGIC>MOL_PROPERTY
Pdih
SciTegic.value.DoubleValue
13.711

@<SCITEGIC>MOL_PROPERTY
Idih
SciTegic.value.DoubleValue
0.000

@<SCITEGIC>MOL_PROPERTY
Tether
SciTegic.value.DoubleValue
0.000

@<TRIPOS>MOLECULE
guest-s17_confgen4.mol2 : confsearch ligand conformer 58
          25          25           1
SMALL
USER_CHARGES
 
@<TRIPOS>ATOM
       1    C1      19.888871   20.332347   24.454127 C.3        1 MOL1        -0.1684
       2    H1      19.765000   20.425866   25.541738 H          1 MOL1         0.0833
       3    H2      19.898128   21.361207   24.069629 H          1 MOL1         0.0833
       4    C2      18.654034   19.574484   23.913427 C.3        1 MOL1        -0.1684
       5    H3      18.577218   18.588701   24.391889 H          1 MOL1         0.0833
       6    H4      17.761728   20.128803   24.235172 H          1 MOL1         0.0833
       7    C3      18.594228   19.427763   22.375315 C.3        1 MOL1        -0.1684
       8    H5      18.902710   20.363696   21.890705 H          1 MOL1         0.0833
       9    H6      17.539703   19.290503   22.099092 H          1 MOL1         0.0833
      10    C4      19.383799   18.212789   21.818218 C.3        1 MOL1        -0.1760
      11    H7      19.662503   17.517007   22.619480 H          1 MOL1         0.0833
      12    H8      18.701615   17.650004   21.166713 H          1 MOL1         0.0833
      13    C5      20.631310   18.588244   20.987132 C.3        1 MOL1         0.1219
      14    H9      20.417451   19.504516   20.418468 H          1 MOL1         0.0790
      15    C6      21.917580   18.800615   21.815890 C.3        1 MOL1        -0.1760
      16    H10     22.180752   17.874041   22.342948 H          1 MOL1         0.0833
      17    H11     22.738528   18.986723   21.111035 H          1 MOL1         0.0833
      18    C7      21.878759   19.986411   22.810400 C.3        1 MOL1        -0.1684
      19    H12     21.391542   20.856254   22.349940 H          1 MOL1         0.0833
      20    H13     22.917453   20.296438   22.989921 H          1 MOL1         0.0833
      21    C8      21.251140   19.649626   24.188324 C.3        1 MOL1        -0.1684
      22    H14     21.948474   20.000971   24.961295 H          1 MOL1         0.0833
      23    H15     21.172318   18.564950   24.340288 H          1 MOL1         0.0833
      24    O1      20.883810   17.530589   20.069930 O.3        1 MOL1        -0.5508
      25    H16     21.643191   17.810209   19.517221 H          1 MOL1         0.3780
@<TRIPOS>BOND
    1     1     2    1
    2     1     3    1
    3     1     4    1
    4     4     5    1
    5     4     6    1
    6     4     7    1
    7     7     8    1
    8     7     9    1
    9     7    10    1
   10    10    11    1
   11    10    12    1
   12    10    13    1
   13    13    14    1
   14    13    15    1
   15    15    16    1
   16    15    17    1
   17    15    18    1
   18    18    19    1
   19    18    20    1
   20     1    21    1
   21    18    21    1
   22    21    22    1
   23    21    23    1
   24    13    24    1
   25    24    25    1
@<TRIPOS>SUBSTRUCTURE
       1 MOL1            1 RESIDUE      1      MOL     
@<SCITEGIC>MOL_PROPERTY
VConf Rank
SciTegic.value.IntegerValue
58

@<SCITEGIC>MOL_PROPERTY
Conf_Id
SciTegic.value.IntegerValue
30

@<SCITEGIC>MOL_PROPERTY
Delta U+W
SciTegic.value.DoubleValue
0.000

@<SCITEGIC>MOL_PROPERTY
U+W
SciTegic.value.DoubleValue
10.913

@<SCITEGIC>MOL_PROPERTY
Grad RMS
SciTegic.value.DoubleValue
0.000000

@<SCITEGIC>MOL_PROPERTY
U
SciTegic.value.DoubleValue
13.140

@<SCITEGIC>MOL_PROPERTY
W
SciTegic.value.DoubleValue
-2.227

@<SCITEGIC>MOL_PROPERTY
W(PB)
SciTegic.value.DoubleValue
-4.367

@<SCITEGIC>MOL_PROPERTY
W(SA)
SciTegic.value.DoubleValue
2.140

@<SCITEGIC>MOL_PROPERTY
Valence
SciTegic.value.DoubleValue
19.155

@<SCITEGIC>MOL_PROPERTY
Coulomb
SciTegic.value.DoubleValue
-8.157

@<SCITEGIC>MOL_PROPERTY
VdW
SciTegic.value.DoubleValue
2.142

@<SCITEGIC>MOL_PROPERTY
VdW6
SciTegic.value.DoubleValue
-11.576

@<SCITEGIC>MOL_PROPERTY
VdW12
SciTegic.value.DoubleValue
13.718

@<SCITEGIC>MOL_PROPERTY
Bond
SciTegic.value.DoubleValue
0.294

@<SCITEGIC>MOL_PROPERTY
Angle
SciTegic.value.DoubleValue
3.547

@<SCITEGIC>MOL_PROPERTY
Pdih
SciTegic.value.DoubleValue
15.314

@<SCITEGIC>MOL_PROPERTY
Idih
SciTegic.value.DoubleValue
0.000

@<SCITEGIC>MOL_PROPERTY
Tether
SciTegic.value.DoubleValue
0.000

@<TRIPOS>MOLECULE
guest-s17_confgen4.mol2 : confsearch ligand conformer 59
          25          25           1
SMALL
USER_CHARGES
 
@<TRIPOS>ATOM
       1    C1      20.862132   17.935728   21.060094 C.3        1 MOL1        -0.1684
       2    H1      20.289875   17.404559   20.287282 H          1 MOL1         0.0833
       3    H2      21.905223   17.617353   20.928297 H          1 MOL1         0.0833
       4    C2      20.379059   17.450819   22.449190 C.3        1 MOL1        -0.1684
       5    H3      20.277289   16.357694   22.409323 H          1 MOL1         0.0833
       6    H4      21.163011   17.628693   23.194398 H          1 MOL1         0.0833
       7    C3      19.027659   18.057181   22.905091 C.3        1 MOL1        -0.1684
       8    H5      18.333002   17.237847   23.134938 H          1 MOL1         0.0833
       9    H6      18.548448   18.609140   22.088186 H          1 MOL1         0.0833
      10    C4      19.132028   18.963852   24.157533 C.3        1 MOL1        -0.1760
      11    H7      18.176147   19.488735   24.286177 H          1 MOL1         0.0833
      12    H8      19.245255   18.323046   25.041679 H          1 MOL1         0.0833
      13    C5      20.283872   19.999723   24.177583 C.3        1 MOL1         0.1219
      14    H9      21.239581   19.475126   24.309510 H          1 MOL1         0.0790
      15    C6      20.382089   20.898123   22.920392 C.3        1 MOL1        -0.1760
      16    H10     19.385328   21.066204   22.492879 H          1 MOL1         0.0833
      17    H11     20.733171   21.889637   23.236044 H          1 MOL1         0.0833
      18    C7      21.374531   20.397789   21.832976 C.3        1 MOL1        -0.1684
      19    H12     22.266139   19.944218   22.286551 H          1 MOL1         0.0833
      20    H13     21.739041   21.287107   21.300544 H          1 MOL1         0.0833
      21    C8      20.760836   19.456405   20.767155 C.3        1 MOL1        -0.1684
      22    H14     21.285029   19.634414   19.818154 H          1 MOL1         0.0833
      23    H15     19.720247   19.742936   20.568650 H          1 MOL1         0.0833
      24    O1      20.078336   20.834397   25.311290 O.3        1 MOL1        -0.5508
      25    H16     20.851304   21.434573   25.363856 H          1 MOL1         0.3780
@<TRIPOS>BOND
    1     1     2    1
    2     1     3    1
    3     1     4    1
    4     4     5    1
    5     4     6    1
    6     4     7    1
    7     7     8    1
    8     7     9    1
    9     7    10    1
   10    10    11    1
   11    10    12    1
   12    10    13    1
   13    13    14    1
   14    13    15    1
   15    15    16    1
   16    15    17    1
   17    15    18    1
   18    18    19    1
   19    18    20    1
   20     1    21    1
   21    18    21    1
   22    21    22    1
   23    21    23    1
   24    13    24    1
   25    24    25    1
@<TRIPOS>SUBSTRUCTURE
       1 MOL1            1 RESIDUE      1      MOL     
@<SCITEGIC>MOL_PROPERTY
VConf Rank
SciTegic.value.IntegerValue
59

@<SCITEGIC>MOL_PROPERTY
Conf_Id
SciTegic.value.IntegerValue
162

@<SCITEGIC>MOL_PROPERTY
Delta U+W
SciTegic.value.DoubleValue
0.219

@<SCITEGIC>MOL_PROPERTY
U+W
SciTegic.value.DoubleValue
11.132

@<SCITEGIC>MOL_PROPERTY
Grad RMS
SciTegic.value.DoubleValue
0.000000

@<SCITEGIC>MOL_PROPERTY
U
SciTegic.value.DoubleValue
13.296

@<SCITEGIC>MOL_PROPERTY
W
SciTegic.value.DoubleValue
-2.164

@<SCITEGIC>MOL_PROPERTY
W(PB)
SciTegic.value.DoubleValue
-4.311

@<SCITEGIC>MOL_PROPERTY
W(SA)
SciTegic.value.DoubleValue
2.148

@<SCITEGIC>MOL_PROPERTY
Valence
SciTegic.value.DoubleValue
18.607

@<SCITEGIC>MOL_PROPERTY
Coulomb
SciTegic.value.DoubleValue
-8.339

@<SCITEGIC>MOL_PROPERTY
VdW
SciTegic.value.DoubleValue
3.028

@<SCITEGIC>MOL_PROPERTY
VdW6
SciTegic.value.DoubleValue
-12.271

@<SCITEGIC>MOL_PROPERTY
VdW12
SciTegic.value.DoubleValue
15.299

@<SCITEGIC>MOL_PROPERTY
Bond
SciTegic.value.DoubleValue
0.423

@<SCITEGIC>MOL_PROPERTY
Angle
SciTegic.value.DoubleValue
4.488

@<SCITEGIC>MOL_PROPERTY
Pdih
SciTegic.value.DoubleValue
13.696

@<SCITEGIC>MOL_PROPERTY
Idih
SciTegic.value.DoubleValue
0.000

@<SCITEGIC>MOL_PROPERTY
Tether
SciTegic.value.DoubleValue
0.000

@<TRIPOS>MOLECULE
guest-s17_confgen4.mol2 : confsearch ligand conformer 60
          25          25           1
SMALL
USER_CHARGES
 
@<TRIPOS>ATOM
       1    C1      22.262785   19.396277   23.250054 C.3        1 MOL1        -0.1684
       2    H1      21.926721   19.156357   24.266761 H          1 MOL1         0.0833
       3    H2      23.354433   19.489591   23.331060 H          1 MOL1         0.0833
       4    C2      21.953363   18.213908   22.298234 C.3        1 MOL1        -0.1684
       5    H3      21.944712   18.547718   21.251942 H          1 MOL1         0.0833
       6    H4      22.797997   17.515270   22.373313 H          1 MOL1         0.0833
       7    C3      20.670059   17.406852   22.640804 C.3        1 MOL1        -0.1684
       8    H5      20.535474   17.317682   23.727129 H          1 MOL1         0.0833
       9    H6      20.835709   16.381098   22.283706 H          1 MOL1         0.0833
      10    C4      19.369897   17.912844   21.963502 C.3        1 MOL1        -0.1760
      11    H7      19.598710   18.318522   20.970343 H          1 MOL1         0.0833
      12    H8      18.730427   17.041241   21.772187 H          1 MOL1         0.0833
      13    C5      18.515334   18.916504   22.778187 C.3        1 MOL1         0.1219
      14    H9      18.060525   18.368688   23.616123 H          1 MOL1         0.0790
      15    C6      19.267412   20.129380   23.375987 C.3        1 MOL1        -0.1760
      16    H10     18.527896   20.856092   23.736550 H          1 MOL1         0.0833
      17    H11     19.797436   19.809067   24.279343 H          1 MOL1         0.0833
      18    C7      20.231395   20.845083   22.393144 C.3        1 MOL1        -0.1684
      19    H12     19.939723   21.901373   22.318720 H          1 MOL1         0.0833
      20    H13     20.116659   20.451767   21.376164 H          1 MOL1         0.0833
      21    C8      21.721306   20.781663   22.807781 C.3        1 MOL1        -0.1684
      22    H14     21.888847   21.491757   23.629022 H          1 MOL1         0.0833
      23    H15     22.327340   21.148046   21.968019 H          1 MOL1         0.0833
      24    O1      17.482168   19.398576   21.927143 O.3        1 MOL1        -0.5508
      25    H16     16.954382   20.031965   22.455704 H          1 MOL1         0.3780
@<TRIPOS>BOND
    1     1     2    1
    2     1     3    1
    3     1     4    1
    4     4     5    1
    5     4     6    1
    6     4     7    1
    7     7     8    1
    8     7     9    1
    9     7    10    1
   10    10    11    1
   11    10    12    1
   12    10    13    1
   13    13    14    1
   14    13    15    1
   15    15    16    1
   16    15    17    1
   17    15    18    1
   18    18    19    1
   19    18    20    1
   20     1    21    1
   21    18    21    1
   22    21    22    1
   23    21    23    1
   24    13    24    1
   25    24    25    1
@<TRIPOS>SUBSTRUCTURE
       1 MOL1            1 RESIDUE      1      MOL     
@<SCITEGIC>MOL_PROPERTY
VConf Rank
SciTegic.value.IntegerValue
60

@<SCITEGIC>MOL_PROPERTY
Conf_Id
SciTegic.value.IntegerValue
155

@<SCITEGIC>MOL_PROPERTY
Delta U+W
SciTegic.value.DoubleValue
0.339

@<SCITEGIC>MOL_PROPERTY
U+W
SciTegic.value.DoubleValue
11.252

@<SCITEGIC>MOL_PROPERTY
Grad RMS
SciTegic.value.DoubleValue
0.000000

@<SCITEGIC>MOL_PROPERTY
U
SciTegic.value.DoubleValue
13.420

@<SCITEGIC>MOL_PROPERTY
W
SciTegic.value.DoubleValue
-2.167

@<SCITEGIC>MOL_PROPERTY
W(PB)
SciTegic.value.DoubleValue
-4.325

@<SCITEGIC>MOL_PROPERTY
W(SA)
SciTegic.value.DoubleValue
2.157

@<SCITEGIC>MOL_PROPERTY
Valence
SciTegic.value.DoubleValue
18.609

@<SCITEGIC>MOL_PROPERTY
Coulomb
SciTegic.value.DoubleValue
-8.052

@<SCITEGIC>MOL_PROPERTY
VdW
SciTegic.value.DoubleValue
2.863

@<SCITEGIC>MOL_PROPERTY
VdW6
SciTegic.value.DoubleValue
-12.524

@<SCITEGIC>MOL_PROPERTY
VdW12
SciTegic.value.DoubleValue
15.387

@<SCITEGIC>MOL_PROPERTY
Bond
SciTegic.value.DoubleValue
0.430

@<SCITEGIC>MOL_PROPERTY
Angle
SciTegic.value.DoubleValue
4.724

@<SCITEGIC>MOL_PROPERTY
Pdih
SciTegic.value.DoubleValue
13.455

@<SCITEGIC>MOL_PROPERTY
Idih
SciTegic.value.DoubleValue
0.000

@<SCITEGIC>MOL_PROPERTY
Tether
SciTegic.value.DoubleValue
0.000

@<TRIPOS>MOLECULE
guest-s17_confgen4.mol2 : confsearch ligand conformer 61
          25          25           1
SMALL
USER_CHARGES
 
@<TRIPOS>ATOM
       1    C1      20.292990   19.904757   20.789086 C.3        1 MOL1        -0.1684
       2    H1      20.870367   20.823683   20.620120 H          1 MOL1         0.0833
       3    H2      19.865271   19.644387   19.811309 H          1 MOL1         0.0833
       4    C2      21.261547   18.756793   21.177535 C.3        1 MOL1        -0.1684
       5    H3      20.704173   17.816294   21.231718 H          1 MOL1         0.0833
       6    H4      21.946833   18.600886   20.333264 H          1 MOL1         0.0833
       7    C3      22.139095   18.954145   22.448037 C.3        1 MOL1        -0.1684
       8    H5      23.045450   19.493557   22.141265 H          1 MOL1         0.0833
       9    H6      22.485850   17.972051   22.797281 H          1 MOL1         0.0833
      10    C4      21.530443   19.733740   23.645400 C.3        1 MOL1        -0.1760
      11    H7      22.334057   19.891379   24.376599 H          1 MOL1         0.0833
      12    H8      21.283952   20.749676   23.324666 H          1 MOL1         0.0833
      13    C5      20.323531   19.095894   24.394280 C.3        1 MOL1         0.1219
      14    H9      19.772520   19.906247   24.892762 H          1 MOL1         0.0790
      15    C6      19.309711   18.275121   23.558194 C.3        1 MOL1        -0.1760
      16    H10     19.826857   17.425239   23.103463 H          1 MOL1         0.0833
      17    H11     18.607362   17.805620   24.259550 H          1 MOL1         0.0833
      18    C7      18.454251   19.034390   22.499892 C.3        1 MOL1        -0.1684
      19    H12     17.568317   19.429565   23.015445 H          1 MOL1         0.0833
      20    H13     18.068890   18.310466   21.769307 H          1 MOL1         0.0833
      21    C8      19.106341   20.222793   21.745461 C.3        1 MOL1        -0.1684
      22    H14     19.382695   21.001321   22.463443 H          1 MOL1         0.0833
      23    H15     18.323778   20.699710   21.139635 H          1 MOL1         0.0833
      24    O1      20.841561   18.221800   25.391170 O.3        1 MOL1        -0.5508
      25    H16     21.442882   18.755358   25.950608 H          1 MOL1         0.3780
@<TRIPOS>BOND
    1     1     2    1
    2     1     3    1
    3     1     4    1
    4     4     5    1
    5     4     6    1
    6     4     7    1
    7     7     8    1
    8     7     9    1
    9     7    10    1
   10    10    11    1
   11    10    12    1
   12    10    13    1
   13    13    14    1
   14    13    15    1
   15    15    16    1
   16    15    17    1
   17    15    18    1
   18    18    19    1
   19    18    20    1
   20     1    21    1
   21    18    21    1
   22    21    22    1
   23    21    23    1
   24    13    24    1
   25    24    25    1
@<TRIPOS>SUBSTRUCTURE
       1 MOL1            1 RESIDUE      1      MOL     
@<SCITEGIC>MOL_PROPERTY
VConf Rank
SciTegic.value.IntegerValue
61

@<SCITEGIC>MOL_PROPERTY
Conf_Id
SciTegic.value.IntegerValue
146

@<SCITEGIC>MOL_PROPERTY
Delta U+W
SciTegic.value.DoubleValue
2.553

@<SCITEGIC>MOL_PROPERTY
U+W
SciTegic.value.DoubleValue
13.466

@<SCITEGIC>MOL_PROPERTY
Grad RMS
SciTegic.value.DoubleValue
0.000000

@<SCITEGIC>MOL_PROPERTY
U
SciTegic.value.DoubleValue
15.643

@<SCITEGIC>MOL_PROPERTY
W
SciTegic.value.DoubleValue
-2.176

@<SCITEGIC>MOL_PROPERTY
W(PB)
SciTegic.value.DoubleValue
-4.307

@<SCITEGIC>MOL_PROPERTY
W(SA)
SciTegic.value.DoubleValue
2.131

@<SCITEGIC>MOL_PROPERTY
Valence
SciTegic.value.DoubleValue
18.916

@<SCITEGIC>MOL_PROPERTY
Coulomb
SciTegic.value.DoubleValue
-7.506

@<SCITEGIC>MOL_PROPERTY
VdW
SciTegic.value.DoubleValue
4.232

@<SCITEGIC>MOL_PROPERTY
VdW6
SciTegic.value.DoubleValue
-13.632

@<SCITEGIC>MOL_PROPERTY
VdW12
SciTegic.value.DoubleValue
17.864

@<SCITEGIC>MOL_PROPERTY
Bond
SciTegic.value.DoubleValue
0.735

@<SCITEGIC>MOL_PROPERTY
Angle
SciTegic.value.DoubleValue
9.140

@<SCITEGIC>MOL_PROPERTY
Pdih
SciTegic.value.DoubleValue
9.042

@<SCITEGIC>MOL_PROPERTY
Idih
SciTegic.value.DoubleValue
0.000

@<SCITEGIC>MOL_PROPERTY
Tether
SciTegic.value.DoubleValue
0.000

@<TRIPOS>MOLECULE
guest-s17_confgen4.mol2 : confsearch ligand conformer 62
          25          25           1
SMALL
USER_CHARGES
 
@<TRIPOS>ATOM
       1    C1      21.868147   18.179716   21.800882 C.3        1 MOL1        -0.1684
       2    H1      22.368397   17.346304   22.312427 H          1 MOL1         0.0833
       3    H2      22.366060   18.270379   20.825804 H          1 MOL1         0.0833
       4    C2      22.134907   19.491953   22.579992 C.3        1 MOL1        -0.1684
       5    H3      23.221766   19.651617   22.586723 H          1 MOL1         0.0833
       6    H4      21.733772   20.350467   22.029364 H          1 MOL1         0.0833
       7    C3      21.657339   19.519667   24.053608 C.3        1 MOL1        -0.1684
       8    H5      22.017873   20.456321   24.500459 H          1 MOL1         0.0833
       9    H6      22.152984   18.713578   24.611282 H          1 MOL1         0.0833
      10    C4      20.128146   19.435157   24.298819 C.3        1 MOL1        -0.1760
      11    H7      19.792914   18.394110   24.255117 H          1 MOL1         0.0833
      12    H8      19.951191   19.736612   25.340139 H          1 MOL1         0.0833
      13    C5      19.261625   20.316305   23.362446 C.3        1 MOL1         0.1219
      14    H9      19.881920   21.110796   22.926255 H          1 MOL1         0.0790
      15    C6      18.558223   19.532040   22.225820 C.3        1 MOL1        -0.1760
      16    H10     17.965127   18.717928   22.663061 H          1 MOL1         0.0833
      17    H11     17.832930   20.204155   21.748797 H          1 MOL1         0.0833
      18    C7      19.464958   18.959887   21.102398 C.3        1 MOL1        -0.1684
      19    H12     20.041203   19.760475   20.620942 H          1 MOL1         0.0833
      20    H13     18.798970   18.574971   20.317999 H          1 MOL1         0.0833
      21    C8      20.388691   17.794450   21.541669 C.3        1 MOL1        -0.1684
      22    H14     20.387501   17.038615   20.744329 H          1 MOL1         0.0833
      23    H15     19.966939   17.275140   22.409577 H          1 MOL1         0.0833
      24    O1      18.243931   20.927416   24.147425 O.3        1 MOL1        -0.5508
      25    H16     17.745583   21.523835   23.550640 H          1 MOL1         0.3780
@<TRIPOS>BOND
    1     1     2    1
    2     1     3    1
    3     1     4    1
    4     4     5    1
    5     4     6    1
    6     4     7    1
    7     7     8    1
    8     7     9    1
    9     7    10    1
   10    10    11    1
   11    10    12    1
   12    10    13    1
   13    13    14    1
   14    13    15    1
   15    15    16    1
   16    15    17    1
   17    15    18    1
   18    18    19    1
   19    18    20    1
   20     1    21    1
   21    18    21    1
   22    21    22    1
   23    21    23    1
   24    13    24    1
   25    24    25    1
@<TRIPOS>SUBSTRUCTURE
       1 MOL1            1 RESIDUE      1      MOL     
@<SCITEGIC>MOL_PROPERTY
VConf Rank
SciTegic.value.IntegerValue
62

@<SCITEGIC>MOL_PROPERTY
Conf_Id
SciTegic.value.IntegerValue
62

@<SCITEGIC>MOL_PROPERTY
Delta U+W
SciTegic.value.DoubleValue
-1.779

@<SCITEGIC>MOL_PROPERTY
U+W
SciTegic.value.DoubleValue
9.134

@<SCITEGIC>MOL_PROPERTY
Grad RMS
SciTegic.value.DoubleValue
0.000000

@<SCITEGIC>MOL_PROPERTY
U
SciTegic.value.DoubleValue
11.364

@<SCITEGIC>MOL_PROPERTY
W
SciTegic.value.DoubleValue
-2.230

@<SCITEGIC>MOL_PROPERTY
W(PB)
SciTegic.value.DoubleValue
-4.359

@<SCITEGIC>MOL_PROPERTY
W(SA)
SciTegic.value.DoubleValue
2.129

@<SCITEGIC>MOL_PROPERTY
Valence
SciTegic.value.DoubleValue
16.582

@<SCITEGIC>MOL_PROPERTY
Coulomb
SciTegic.value.DoubleValue
-8.150

@<SCITEGIC>MOL_PROPERTY
VdW
SciTegic.value.DoubleValue
2.933

@<SCITEGIC>MOL_PROPERTY
VdW6
SciTegic.value.DoubleValue
-12.531

@<SCITEGIC>MOL_PROPERTY
VdW12
SciTegic.value.DoubleValue
15.464

@<SCITEGIC>MOL_PROPERTY
Bond
SciTegic.value.DoubleValue
0.439

@<SCITEGIC>MOL_PROPERTY
Angle
SciTegic.value.DoubleValue
5.099

@<SCITEGIC>MOL_PROPERTY
Pdih
SciTegic.value.DoubleValue
11.044

@<SCITEGIC>MOL_PROPERTY
Idih
SciTegic.value.DoubleValue
0.000

@<SCITEGIC>MOL_PROPERTY
Tether
SciTegic.value.DoubleValue
0.000

@<TRIPOS>MOLECULE
guest-s17_confgen4.mol2 : confsearch ligand conformer 63
          25          25           1
SMALL
USER_CHARGES
 
@<TRIPOS>ATOM
       1    C1      18.936438   20.392454   22.560342 C.3        1 MOL1        -0.1684
       2    H1      19.251171   20.445095   23.608815 H          1 MOL1         0.0833
       3    H2      18.082256   21.079847   22.493229 H          1 MOL1         0.0833
       4    C2      18.412908   18.973829   22.224075 C.3        1 MOL1        -0.1684
       5    H3      17.559660   18.772681   22.886189 H          1 MOL1         0.0833
       6    H4      18.004753   18.969976   21.204325 H          1 MOL1         0.0833
       7    C3      19.413096   17.798645   22.369972 C.3        1 MOL1        -0.1684
       8    H5      20.036519   17.710404   21.473005 H          1 MOL1         0.0833
       9    H6      18.823244   16.871915   22.386485 H          1 MOL1         0.0833
      10    C4      20.296294   17.834076   23.645911 C.3        1 MOL1        -0.1760
      11    H7      19.817506   18.418621   24.441098 H          1 MOL1         0.0833
      12    H8      20.348355   16.807892   24.032666 H          1 MOL1         0.0833
      13    C5      21.751515   18.315995   23.419022 C.3        1 MOL1         0.1219
      14    H9      22.192449   17.712904   22.612276 H          1 MOL1         0.0790
      15    C6      21.933197   19.811135   23.056454 C.3        1 MOL1        -0.1760
      16    H10     21.502908   20.450965   23.836363 H          1 MOL1         0.0833
      17    H11     23.011709   20.016479   23.077785 H          1 MOL1         0.0833
      18    C7      21.412736   20.213355   21.650428 C.3        1 MOL1        -0.1684
      19    H12     21.389335   19.342365   20.985767 H          1 MOL1         0.0833
      20    H13     22.148792   20.888351   21.192662 H          1 MOL1         0.0833
      21    C8      20.047534   20.947448   21.634509 C.3        1 MOL1        -0.1684
      22    H14     19.674729   20.984693   20.601981 H          1 MOL1         0.0833
      23    H15     20.225038   21.992233   21.923988 H          1 MOL1         0.0833
      24    O1      22.477558   18.075445   24.617948 O.3        1 MOL1        -0.5508
      25    H16     22.412494   17.114930   24.800502 H          1 MOL1         0.3780
@<TRIPOS>BOND
    1     1     2    1
    2     1     3    1
    3     1     4    1
    4     4     5    1
    5     4     6    1
    6     4     7    1
    7     7     8    1
    8     7     9    1
    9     7    10    1
   10    10    11    1
   11    10    12    1
   12    10    13    1
   13    13    14    1
   14    13    15    1
   15    15    16    1
   16    15    17    1
   17    15    18    1
   18    18    19    1
   19    18    20    1
   20     1    21    1
   21    18    21    1
   22    21    22    1
   23    21    23    1
   24    13    24    1
   25    24    25    1
@<TRIPOS>SUBSTRUCTURE
       1 MOL1            1 RESIDUE      1      MOL     
@<SCITEGIC>MOL_PROPERTY
VConf Rank
SciTegic.value.IntegerValue
63

@<SCITEGIC>MOL_PROPERTY
Conf_Id
SciTegic.value.IntegerValue
121

@<SCITEGIC>MOL_PROPERTY
Delta U+W
SciTegic.value.DoubleValue
-1.283

@<SCITEGIC>MOL_PROPERTY
U+W
SciTegic.value.DoubleValue
9.630

@<SCITEGIC>MOL_PROPERTY
Grad RMS
SciTegic.value.DoubleValue
0.000000

@<SCITEGIC>MOL_PROPERTY
U
SciTegic.value.DoubleValue
11.876

@<SCITEGIC>MOL_PROPERTY
W
SciTegic.value.DoubleValue
-2.246

@<SCITEGIC>MOL_PROPERTY
W(PB)
SciTegic.value.DoubleValue
-4.376

@<SCITEGIC>MOL_PROPERTY
W(SA)
SciTegic.value.DoubleValue
2.130

@<SCITEGIC>MOL_PROPERTY
Valence
SciTegic.value.DoubleValue
17.153

@<SCITEGIC>MOL_PROPERTY
Coulomb
SciTegic.value.DoubleValue
-7.966

@<SCITEGIC>MOL_PROPERTY
VdW
SciTegic.value.DoubleValue
2.689

@<SCITEGIC>MOL_PROPERTY
VdW6
SciTegic.value.DoubleValue
-12.458

@<SCITEGIC>MOL_PROPERTY
VdW12
SciTegic.value.DoubleValue
15.147

@<SCITEGIC>MOL_PROPERTY
Bond
SciTegic.value.DoubleValue
0.421

@<SCITEGIC>MOL_PROPERTY
Angle
SciTegic.value.DoubleValue
5.258

@<SCITEGIC>MOL_PROPERTY
Pdih
SciTegic.value.DoubleValue
11.475

@<SCITEGIC>MOL_PROPERTY
Idih
SciTegic.value.DoubleValue
0.000

@<SCITEGIC>MOL_PROPERTY
Tether
SciTegic.value.DoubleValue
0.000

@<TRIPOS>MOLECULE
guest-s17_confgen4.mol2 : confsearch ligand conformer 64
          25          25           1
SMALL
USER_CHARGES
 
@<TRIPOS>ATOM
       1    C1      21.349371   20.012639   21.289917 C.3        1 MOL1        -0.1684
       2    H1      22.092639   19.513310   21.921856 H          1 MOL1         0.0833
       3    H2      21.932673   20.443681   20.464932 H          1 MOL1         0.0833
       4    C2      20.694096   21.189897   22.054377 C.3        1 MOL1        -0.1684
       5    H3      21.494327   21.892570   22.324124 H          1 MOL1         0.0833
       6    H4      20.031915   21.741327   21.373257 H          1 MOL1         0.0833
       7    C3      19.911553   20.844708   23.347203 C.3        1 MOL1        -0.1684
       8    H5      18.891862   20.523798   23.105973 H          1 MOL1         0.0833
       9    H6      19.779660   21.781451   23.905829 H          1 MOL1         0.0833
      10    C4      20.598922   19.815069   24.283654 C.3        1 MOL1        -0.1760
      11    H7      21.684633   19.801866   24.129227 H          1 MOL1         0.0833
      12    H8      20.458762   20.165339   25.314903 H          1 MOL1         0.0833
      13    C5      20.022739   18.378779   24.212970 C.3        1 MOL1         0.1219
      14    H9      18.936022   18.438650   24.369313 H          1 MOL1         0.0790
      15    C6      20.282293   17.596213   22.900869 C.3        1 MOL1        -0.1760
      16    H10     21.358941   17.521157   22.704791 H          1 MOL1         0.0833
      17    H11     19.945354   16.564087   23.063752 H          1 MOL1         0.0833
      18    C7      19.524607   18.134833   21.657844 C.3        1 MOL1        -0.1684
      19    H12     18.631428   18.691567   21.963247 H          1 MOL1         0.0833
      20    H13     19.133621   17.275876   21.095399 H          1 MOL1         0.0833
      21    C8      20.379002   18.974142   20.673828 C.3        1 MOL1        -0.1684
      22    H14     19.710979   19.478895   19.962869 H          1 MOL1         0.0833
      23    H15     20.980350   18.277980   20.073304 H          1 MOL1         0.0833
      24    O1      20.597208   17.634593   25.280021 O.3        1 MOL1        -0.5508
      25    H16     20.175608   16.750146   25.267538 H          1 MOL1         0.3780
@<TRIPOS>BOND
    1     1     2    1
    2     1     3    1
    3     1     4    1
    4     4     5    1
    5     4     6    1
    6     4     7    1
    7     7     8    1
    8     7     9    1
    9     7    10    1
   10    10    11    1
   11    10    12    1
   12    10    13    1
   13    13    14    1
   14    13    15    1
   15    15    16    1
   16    15    17    1
   17    15    18    1
   18    18    19    1
   19    18    20    1
   20     1    21    1
   21    18    21    1
   22    21    22    1
   23    21    23    1
   24    13    24    1
   25    24    25    1
@<TRIPOS>SUBSTRUCTURE
       1 MOL1            1 RESIDUE      1      MOL     
@<SCITEGIC>MOL_PROPERTY
VConf Rank
SciTegic.value.IntegerValue
64

@<SCITEGIC>MOL_PROPERTY
Conf_Id
SciTegic.value.IntegerValue
24

@<SCITEGIC>MOL_PROPERTY
Delta U+W
SciTegic.value.DoubleValue
-1.236

@<SCITEGIC>MOL_PROPERTY
U+W
SciTegic.value.DoubleValue
9.678

@<SCITEGIC>MOL_PROPERTY
Grad RMS
SciTegic.value.DoubleValue
0.000000

@<SCITEGIC>MOL_PROPERTY
U
SciTegic.value.DoubleValue
11.876

@<SCITEGIC>MOL_PROPERTY
W
SciTegic.value.DoubleValue
-2.199

@<SCITEGIC>MOL_PROPERTY
W(PB)
SciTegic.value.DoubleValue
-4.335

@<SCITEGIC>MOL_PROPERTY
W(SA)
SciTegic.value.DoubleValue
2.137

@<SCITEGIC>MOL_PROPERTY
Valence
SciTegic.value.DoubleValue
17.153

@<SCITEGIC>MOL_PROPERTY
Coulomb
SciTegic.value.DoubleValue
-7.966

@<SCITEGIC>MOL_PROPERTY
VdW
SciTegic.value.DoubleValue
2.689

@<SCITEGIC>MOL_PROPERTY
VdW6
SciTegic.value.DoubleValue
-12.458

@<SCITEGIC>MOL_PROPERTY
VdW12
SciTegic.value.DoubleValue
15.147

@<SCITEGIC>MOL_PROPERTY
Bond
SciTegic.value.DoubleValue
0.421

@<SCITEGIC>MOL_PROPERTY
Angle
SciTegic.value.DoubleValue
5.258

@<SCITEGIC>MOL_PROPERTY
Pdih
SciTegic.value.DoubleValue
11.475

@<SCITEGIC>MOL_PROPERTY
Idih
SciTegic.value.DoubleValue
0.000

@<SCITEGIC>MOL_PROPERTY
Tether
SciTegic.value.DoubleValue
0.000

@<TRIPOS>MOLECULE
guest-s17_confgen4.mol2 : confsearch ligand conformer 65
          25          25           1
SMALL
USER_CHARGES
 
@<TRIPOS>ATOM
       1    C1      20.004764   18.177431   20.769312 C.3        1 MOL1        -0.1684
       2    H1      19.869367   18.709011   19.817542 H          1 MOL1         0.0833
       3    H2      19.910821   17.109576   20.529079 H          1 MOL1         0.0833
       4    C2      21.448161   18.426180   21.282080 C.3        1 MOL1        -0.1684
       5    H3      21.727598   17.673594   22.030293 H          1 MOL1         0.0833
       6    H4      22.124072   18.242522   20.435629 H          1 MOL1         0.0833
       7    C3      21.741151   19.846644   21.825309 C.3        1 MOL1        -0.1684
       8    H5      21.174435   20.602930   21.265558 H          1 MOL1         0.0833
       9    H6      22.797990   20.057898   21.611613 H          1 MOL1         0.0833
      10    C4      21.547669   20.020453   23.358372 C.3        1 MOL1        -0.1760
      11    H7      21.856958   19.115101   23.896106 H          1 MOL1         0.0833
      12    H8      22.248232   20.805061   23.675471 H          1 MOL1         0.0833
      13    C5      20.125892   20.452000   23.793568 C.3        1 MOL1         0.1219
      14    H9      19.672545   21.031639   22.978601 H          1 MOL1         0.0790
      15    C6      19.173455   19.295826   24.190975 C.3        1 MOL1        -0.1760
      16    H10     19.486627   18.882039   25.158484 H          1 MOL1         0.0833
      17    H11     18.177354   19.727487   24.355514 H          1 MOL1         0.0833
      18    C7      19.037367   18.124739   23.185651 C.3        1 MOL1        -0.1684
      19    H12     18.172588   17.517252   23.485445 H          1 MOL1         0.0833
      20    H13     19.897900   17.452566   23.282378 H          1 MOL1         0.0833
      21    C8      18.844153   18.572890   21.714875 C.3        1 MOL1        -0.1684
      22    H14     18.668895   19.653093   21.650834 H          1 MOL1         0.0833
      23    H15     17.921950   18.118474   21.327681 H          1 MOL1         0.0833
      24    O1      20.244396   21.307358   24.923182 O.3        1 MOL1        -0.5508
      25    H16     20.668525   20.777163   25.628859 H          1 MOL1         0.3780
@<TRIPOS>BOND
    1     1     2    1
    2     1     3    1
    3     1     4    1
    4     4     5    1
    5     4     6    1
    6     4     7    1
    7     7     8    1
    8     7     9    1
    9     7    10    1
   10    10    11    1
   11    10    12    1
   12    10    13    1
   13    13    14    1
   14    13    15    1
   15    15    16    1
   16    15    17    1
   17    15    18    1
   18    18    19    1
   19    18    20    1
   20     1    21    1
   21    18    21    1
   22    21    22    1
   23    21    23    1
   24    13    24    1
   25    24    25    1
@<TRIPOS>SUBSTRUCTURE
       1 MOL1            1 RESIDUE      1      MOL     
@<SCITEGIC>MOL_PROPERTY
VConf Rank
SciTegic.value.IntegerValue
65

@<SCITEGIC>MOL_PROPERTY
Conf_Id
SciTegic.value.IntegerValue
167

@<SCITEGIC>MOL_PROPERTY
Delta U+W
SciTegic.value.DoubleValue
0.388

@<SCITEGIC>MOL_PROPERTY
U+W
SciTegic.value.DoubleValue
11.301

@<SCITEGIC>MOL_PROPERTY
Grad RMS
SciTegic.value.DoubleValue
0.000000

@<SCITEGIC>MOL_PROPERTY
U
SciTegic.value.DoubleValue
13.202

@<SCITEGIC>MOL_PROPERTY
W
SciTegic.value.DoubleValue
-1.901

@<SCITEGIC>MOL_PROPERTY
W(PB)
SciTegic.value.DoubleValue
-4.065

@<SCITEGIC>MOL_PROPERTY
W(SA)
SciTegic.value.DoubleValue
2.163

@<SCITEGIC>MOL_PROPERTY
Valence
SciTegic.value.DoubleValue
18.957

@<SCITEGIC>MOL_PROPERTY
Coulomb
SciTegic.value.DoubleValue
-8.753

@<SCITEGIC>MOL_PROPERTY
VdW
SciTegic.value.DoubleValue
2.998

@<SCITEGIC>MOL_PROPERTY
VdW6
SciTegic.value.DoubleValue
-12.294

@<SCITEGIC>MOL_PROPERTY
VdW12
SciTegic.value.DoubleValue
15.292

@<SCITEGIC>MOL_PROPERTY
Bond
SciTegic.value.DoubleValue
0.419

@<SCITEGIC>MOL_PROPERTY
Angle
SciTegic.value.DoubleValue
4.543

@<SCITEGIC>MOL_PROPERTY
Pdih
SciTegic.value.DoubleValue
13.996

@<SCITEGIC>MOL_PROPERTY
Idih
SciTegic.value.DoubleValue
0.000

@<SCITEGIC>MOL_PROPERTY
Tether
SciTegic.value.DoubleValue
0.000

@<TRIPOS>MOLECULE
guest-s17_confgen4.mol2 : confsearch ligand conformer 66
          25          25           1
SMALL
USER_CHARGES
 
@<TRIPOS>ATOM
       1    C1      21.998458   18.430526   21.789679 C.3        1 MOL1        -0.1684
       2    H1      22.032542   17.379193   21.473391 H          1 MOL1         0.0833
       3    H2      22.974053   18.854045   21.514422 H          1 MOL1         0.0833
       4    C2      21.879190   18.486356   23.334982 C.3        1 MOL1        -0.1684
       5    H3      21.185579   17.719169   23.697103 H          1 MOL1         0.0833
       6    H4      22.853991   18.187213   23.744020 H          1 MOL1         0.0833
       7    C3      21.514100   19.872803   23.926014 C.3        1 MOL1        -0.1684
       8    H5      21.822011   20.682595   23.252072 H          1 MOL1         0.0833
       9    H6      22.114654   20.012594   24.835243 H          1 MOL1         0.0833
      10    C4      20.025244   20.034698   24.337530 C.3        1 MOL1        -0.1760
      11    H7      19.752683   19.238301   25.042302 H          1 MOL1         0.0833
      12    H8      19.938946   20.972267   24.902600 H          1 MOL1         0.0833
      13    C5      18.983669   20.079829   23.191889 C.3        1 MOL1         0.1219
      14    H9      19.276050   20.855029   22.470963 H          1 MOL1         0.0790
      15    C6      18.789941   18.727190   22.458701 C.3        1 MOL1        -0.1760
      16    H10     19.114727   17.901525   23.099845 H          1 MOL1         0.0833
      17    H11     17.718226   18.545109   22.303088 H          1 MOL1         0.0833
      18    C7      19.476013   18.629739   21.071412 C.3        1 MOL1        -0.1684
      19    H12     18.858174   19.181367   20.349660 H          1 MOL1         0.0833
      20    H13     19.459715   17.583092   20.738518 H          1 MOL1         0.0833
      21    C8      20.921245   19.178078   20.964182 C.3        1 MOL1        -0.1684
      22    H14     20.944459   20.250217   21.190297 H          1 MOL1         0.0833
      23    H15     21.216734   19.112447   19.908152 H          1 MOL1         0.0833
      24    O1      17.738105   20.456790   23.766896 O.3        1 MOL1        -0.5508
      25    H16     17.103501   20.549672   23.025838 H          1 MOL1         0.3780
@<TRIPOS>BOND
    1     1     2    1
    2     1     3    1
    3     1     4    1
    4     4     5    1
    5     4     6    1
    6     4     7    1
    7     7     8    1
    8     7     9    1
    9     7    10    1
   10    10    11    1
   11    10    12    1
   12    10    13    1
   13    13    14    1
   14    13    15    1
   15    15    16    1
   16    15    17    1
   17    15    18    1
   18    18    19    1
   19    18    20    1
   20     1    21    1
   21    18    21    1
   22    21    22    1
   23    21    23    1
   24    13    24    1
   25    24    25    1
@<TRIPOS>SUBSTRUCTURE
       1 MOL1            1 RESIDUE      1      MOL     
@<SCITEGIC>MOL_PROPERTY
VConf Rank
SciTegic.value.IntegerValue
66

@<SCITEGIC>MOL_PROPERTY
Conf_Id
SciTegic.value.IntegerValue
60

@<SCITEGIC>MOL_PROPERTY
Delta U+W
SciTegic.value.DoubleValue
-1.838

@<SCITEGIC>MOL_PROPERTY
U+W
SciTegic.value.DoubleValue
9.075

@<SCITEGIC>MOL_PROPERTY
Grad RMS
SciTegic.value.DoubleValue
0.000000

@<SCITEGIC>MOL_PROPERTY
U
SciTegic.value.DoubleValue
11.150

@<SCITEGIC>MOL_PROPERTY
W
SciTegic.value.DoubleValue
-2.074

@<SCITEGIC>MOL_PROPERTY
W(PB)
SciTegic.value.DoubleValue
-4.196

@<SCITEGIC>MOL_PROPERTY
W(SA)
SciTegic.value.DoubleValue
2.121

@<SCITEGIC>MOL_PROPERTY
Valence
SciTegic.value.DoubleValue
16.582

@<SCITEGIC>MOL_PROPERTY
Coulomb
SciTegic.value.DoubleValue
-8.361

@<SCITEGIC>MOL_PROPERTY
VdW
SciTegic.value.DoubleValue
2.928

@<SCITEGIC>MOL_PROPERTY
VdW6
SciTegic.value.DoubleValue
-12.539

@<SCITEGIC>MOL_PROPERTY
VdW12
SciTegic.value.DoubleValue
15.467

@<SCITEGIC>MOL_PROPERTY
Bond
SciTegic.value.DoubleValue
0.441

@<SCITEGIC>MOL_PROPERTY
Angle
SciTegic.value.DoubleValue
5.093

@<SCITEGIC>MOL_PROPERTY
Pdih
SciTegic.value.DoubleValue
11.049

@<SCITEGIC>MOL_PROPERTY
Idih
SciTegic.value.DoubleValue
0.000

@<SCITEGIC>MOL_PROPERTY
Tether
SciTegic.value.DoubleValue
0.000

@<TRIPOS>MOLECULE
guest-s17_confgen4.mol2 : confsearch ligand conformer 67
          25          25           1
SMALL
USER_CHARGES
 
@<TRIPOS>ATOM
       1    C1      18.840461   18.054152   23.535059 C.3        1 MOL1        -0.1684
       2    H1      18.535710   18.221174   24.577045 H          1 MOL1         0.0833
       3    H2      18.231765   17.211212   23.180292 H          1 MOL1         0.0833
       4    C2      20.321492   17.600143   23.502077 C.3        1 MOL1        -0.1684
       5    H3      20.386745   16.660928   24.068151 H          1 MOL1         0.0833
       6    H4      20.613337   17.327194   22.481551 H          1 MOL1         0.0833
       7    C3      21.350419   18.580565   24.119290 C.3        1 MOL1        -0.1684
       8    H5      22.325706   18.074912   24.127881 H          1 MOL1         0.0833
       9    H6      21.096800   18.756035   25.173538 H          1 MOL1         0.0833
      10    C4      21.528816   19.948184   23.410381 C.3        1 MOL1        -0.1760
      11    H7      20.737091   20.639077   23.717158 H          1 MOL1         0.0833
      12    H8      22.449971   20.398605   23.803492 H          1 MOL1         0.0833
      13    C5      21.606327   19.878990   21.863149 C.3        1 MOL1         0.1219
      14    H9      21.867230   18.859444   21.549125 H          1 MOL1         0.0790
      15    C6      20.304397   20.312815   21.144694 C.3        1 MOL1        -0.1760
      16    H10     20.023848   21.319162   21.482037 H          1 MOL1         0.0833
      17    H11     20.532015   20.411974   20.075048 H          1 MOL1         0.0833
      18    C7      19.081373   19.364536   21.275948 C.3        1 MOL1        -0.1684
      19    H12     19.325760   18.360475   20.905940 H          1 MOL1         0.0833
      20    H13     18.308776   19.741858   20.592115 H          1 MOL1         0.0833
      21    C8      18.457107   19.299540   22.694015 C.3        1 MOL1        -0.1684
      22    H14     17.363888   19.290375   22.585289 H          1 MOL1         0.0833
      23    H15     18.667219   20.220577   23.249305 H          1 MOL1         0.0833
      24    O1      22.640761   20.754357   21.429741 O.3        1 MOL1        -0.5508
      25    H16     23.471702   20.429405   21.835276 H          1 MOL1         0.3780
@<TRIPOS>BOND
    1     1     2    1
    2     1     3    1
    3     1     4    1
    4     4     5    1
    5     4     6    1
    6     4     7    1
    7     7     8    1
    8     7     9    1
    9     7    10    1
   10    10    11    1
   11    10    12    1
   12    10    13    1
   13    13    14    1
   14    13    15    1
   15    15    16    1
   16    15    17    1
   17    15    18    1
   18    18    19    1
   19    18    20    1
   20     1    21    1
   21    18    21    1
   22    21    22    1
   23    21    23    1
   24    13    24    1
   25    24    25    1
@<TRIPOS>SUBSTRUCTURE
       1 MOL1            1 RESIDUE      1      MOL     
@<SCITEGIC>MOL_PROPERTY
VConf Rank
SciTegic.value.IntegerValue
67

@<SCITEGIC>MOL_PROPERTY
Conf_Id
SciTegic.value.IntegerValue
129

@<SCITEGIC>MOL_PROPERTY
Delta U+W
SciTegic.value.DoubleValue
-1.846

@<SCITEGIC>MOL_PROPERTY
U+W
SciTegic.value.DoubleValue
9.067

@<SCITEGIC>MOL_PROPERTY
Grad RMS
SciTegic.value.DoubleValue
0.000000

@<SCITEGIC>MOL_PROPERTY
U
SciTegic.value.DoubleValue
11.150

@<SCITEGIC>MOL_PROPERTY
W
SciTegic.value.DoubleValue
-2.083

@<SCITEGIC>MOL_PROPERTY
W(PB)
SciTegic.value.DoubleValue
-4.217

@<SCITEGIC>MOL_PROPERTY
W(SA)
SciTegic.value.DoubleValue
2.134

@<SCITEGIC>MOL_PROPERTY
Valence
SciTegic.value.DoubleValue
16.583

@<SCITEGIC>MOL_PROPERTY
Coulomb
SciTegic.value.DoubleValue
-8.361

@<SCITEGIC>MOL_PROPERTY
VdW
SciTegic.value.DoubleValue
2.928

@<SCITEGIC>MOL_PROPERTY
VdW6
SciTegic.value.DoubleValue
-12.539

@<SCITEGIC>MOL_PROPERTY
VdW12
SciTegic.value.DoubleValue
15.467

@<SCITEGIC>MOL_PROPERTY
Bond
SciTegic.value.DoubleValue
0.441

@<SCITEGIC>MOL_PROPERTY
Angle
SciTegic.value.DoubleValue
5.093

@<SCITEGIC>MOL_PROPERTY
Pdih
SciTegic.value.DoubleValue
11.049

@<SCITEGIC>MOL_PROPERTY
Idih
SciTegic.value.DoubleValue
0.000

@<SCITEGIC>MOL_PROPERTY
Tether
SciTegic.value.DoubleValue
0.000

@<TRIPOS>MOLECULE
guest-s17_confgen4.mol2 : confsearch ligand conformer 68
          25          25           1
SMALL
USER_CHARGES
 
@<TRIPOS>ATOM
       1    C1      20.761029   18.210925   20.916492 C.3        1 MOL1        -0.1684
       2    H1      20.560902   18.652484   19.930854 H          1 MOL1         0.0833
       3    H2      21.235477   17.240673   20.715422 H          1 MOL1         0.0833
       4    C2      19.416709   17.928257   21.632814 C.3        1 MOL1        -0.1684
       5    H3      18.858463   17.217031   21.008855 H          1 MOL1         0.0833
       6    H4      19.590763   17.392217   22.572796 H          1 MOL1         0.0833
       7    C3      18.497493   19.153086   21.867554 C.3        1 MOL1        -0.1684
       8    H5      17.546719   18.779835   22.272232 H          1 MOL1         0.0833
       9    H6      18.249894   19.611745   20.900691 H          1 MOL1         0.0833
      10    C4      19.022257   20.252751   22.827050 C.3        1 MOL1        -0.1760
      11    H7      19.708352   20.920851   22.296528 H          1 MOL1         0.0833
      12    H8      18.163565   20.886698   23.086620 H          1 MOL1         0.0833
      13    C5      19.682014   19.727979   24.128553 C.3        1 MOL1         0.1219
      14    H9      19.354473   18.697482   24.320026 H          1 MOL1         0.0790
      15    C6      21.230650   19.778883   24.122738 C.3        1 MOL1        -0.1760
      16    H10     21.561940   20.801868   23.901460 H          1 MOL1         0.0833
      17    H11     21.574997   19.568507   25.144209 H          1 MOL1         0.0833
      18    C7      21.961069   18.790203   23.174045 C.3        1 MOL1        -0.1684
      19    H12     21.681243   17.753473   23.401379 H          1 MOL1         0.0833
      20    H13     23.032788   18.855111   23.406791 H          1 MOL1         0.0833
      21    C8      21.793071   19.095270   21.663000 C.3        1 MOL1        -0.1684
      22    H14     22.764260   18.940188   21.173314 H          1 MOL1         0.0833
      23    H15     21.576021   20.157906   21.506492 H          1 MOL1         0.0833
      24    O1      19.237165   20.537473   25.209753 O.3        1 MOL1        -0.5508
      25    H16     19.544057   21.447517   25.018495 H          1 MOL1         0.3780
@<TRIPOS>BOND
    1     1     2    1
    2     1     3    1
    3     1     4    1
    4     4     5    1
    5     4     6    1
    6     4     7    1
    7     7     8    1
    8     7     9    1
    9     7    10    1
   10    10    11    1
   11    10    12    1
   12    10    13    1
   13    13    14    1
   14    13    15    1
   15    15    16    1
   16    15    17    1
   17    15    18    1
   18    18    19    1
   19    18    20    1
   20     1    21    1
   21    18    21    1
   22    21    22    1
   23    21    23    1
   24    13    24    1
   25    24    25    1
@<TRIPOS>SUBSTRUCTURE
       1 MOL1            1 RESIDUE      1      MOL     
@<SCITEGIC>MOL_PROPERTY
VConf Rank
SciTegic.value.IntegerValue
68

@<SCITEGIC>MOL_PROPERTY
Conf_Id
SciTegic.value.IntegerValue
140

@<SCITEGIC>MOL_PROPERTY
Delta U+W
SciTegic.value.DoubleValue
-1.702

@<SCITEGIC>MOL_PROPERTY
U+W
SciTegic.value.DoubleValue
9.211

@<SCITEGIC>MOL_PROPERTY
Grad RMS
SciTegic.value.DoubleValue
0.000000

@<SCITEGIC>MOL_PROPERTY
U
SciTegic.value.DoubleValue
11.181

@<SCITEGIC>MOL_PROPERTY
W
SciTegic.value.DoubleValue
-1.969

@<SCITEGIC>MOL_PROPERTY
W(PB)
SciTegic.value.DoubleValue
-4.093

@<SCITEGIC>MOL_PROPERTY
W(SA)
SciTegic.value.DoubleValue
2.124

@<SCITEGIC>MOL_PROPERTY
Valence
SciTegic.value.DoubleValue
16.954

@<SCITEGIC>MOL_PROPERTY
Coulomb
SciTegic.value.DoubleValue
-8.661

@<SCITEGIC>MOL_PROPERTY
VdW
SciTegic.value.DoubleValue
2.887

@<SCITEGIC>MOL_PROPERTY
VdW6
SciTegic.value.DoubleValue
-12.561

@<SCITEGIC>MOL_PROPERTY
VdW12
SciTegic.value.DoubleValue
15.448

@<SCITEGIC>MOL_PROPERTY
Bond
SciTegic.value.DoubleValue
0.433

@<SCITEGIC>MOL_PROPERTY
Angle
SciTegic.value.DoubleValue
5.120

@<SCITEGIC>MOL_PROPERTY
Pdih
SciTegic.value.DoubleValue
11.401

@<SCITEGIC>MOL_PROPERTY
Idih
SciTegic.value.DoubleValue
0.000

@<SCITEGIC>MOL_PROPERTY
Tether
SciTegic.value.DoubleValue
0.000

@<TRIPOS>MOLECULE
guest-s17_confgen4.mol2 : confsearch ligand conformer 69
          25          25           1
SMALL
USER_CHARGES
 
@<TRIPOS>ATOM
       1    C1      19.679962   18.167232   24.342121 C.3        1 MOL1        -0.1684
       2    H1      18.615074   17.992410   24.546958 H          1 MOL1         0.0833
       3    H2      20.221357   17.718682   25.186286 H          1 MOL1         0.0833
       4    C2      19.951897   19.693664   24.364584 C.3        1 MOL1        -0.1684
       5    H3      19.140749   20.237828   23.867868 H          1 MOL1         0.0833
       6    H4      19.894319   20.015785   25.413381 H          1 MOL1         0.0833
       7    C3      21.327985   20.132652   23.800474 C.3        1 MOL1        -0.1684
       8    H5      22.063722   19.321799   23.877952 H          1 MOL1         0.0833
       9    H6      21.711916   20.930726   24.450581 H          1 MOL1         0.0833
      10    C4      21.287458   20.704016   22.357244 C.3        1 MOL1        -0.1760
      11    H7      20.576424   21.539650   22.320358 H          1 MOL1         0.0833
      12    H8      22.273062   21.141997   22.149895 H          1 MOL1         0.0833
      13    C5      20.967918   19.704000   21.217615 C.3        1 MOL1         0.1219
      14    H9      21.661568   18.854716   21.276259 H          1 MOL1         0.0790
      15    C6      19.506370   19.185883   21.215623 C.3        1 MOL1        -0.1760
      16    H10     18.855004   19.885591   21.749168 H          1 MOL1         0.0833
      17    H11     19.124825   19.182659   20.185560 H          1 MOL1         0.0833
      18    C7      19.318106   17.750115   21.770960 C.3        1 MOL1        -0.1684
      19    H12     19.634620   17.044011   20.991033 H          1 MOL1         0.0833
      20    H13     18.246331   17.564331   21.923542 H          1 MOL1         0.0833
      21    C8      20.089472   17.390702   23.065597 C.3        1 MOL1        -0.1684
      22    H14     21.170626   17.467280   22.902979 H          1 MOL1         0.0833
      23    H15     19.914990   16.324239   23.263125 H          1 MOL1         0.0833
      24    O1      21.202239   20.377330   19.987217 O.3        1 MOL1        -0.5508
      25    H16     20.576749   21.130317   19.960466 H          1 MOL1         0.3780
@<TRIPOS>BOND
    1     1     2    1
    2     1     3    1
    3     1     4    1
    4     4     5    1
    5     4     6    1
    6     4     7    1
    7     7     8    1
    8     7     9    1
    9     7    10    1
   10    10    11    1
   11    10    12    1
   12    10    13    1
   13    13    14    1
   14    13    15    1
   15    15    16    1
   16    15    17    1
   17    15    18    1
   18    18    19    1
   19    18    20    1
   20     1    21    1
   21    18    21    1
   22    21    22    1
   23    21    23    1
   24    13    24    1
   25    24    25    1
@<TRIPOS>SUBSTRUCTURE
       1 MOL1            1 RESIDUE      1      MOL     
@<SCITEGIC>MOL_PROPERTY
VConf Rank
SciTegic.value.IntegerValue
69

@<SCITEGIC>MOL_PROPERTY
Conf_Id
SciTegic.value.IntegerValue
68

@<SCITEGIC>MOL_PROPERTY
Delta U+W
SciTegic.value.DoubleValue
-1.765

@<SCITEGIC>MOL_PROPERTY
U+W
SciTegic.value.DoubleValue
9.148

@<SCITEGIC>MOL_PROPERTY
Grad RMS
SciTegic.value.DoubleValue
0.000000

@<SCITEGIC>MOL_PROPERTY
U
SciTegic.value.DoubleValue
11.181

@<SCITEGIC>MOL_PROPERTY
W
SciTegic.value.DoubleValue
-2.032

@<SCITEGIC>MOL_PROPERTY
W(PB)
SciTegic.value.DoubleValue
-4.147

@<SCITEGIC>MOL_PROPERTY
W(SA)
SciTegic.value.DoubleValue
2.114

@<SCITEGIC>MOL_PROPERTY
Valence
SciTegic.value.DoubleValue
16.955

@<SCITEGIC>MOL_PROPERTY
Coulomb
SciTegic.value.DoubleValue
-8.661

@<SCITEGIC>MOL_PROPERTY
VdW
SciTegic.value.DoubleValue
2.887

@<SCITEGIC>MOL_PROPERTY
VdW6
SciTegic.value.DoubleValue
-12.561

@<SCITEGIC>MOL_PROPERTY
VdW12
SciTegic.value.DoubleValue
15.448

@<SCITEGIC>MOL_PROPERTY
Bond
SciTegic.value.DoubleValue
0.433

@<SCITEGIC>MOL_PROPERTY
Angle
SciTegic.value.DoubleValue
5.121

@<SCITEGIC>MOL_PROPERTY
Pdih
SciTegic.value.DoubleValue
11.402

@<SCITEGIC>MOL_PROPERTY
Idih
SciTegic.value.DoubleValue
0.000

@<SCITEGIC>MOL_PROPERTY
Tether
SciTegic.value.DoubleValue
0.000

@<TRIPOS>MOLECULE
guest-s17_confgen4.mol2 : confsearch ligand conformer 70
          25          25           1
SMALL
USER_CHARGES
 
@<TRIPOS>ATOM
       1    C1      19.350452   18.721770   24.231526 C.3        1 MOL1        -0.1684
       2    H1      18.781715   18.352319   25.095887 H          1 MOL1         0.0833
       3    H2      19.617433   19.749662   24.501804 H          1 MOL1         0.0833
       4    C2      18.411820   18.708660   22.996980 C.3        1 MOL1        -0.1684
       5    H3      18.532334   17.784036   22.418050 H          1 MOL1         0.0833
       6    H4      17.378295   18.680256   23.368513 H          1 MOL1         0.0833
       7    C3      18.527824   19.952826   22.077634 C.3        1 MOL1        -0.1684
       8    H5      18.356204   20.861494   22.670881 H          1 MOL1         0.0833
       9    H6      17.700872   19.912313   21.355593 H          1 MOL1         0.0833
      10    C4      19.847655   20.105852   21.275647 C.3        1 MOL1        -0.1760
      11    H7      20.020997   19.219624   20.653466 H          1 MOL1         0.0833
      12    H8      19.692653   20.930187   20.566381 H          1 MOL1         0.0833
      13    C5      21.092982   20.426800   22.142273 C.3        1 MOL1         0.1219
      14    H9      20.762858   20.827416   23.107710 H          1 MOL1         0.0790
      15    C6      22.039583   19.226054   22.387629 C.3        1 MOL1        -0.1760
      16    H10     22.634411   19.060101   21.479766 H          1 MOL1         0.0833
      17    H11     22.757181   19.504957   23.170156 H          1 MOL1         0.0833
      18    C7      21.383592   17.872682   22.764622 C.3        1 MOL1        -0.1684
      19    H12     22.186758   17.125699   22.825155 H          1 MOL1         0.0833
      20    H13     20.738569   17.519639   21.951840 H          1 MOL1         0.0833
      21    C8      20.619412   17.838337   24.111837 C.3        1 MOL1        -0.1684
      22    H14     21.309390   18.093133   24.927677 H          1 MOL1         0.0833
      23    H15     20.319871   16.796792   24.291995 H          1 MOL1         0.0833
      24    O1      21.848640   21.440686   21.491351 O.3        1 MOL1        -0.5508
      25    H16     22.119098   21.071841   20.625502 H          1 MOL1         0.3780
@<TRIPOS>BOND
    1     1     2    1
    2     1     3    1
    3     1     4    1
    4     4     5    1
    5     4     6    1
    6     4     7    1
    7     7     8    1
    8     7     9    1
    9     7    10    1
   10    10    11    1
   11    10    12    1
   12    10    13    1
   13    13    14    1
   14    13    15    1
   15    15    16    1
   16    15    17    1
   17    15    18    1
   18    18    19    1
   19    18    20    1
   20     1    21    1
   21    18    21    1
   22    21    22    1
   23    21    23    1
   24    13    24    1
   25    24    25    1
@<TRIPOS>SUBSTRUCTURE
       1 MOL1            1 RESIDUE      1      MOL     
@<SCITEGIC>MOL_PROPERTY
VConf Rank
SciTegic.value.IntegerValue
70

@<SCITEGIC>MOL_PROPERTY
Conf_Id
SciTegic.value.IntegerValue
165

@<SCITEGIC>MOL_PROPERTY
Delta U+W
SciTegic.value.DoubleValue
-1.999

@<SCITEGIC>MOL_PROPERTY
U+W
SciTegic.value.DoubleValue
8.915

@<SCITEGIC>MOL_PROPERTY
Grad RMS
SciTegic.value.DoubleValue
0.000000

@<SCITEGIC>MOL_PROPERTY
U
SciTegic.value.DoubleValue
10.935

@<SCITEGIC>MOL_PROPERTY
W
SciTegic.value.DoubleValue
-2.020

@<SCITEGIC>MOL_PROPERTY
W(PB)
SciTegic.value.DoubleValue
-4.135

@<SCITEGIC>MOL_PROPERTY
W(SA)
SciTegic.value.DoubleValue
2.115

@<SCITEGIC>MOL_PROPERTY
Valence
SciTegic.value.DoubleValue
16.757

@<SCITEGIC>MOL_PROPERTY
Coulomb
SciTegic.value.DoubleValue
-8.731

@<SCITEGIC>MOL_PROPERTY
VdW
SciTegic.value.DoubleValue
2.908

@<SCITEGIC>MOL_PROPERTY
VdW6
SciTegic.value.DoubleValue
-12.597

@<SCITEGIC>MOL_PROPERTY
VdW12
SciTegic.value.DoubleValue
15.506

@<SCITEGIC>MOL_PROPERTY
Bond
SciTegic.value.DoubleValue
0.434

@<SCITEGIC>MOL_PROPERTY
Angle
SciTegic.value.DoubleValue
5.069

@<SCITEGIC>MOL_PROPERTY
Pdih
SciTegic.value.DoubleValue
11.254

@<SCITEGIC>MOL_PROPERTY
Idih
SciTegic.value.DoubleValue
0.000

@<SCITEGIC>MOL_PROPERTY
Tether
SciTegic.value.DoubleValue
0.000

@<TRIPOS>MOLECULE
guest-s17_confgen4.mol2 : confsearch ligand conformer 71
          25          25           1
SMALL
USER_CHARGES
 
@<TRIPOS>ATOM
       1    C1      19.402067   18.801770   24.209445 C.3        1 MOL1        -0.1684
       2    H1      18.846617   18.665456   25.147516 H          1 MOL1         0.0833
       3    H2      19.537468   17.784792   23.824444 H          1 MOL1         0.0833
       4    C2      20.768338   19.435850   24.579173 C.3        1 MOL1        -0.1684
       5    H3      20.584139   20.205242   25.341481 H          1 MOL1         0.0833
       6    H4      21.392692   18.676905   25.069837 H          1 MOL1         0.0833
       7    C3      21.574308   20.102439   23.436190 C.3        1 MOL1        -0.1684
       8    H5      22.454297   20.577968   23.890274 H          1 MOL1         0.0833
       9    H6      21.004878   20.932448   23.002455 H          1 MOL1         0.0833
      10    C4      22.085927   19.154893   22.320648 C.3        1 MOL1        -0.1760
      11    H7      22.723147   19.748841   21.651551 H          1 MOL1         0.0833
      12    H8      22.741780   18.398746   22.770999 H          1 MOL1         0.0833
      13    C5      21.018630   18.435755   21.459557 C.3        1 MOL1         0.1219
      14    H9      20.605652   17.592403   22.025302 H          1 MOL1         0.0790
      15    C6      19.853603   19.341995   20.984557 C.3        1 MOL1        -0.1760
      16    H10     20.154227   20.396387   20.984564 H          1 MOL1         0.0833
      17    H11     19.637468   19.106676   19.933632 H          1 MOL1         0.0833
      18    C7      18.528669   19.154427   21.770915 C.3        1 MOL1        -0.1684
      19    H12     18.229843   18.097957   21.731397 H          1 MOL1         0.0833
      20    H13     17.741910   19.703020   21.235351 H          1 MOL1         0.0833
      21    C8      18.519714   19.636934   23.245355 C.3        1 MOL1        -0.1684
      22    H14     17.482490   19.563479   23.600013 H          1 MOL1         0.0833
      23    H15     18.767362   20.704393   23.307090 H          1 MOL1         0.0833
      24    O1      21.679096   17.910868   20.313350 O.3        1 MOL1        -0.5508
      25    H16     22.379215   17.308945   20.641925 H          1 MOL1         0.3780
@<TRIPOS>BOND
    1     1     2    1
    2     1     3    1
    3     1     4    1
    4     4     5    1
    5     4     6    1
    6     4     7    1
    7     7     8    1
    8     7     9    1
    9     7    10    1
   10    10    11    1
   11    10    12    1
   12    10    13    1
   13    13    14    1
   14    13    15    1
   15    15    16    1
   16    15    17    1
   17    15    18    1
   18    18    19    1
   19    18    20    1
   20     1    21    1
   21    18    21    1
   22    21    22    1
   23    21    23    1
   24    13    24    1
   25    24    25    1
@<TRIPOS>SUBSTRUCTURE
       1 MOL1            1 RESIDUE      1      MOL     
@<SCITEGIC>MOL_PROPERTY
VConf Rank
SciTegic.value.IntegerValue
71

@<SCITEGIC>MOL_PROPERTY
Conf_Id
SciTegic.value.IntegerValue
133

@<SCITEGIC>MOL_PROPERTY
Delta U+W
SciTegic.value.DoubleValue
-2.139

@<SCITEGIC>MOL_PROPERTY
U+W
SciTegic.value.DoubleValue
8.774

@<SCITEGIC>MOL_PROPERTY
Grad RMS
SciTegic.value.DoubleValue
0.000000

@<SCITEGIC>MOL_PROPERTY
U
SciTegic.value.DoubleValue
10.905

@<SCITEGIC>MOL_PROPERTY
W
SciTegic.value.DoubleValue
-2.131

@<SCITEGIC>MOL_PROPERTY
W(PB)
SciTegic.value.DoubleValue
-4.281

@<SCITEGIC>MOL_PROPERTY
W(SA)
SciTegic.value.DoubleValue
2.150

@<SCITEGIC>MOL_PROPERTY
Valence
SciTegic.value.DoubleValue
16.378

@<SCITEGIC>MOL_PROPERTY
Coulomb
SciTegic.value.DoubleValue
-8.448

@<SCITEGIC>MOL_PROPERTY
VdW
SciTegic.value.DoubleValue
2.976

@<SCITEGIC>MOL_PROPERTY
VdW6
SciTegic.value.DoubleValue
-12.570

@<SCITEGIC>MOL_PROPERTY
VdW12
SciTegic.value.DoubleValue
15.545

@<SCITEGIC>MOL_PROPERTY
Bond
SciTegic.value.DoubleValue
0.439

@<SCITEGIC>MOL_PROPERTY
Angle
SciTegic.value.DoubleValue
5.049

@<SCITEGIC>MOL_PROPERTY
Pdih
SciTegic.value.DoubleValue
10.889

@<SCITEGIC>MOL_PROPERTY
Idih
SciTegic.value.DoubleValue
0.000

@<SCITEGIC>MOL_PROPERTY
Tether
SciTegic.value.DoubleValue
0.000

@<TRIPOS>MOLECULE
guest-s17_confgen4.mol2 : confsearch ligand conformer 72
          25          25           1
SMALL
USER_CHARGES
 
@<TRIPOS>ATOM
       1    C1      19.969424   21.008489   22.310793 C.3        1 MOL1        -0.1684
       2    H1      19.690070   22.051213   22.106403 H          1 MOL1         0.0833
       3    H2      21.054026   20.983280   22.156494 H          1 MOL1         0.0833
       4    C2      19.250020   20.106154   21.274564 C.3        1 MOL1        -0.1684
       5    H3      18.306306   19.716354   21.677143 H          1 MOL1         0.0833
       6    H4      18.958008   20.743253   20.428488 H          1 MOL1         0.0833
       7    C3      20.118063   18.957317   20.697029 C.3        1 MOL1        -0.1684
       8    H5      21.032495   19.377645   20.256430 H          1 MOL1         0.0833
       9    H6      19.565961   18.510690   19.858888 H          1 MOL1         0.0833
      10    C4      20.499092   17.813202   21.674172 C.3        1 MOL1        -0.1760
      11    H7      19.598265   17.357830   22.102266 H          1 MOL1         0.0833
      12    H8      20.961703   17.019533   21.071999 H          1 MOL1         0.0833
      13    C5      21.493945   18.223727   22.790380 C.3        1 MOL1         0.1219
      14    H9      22.010474   19.141812   22.486779 H          1 MOL1         0.0790
      15    C6      20.850151   18.436239   24.182542 C.3        1 MOL1        -0.1760
      16    H10     20.649806   17.449690   24.621971 H          1 MOL1         0.0833
      17    H11     21.585871   18.916809   24.840178 H          1 MOL1         0.0833
      18    C7      19.528132   19.244659   24.234980 C.3        1 MOL1        -0.1684
      19    H12     19.178742   19.232796   25.276367 H          1 MOL1         0.0833
      20    H13     18.740903   18.728412   23.673685 H          1 MOL1         0.0833
      21    C8      19.618846   20.727475   23.795240 C.3        1 MOL1        -0.1684
      22    H14     20.337895   21.253950   24.437394 H          1 MOL1         0.0833
      23    H15     18.643978   21.190146   24.001571 H          1 MOL1         0.0833
      24    O1      22.470736   17.197438   22.924992 O.3        1 MOL1        -0.5508
      25    H16     23.109457   17.502801   23.602656 H          1 MOL1         0.3780
@<TRIPOS>BOND
    1     1     2    1
    2     1     3    1
    3     1     4    1
    4     4     5    1
    5     4     6    1
    6     4     7    1
    7     7     8    1
    8     7     9    1
    9     7    10    1
   10    10    11    1
   11    10    12    1
   12    10    13    1
   13    13    14    1
   14    13    15    1
   15    15    16    1
   16    15    17    1
   17    15    18    1
   18    18    19    1
   19    18    20    1
   20     1    21    1
   21    18    21    1
   22    21    22    1
   23    21    23    1
   24    13    24    1
   25    24    25    1
@<TRIPOS>SUBSTRUCTURE
       1 MOL1            1 RESIDUE      1      MOL     
@<SCITEGIC>MOL_PROPERTY
VConf Rank
SciTegic.value.IntegerValue
72

@<SCITEGIC>MOL_PROPERTY
Conf_Id
SciTegic.value.IntegerValue
95

@<SCITEGIC>MOL_PROPERTY
Delta U+W
SciTegic.value.DoubleValue
-2.190

@<SCITEGIC>MOL_PROPERTY
U+W
SciTegic.value.DoubleValue
8.723

@<SCITEGIC>MOL_PROPERTY
Grad RMS
SciTegic.value.DoubleValue
0.000000

@<SCITEGIC>MOL_PROPERTY
U
SciTegic.value.DoubleValue
10.905

@<SCITEGIC>MOL_PROPERTY
W
SciTegic.value.DoubleValue
-2.182

@<SCITEGIC>MOL_PROPERTY
W(PB)
SciTegic.value.DoubleValue
-4.296

@<SCITEGIC>MOL_PROPERTY
W(SA)
SciTegic.value.DoubleValue
2.114

@<SCITEGIC>MOL_PROPERTY
Valence
SciTegic.value.DoubleValue
16.377

@<SCITEGIC>MOL_PROPERTY
Coulomb
SciTegic.value.DoubleValue
-8.448

@<SCITEGIC>MOL_PROPERTY
VdW
SciTegic.value.DoubleValue
2.976

@<SCITEGIC>MOL_PROPERTY
VdW6
SciTegic.value.DoubleValue
-12.570

@<SCITEGIC>MOL_PROPERTY
VdW12
SciTegic.value.DoubleValue
15.546

@<SCITEGIC>MOL_PROPERTY
Bond
SciTegic.value.DoubleValue
0.439

@<SCITEGIC>MOL_PROPERTY
Angle
SciTegic.value.DoubleValue
5.049

@<SCITEGIC>MOL_PROPERTY
Pdih
SciTegic.value.DoubleValue
10.889

@<SCITEGIC>MOL_PROPERTY
Idih
SciTegic.value.DoubleValue
0.000

@<SCITEGIC>MOL_PROPERTY
Tether
SciTegic.value.DoubleValue
0.000

@<TRIPOS>MOLECULE
guest-s17_confgen4.mol2 : confsearch ligand conformer 73
          25          25           1
SMALL
USER_CHARGES
 
@<TRIPOS>ATOM
       1    C1      20.529929   17.713860   23.731885 C.3        1 MOL1        -0.1684
       2    H1      20.555441   16.846056   24.405061 H          1 MOL1         0.0833
       3    H2      21.584083   17.993504   23.638117 H          1 MOL1         0.0833
       4    C2      19.719978   18.828629   24.456791 C.3        1 MOL1        -0.1684
       5    H3      18.928444   18.334290   25.036484 H          1 MOL1         0.0833
       6    H4      20.367102   19.312951   25.200521 H          1 MOL1         0.0833
       7    C3      19.031923   19.916150   23.590549 C.3        1 MOL1        -0.1684
       8    H5      18.418560   20.535105   24.259502 H          1 MOL1         0.0833
       9    H6      18.295589   19.442579   22.933609 H          1 MOL1         0.0833
      10    C4      19.952447   20.882228   22.786900 C.3        1 MOL1        -0.1760
      11    H7      19.370635   21.329183   21.970140 H          1 MOL1         0.0833
      12    H8      20.209502   21.712725   23.457318 H          1 MOL1         0.0833
      13    C5      21.280987   20.324612   22.216165 C.3        1 MOL1         0.1219
      14    H9      21.867178   19.924925   23.050099 H          1 MOL1         0.0790
      15    C6      21.171129   19.250766   21.095728 C.3        1 MOL1        -0.1760
      16    H10     21.077057   19.773766   20.134512 H          1 MOL1         0.0833
      17    H11     22.123542   18.708048   21.044195 H          1 MOL1         0.0833
      18    C7      20.008806   18.223552   21.165401 C.3        1 MOL1        -0.1684
      19    H12     20.037302   17.627426   20.243157 H          1 MOL1         0.0833
      20    H13     19.053435   18.753431   21.097830 H          1 MOL1         0.0833
      21    C8      20.003768   17.222366   22.357503 C.3        1 MOL1        -0.1684
      22    H14     20.622483   16.362356   22.066910 H          1 MOL1         0.0833
      23    H15     18.988114   16.822968   22.481481 H          1 MOL1         0.0833
      24    O1      22.007089   21.423799   21.678412 O.3        1 MOL1        -0.5508
      25    H16     22.128559   22.066671   22.407807 H          1 MOL1         0.3780
@<TRIPOS>BOND
    1     1     2    1
    2     1     3    1
    3     1     4    1
    4     4     5    1
    5     4     6    1
    6     4     7    1
    7     7     8    1
    8     7     9    1
    9     7    10    1
   10    10    11    1
   11    10    12    1
   12    10    13    1
   13    13    14    1
   14    13    15    1
   15    15    16    1
   16    15    17    1
   17    15    18    1
   18    18    19    1
   19    18    20    1
   20     1    21    1
   21    18    21    1
   22    21    22    1
   23    21    23    1
   24    13    24    1
   25    24    25    1
@<TRIPOS>SUBSTRUCTURE
       1 MOL1            1 RESIDUE      1      MOL     
@<SCITEGIC>MOL_PROPERTY
VConf Rank
SciTegic.value.IntegerValue
73

@<SCITEGIC>MOL_PROPERTY
Conf_Id
SciTegic.value.IntegerValue
161

@<SCITEGIC>MOL_PROPERTY
Delta U+W
SciTegic.value.DoubleValue
2.120

@<SCITEGIC>MOL_PROPERTY
U+W
SciTegic.value.DoubleValue
13.033

@<SCITEGIC>MOL_PROPERTY
Grad RMS
SciTegic.value.DoubleValue
0.000000

@<SCITEGIC>MOL_PROPERTY
U
SciTegic.value.DoubleValue
15.076

@<SCITEGIC>MOL_PROPERTY
W
SciTegic.value.DoubleValue
-2.043

@<SCITEGIC>MOL_PROPERTY
W(PB)
SciTegic.value.DoubleValue
-4.186

@<SCITEGIC>MOL_PROPERTY
W(SA)
SciTegic.value.DoubleValue
2.143

@<SCITEGIC>MOL_PROPERTY
Valence
SciTegic.value.DoubleValue
18.884

@<SCITEGIC>MOL_PROPERTY
Coulomb
SciTegic.value.DoubleValue
-8.074

@<SCITEGIC>MOL_PROPERTY
VdW
SciTegic.value.DoubleValue
4.266

@<SCITEGIC>MOL_PROPERTY
VdW6
SciTegic.value.DoubleValue
-13.486

@<SCITEGIC>MOL_PROPERTY
VdW12
SciTegic.value.DoubleValue
17.752

@<SCITEGIC>MOL_PROPERTY
Bond
SciTegic.value.DoubleValue
0.713

@<SCITEGIC>MOL_PROPERTY
Angle
SciTegic.value.DoubleValue
8.955

@<SCITEGIC>MOL_PROPERTY
Pdih
SciTegic.value.DoubleValue
9.215

@<SCITEGIC>MOL_PROPERTY
Idih
SciTegic.value.DoubleValue
0.000

@<SCITEGIC>MOL_PROPERTY
Tether
SciTegic.value.DoubleValue
0.000

@<TRIPOS>MOLECULE
guest-s17_confgen4.mol2 : confsearch ligand conformer 74
          25          25           1
SMALL
USER_CHARGES
 
@<TRIPOS>ATOM
       1    C1      18.546277   19.963153   23.093027 C.3        1 MOL1        -0.1684
       2    H1      17.596652   20.515112   23.116280 H          1 MOL1         0.0833
       3    H2      18.652497   19.547176   24.102935 H          1 MOL1         0.0833
       4    C2      19.683202   20.978595   22.817430 C.3        1 MOL1        -0.1684
       5    H3      19.816108   21.132362   21.738134 H          1 MOL1         0.0833
       6    H4      19.345870   21.948044   23.209281 H          1 MOL1         0.0833
       7    C3      21.037057   20.659925   23.510869 C.3        1 MOL1        -0.1684
       8    H5      20.879668   20.236734   24.512080 H          1 MOL1         0.0833
       9    H6      21.541593   21.621480   23.678374 H          1 MOL1         0.0833
      10    C4      22.012131   19.779271   22.687369 C.3        1 MOL1        -0.1760
      11    H7      21.906189   20.005330   21.619360 H          1 MOL1         0.0833
      12    H8      23.035011   20.087133   22.941480 H          1 MOL1         0.0833
      13    C5      21.936444   18.252237   22.940880 C.3        1 MOL1         0.1219
      14    H9      22.337535   18.056724   23.945705 H          1 MOL1         0.0790
      15    C6      20.530822   17.611787   22.870647 C.3        1 MOL1        -0.1760
      16    H10     20.651066   16.520658   22.838034 H          1 MOL1         0.0833
      17    H11     20.006412   17.800187   23.813654 H          1 MOL1         0.0833
      18    C7      19.669139   18.056915   21.658791 C.3        1 MOL1        -0.1684
      19    H12     19.374248   17.165524   21.088537 H          1 MOL1         0.0833
      20    H13     20.254260   18.660261   20.955437 H          1 MOL1         0.0833
      21    C8      18.384860   18.827440   22.048152 C.3        1 MOL1        -0.1684
      22    H14     17.646695   18.110852   22.433410 H          1 MOL1         0.0833
      23    H15     17.944631   19.246769   21.133197 H          1 MOL1         0.0833
      24    O1      22.765419   17.607494   21.984076 O.3        1 MOL1        -0.5508
      25    H16     22.299156   17.688892   21.127466 H          1 MOL1         0.3780
@<TRIPOS>BOND
    1     1     2    1
    2     1     3    1
    3     1     4    1
    4     4     5    1
    5     4     6    1
    6     4     7    1
    7     7     8    1
    8     7     9    1
    9     7    10    1
   10    10    11    1
   11    10    12    1
   12    10    13    1
   13    13    14    1
   14    13    15    1
   15    15    16    1
   16    15    17    1
   17    15    18    1
   18    18    19    1
   19    18    20    1
   20     1    21    1
   21    18    21    1
   22    21    22    1
   23    21    23    1
   24    13    24    1
   25    24    25    1
@<TRIPOS>SUBSTRUCTURE
       1 MOL1            1 RESIDUE      1      MOL     
@<SCITEGIC>MOL_PROPERTY
VConf Rank
SciTegic.value.IntegerValue
74

@<SCITEGIC>MOL_PROPERTY
Conf_Id
SciTegic.value.IntegerValue
164

@<SCITEGIC>MOL_PROPERTY
Delta U+W
SciTegic.value.DoubleValue
0.008

@<SCITEGIC>MOL_PROPERTY
U+W
SciTegic.value.DoubleValue
10.922

@<SCITEGIC>MOL_PROPERTY
Grad RMS
SciTegic.value.DoubleValue
0.000000

@<SCITEGIC>MOL_PROPERTY
U
SciTegic.value.DoubleValue
12.433

@<SCITEGIC>MOL_PROPERTY
W
SciTegic.value.DoubleValue
-1.511

@<SCITEGIC>MOL_PROPERTY
W(PB)
SciTegic.value.DoubleValue
-3.669

@<SCITEGIC>MOL_PROPERTY
W(SA)
SciTegic.value.DoubleValue
2.157

@<SCITEGIC>MOL_PROPERTY
Valence
SciTegic.value.DoubleValue
19.007

@<SCITEGIC>MOL_PROPERTY
Coulomb
SciTegic.value.DoubleValue
-9.373

@<SCITEGIC>MOL_PROPERTY
VdW
SciTegic.value.DoubleValue
2.799

@<SCITEGIC>MOL_PROPERTY
VdW6
SciTegic.value.DoubleValue
-12.597

@<SCITEGIC>MOL_PROPERTY
VdW12
SciTegic.value.DoubleValue
15.396

@<SCITEGIC>MOL_PROPERTY
Bond
SciTegic.value.DoubleValue
0.425

@<SCITEGIC>MOL_PROPERTY
Angle
SciTegic.value.DoubleValue
4.784

@<SCITEGIC>MOL_PROPERTY
Pdih
SciTegic.value.DoubleValue
13.799

@<SCITEGIC>MOL_PROPERTY
Idih
SciTegic.value.DoubleValue
0.000

@<SCITEGIC>MOL_PROPERTY
Tether
SciTegic.value.DoubleValue
0.000

@<TRIPOS>MOLECULE
guest-s17_confgen4.mol2 : confsearch ligand conformer 75
          25          25           1
SMALL
USER_CHARGES
 
@<TRIPOS>ATOM
       1    C1      21.636981   20.431558   22.889214 C.3        1 MOL1        -0.1684
       2    H1      20.954650   20.895678   22.168146 H          1 MOL1         0.0833
       3    H2      22.432492   21.174955   23.034801 H          1 MOL1         0.0833
       4    C2      22.293814   19.169303   22.276842 C.3        1 MOL1        -0.1684
       5    H3      22.847628   19.487576   21.383033 H          1 MOL1         0.0833
       6    H4      23.050305   18.780459   22.971845 H          1 MOL1         0.0833
       7    C3      21.349829   18.011928   21.861947 C.3        1 MOL1        -0.1684
       8    H5      21.107062   17.384244   22.726898 H          1 MOL1         0.0833
       9    H6      21.920841   17.351491   21.195036 H          1 MOL1         0.0833
      10    C4      20.055435   18.444957   21.123159 C.3        1 MOL1        -0.1760
      11    H7      20.189825   19.416477   20.632375 H          1 MOL1         0.0833
      12    H8      19.890088   17.728193   20.307593 H          1 MOL1         0.0833
      13    C5      18.774781   18.441063   21.995159 C.3        1 MOL1         0.1219
      14    H9      18.685892   17.452891   22.468673 H          1 MOL1         0.0790
      15    C6      18.689923   19.517880   23.105899 C.3        1 MOL1        -0.1760
      16    H10     18.779388   20.524688   22.680326 H          1 MOL1         0.0833
      17    H11     17.675318   19.468392   23.523473 H          1 MOL1         0.0833
      18    C7      19.682685   19.321872   24.282668 C.3        1 MOL1        -0.1684
      19    H12     19.979662   18.270079   24.363907 H          1 MOL1         0.0833
      20    H13     19.148788   19.529633   25.220108 H          1 MOL1         0.0833
      21    C8      20.931500   20.239729   24.254944 C.3        1 MOL1        -0.1684
      22    H14     21.659613   19.873185   24.991153 H          1 MOL1         0.0833
      23    H15     20.625591   21.233526   24.609468 H          1 MOL1         0.0833
      24    O1      17.663515   18.626877   21.129273 O.3        1 MOL1        -0.5508
      25    H16     17.773035   19.512170   20.725480 H          1 MOL1         0.3780
@<TRIPOS>BOND
    1     1     2    1
    2     1     3    1
    3     1     4    1
    4     4     5    1
    5     4     6    1
    6     4     7    1
    7     7     8    1
    8     7     9    1
    9     7    10    1
   10    10    11    1
   11    10    12    1
   12    10    13    1
   13    13    14    1
   14    13    15    1
   15    15    16    1
   16    15    17    1
   17    15    18    1
   18    18    19    1
   19    18    20    1
   20     1    21    1
   21    18    21    1
   22    21    22    1
   23    21    23    1
   24    13    24    1
   25    24    25    1
@<TRIPOS>SUBSTRUCTURE
       1 MOL1            1 RESIDUE      1      MOL     
@<SCITEGIC>MOL_PROPERTY
VConf Rank
SciTegic.value.IntegerValue
75

@<SCITEGIC>MOL_PROPERTY
Conf_Id
SciTegic.value.IntegerValue
15

@<SCITEGIC>MOL_PROPERTY
Delta U+W
SciTegic.value.DoubleValue
-1.271

@<SCITEGIC>MOL_PROPERTY
U+W
SciTegic.value.DoubleValue
9.643

@<SCITEGIC>MOL_PROPERTY
Grad RMS
SciTegic.value.DoubleValue
0.000000

@<SCITEGIC>MOL_PROPERTY
U
SciTegic.value.DoubleValue
11.413

@<SCITEGIC>MOL_PROPERTY
W
SciTegic.value.DoubleValue
-1.770

@<SCITEGIC>MOL_PROPERTY
W(PB)
SciTegic.value.DoubleValue
-3.908

@<SCITEGIC>MOL_PROPERTY
W(SA)
SciTegic.value.DoubleValue
2.138

@<SCITEGIC>MOL_PROPERTY
Valence
SciTegic.value.DoubleValue
17.496

@<SCITEGIC>MOL_PROPERTY
Coulomb
SciTegic.value.DoubleValue
-8.736

@<SCITEGIC>MOL_PROPERTY
VdW
SciTegic.value.DoubleValue
2.653

@<SCITEGIC>MOL_PROPERTY
VdW6
SciTegic.value.DoubleValue
-12.485

@<SCITEGIC>MOL_PROPERTY
VdW12
SciTegic.value.DoubleValue
15.138

@<SCITEGIC>MOL_PROPERTY
Bond
SciTegic.value.DoubleValue
0.414

@<SCITEGIC>MOL_PROPERTY
Angle
SciTegic.value.DoubleValue
5.295

@<SCITEGIC>MOL_PROPERTY
Pdih
SciTegic.value.DoubleValue
11.787

@<SCITEGIC>MOL_PROPERTY
Idih
SciTegic.value.DoubleValue
0.000

@<SCITEGIC>MOL_PROPERTY
Tether
SciTegic.value.DoubleValue
0.000

@<TRIPOS>MOLECULE
guest-s17_confgen4.mol2 : confsearch ligand conformer 76
          25          25           1
SMALL
USER_CHARGES
 
@<TRIPOS>ATOM
       1    C1      20.003165   21.074301   22.265817 C.3        1 MOL1        -0.1684
       2    H1      19.637436   22.067013   21.969597 H          1 MOL1         0.0833
       3    H2      21.096842   21.161058   22.243271 H          1 MOL1         0.0833
       4    C2      19.504249   20.820932   23.712783 C.3        1 MOL1        -0.1684
       5    H3      20.011661   21.532991   24.377862 H          1 MOL1         0.0833
       6    H4      18.435695   21.069560   23.768917 H          1 MOL1         0.0833
       7    C3      19.700072   19.392113   24.274442 C.3        1 MOL1        -0.1684
       8    H5      18.924067   18.730386   23.872316 H          1 MOL1         0.0833
       9    H6      19.510173   19.422075   25.356028 H          1 MOL1         0.0833
      10    C4      21.114884   18.804342   24.033015 C.3        1 MOL1        -0.1760
      11    H7      21.794215   19.568935   23.640207 H          1 MOL1         0.0833
      12    H8      21.542163   18.518918   25.003150 H          1 MOL1         0.0833
      13    C5      21.143005   17.553132   23.125298 C.3        1 MOL1         0.1219
      14    H9      20.749192   16.709461   23.710070 H          1 MOL1         0.0790
      15    C6      20.314266   17.627322   21.816800 C.3        1 MOL1        -0.1760
      16    H10     20.577422   16.743455   21.220259 H          1 MOL1         0.0833
      17    H11     19.248361   17.498813   22.040058 H          1 MOL1         0.0833
      18    C7      20.515304   18.883182   20.927169 C.3        1 MOL1        -0.1684
      19    H12     20.347839   18.565349   19.888863 H          1 MOL1         0.0833
      20    H13     21.556545   19.229089   20.958415 H          1 MOL1         0.0833
      21    C8      19.531003   20.053634   21.200981 C.3        1 MOL1        -0.1684
      22    H14     18.525363   19.680402   21.436719 H          1 MOL1         0.0833
      23    H15     19.422181   20.605207   20.257000 H          1 MOL1         0.0833
      24    O1      22.495729   17.280995   22.786940 O.3        1 MOL1        -0.5508
      25    H16     22.773806   18.005881   22.191659 H          1 MOL1         0.3780
@<TRIPOS>BOND
    1     1     2    1
    2     1     3    1
    3     1     4    1
    4     4     5    1
    5     4     6    1
    6     4     7    1
    7     7     8    1
    8     7     9    1
    9     7    10    1
   10    10    11    1
   11    10    12    1
   12    10    13    1
   13    13    14    1
   14    13    15    1
   15    15    16    1
   16    15    17    1
   17    15    18    1
   18    18    19    1
   19    18    20    1
   20     1    21    1
   21    18    21    1
   22    21    22    1
   23    21    23    1
   24    13    24    1
   25    24    25    1
@<TRIPOS>SUBSTRUCTURE
       1 MOL1            1 RESIDUE      1      MOL     
@<SCITEGIC>MOL_PROPERTY
VConf Rank
SciTegic.value.IntegerValue
76

@<SCITEGIC>MOL_PROPERTY
Conf_Id
SciTegic.value.IntegerValue
115

@<SCITEGIC>MOL_PROPERTY
Delta U+W
SciTegic.value.DoubleValue
0.038

@<SCITEGIC>MOL_PROPERTY
U+W
SciTegic.value.DoubleValue
10.952

@<SCITEGIC>MOL_PROPERTY
Grad RMS
SciTegic.value.DoubleValue
0.000000

@<SCITEGIC>MOL_PROPERTY
U
SciTegic.value.DoubleValue
12.526

@<SCITEGIC>MOL_PROPERTY
W
SciTegic.value.DoubleValue
-1.575

@<SCITEGIC>MOL_PROPERTY
W(PB)
SciTegic.value.DoubleValue
-3.698

@<SCITEGIC>MOL_PROPERTY
W(SA)
SciTegic.value.DoubleValue
2.123

@<SCITEGIC>MOL_PROPERTY
Valence
SciTegic.value.DoubleValue
19.016

@<SCITEGIC>MOL_PROPERTY
Coulomb
SciTegic.value.DoubleValue
-9.226

@<SCITEGIC>MOL_PROPERTY
VdW
SciTegic.value.DoubleValue
2.737

@<SCITEGIC>MOL_PROPERTY
VdW6
SciTegic.value.DoubleValue
-12.612

@<SCITEGIC>MOL_PROPERTY
VdW12
SciTegic.value.DoubleValue
15.349

@<SCITEGIC>MOL_PROPERTY
Bond
SciTegic.value.DoubleValue
0.421

@<SCITEGIC>MOL_PROPERTY
Angle
SciTegic.value.DoubleValue
4.883

@<SCITEGIC>MOL_PROPERTY
Pdih
SciTegic.value.DoubleValue
13.711

@<SCITEGIC>MOL_PROPERTY
Idih
SciTegic.value.DoubleValue
0.000

@<SCITEGIC>MOL_PROPERTY
Tether
SciTegic.value.DoubleValue
0.000

@<TRIPOS>MOLECULE
guest-s17_confgen4.mol2 : confsearch ligand conformer 77
          25          25           1
SMALL
USER_CHARGES
 
@<TRIPOS>ATOM
       1    C1      21.009491   21.249607   23.030520 C.3        1 MOL1        -0.1684
       2    H1      21.246765   22.280234   22.733039 H          1 MOL1         0.0833
       3    H2      21.015698   21.251703   24.128898 H          1 MOL1         0.0833
       4    C2      22.142223   20.343252   22.494821 C.3        1 MOL1        -0.1684
       5    H3      22.214844   20.436002   21.402705 H          1 MOL1         0.0833
       6    H4      23.090222   20.735508   22.887800 H          1 MOL1         0.0833
       7    C3      22.039376   18.854236   22.898737 C.3        1 MOL1        -0.1684
       8    H5      21.733347   18.764452   23.949576 H          1 MOL1         0.0833
       9    H6      23.052134   18.430683   22.853056 H          1 MOL1         0.0833
      10    C4      21.135099   18.001040   21.969071 C.3        1 MOL1        -0.1760
      11    H7      20.902162   18.535282   21.039482 H          1 MOL1         0.0833
      12    H8      21.717855   17.121815   21.662606 H          1 MOL1         0.0833
      13    C5      19.831840   17.499099   22.630529 C.3        1 MOL1         0.1219
      14    H9      20.035305   17.265466   23.685369 H          1 MOL1         0.0790
      15    C6      18.648300   18.489027   22.554984 C.3        1 MOL1        -0.1760
      16    H10     18.391119   18.685904   21.505848 H          1 MOL1         0.0833
      17    H11     17.771593   17.990497   22.988879 H          1 MOL1         0.0833
      18    C7      18.849092   19.823523   23.313583 C.3        1 MOL1        -0.1684
      19    H12     19.332585   19.643612   24.283065 H          1 MOL1         0.0833
      20    H13     17.851420   20.215571   23.554788 H          1 MOL1         0.0833
      21    C8      19.593437   20.917511   22.504174 C.3        1 MOL1        -0.1684
      22    H14     18.996729   21.837720   22.570188 H          1 MOL1         0.0833
      23    H15     19.630048   20.671763   21.434550 H          1 MOL1         0.0833
      24    O1      19.433248   16.305268   21.967550 O.3        1 MOL1        -0.5508
      25    H16     18.637911   15.973983   22.434480 H          1 MOL1         0.3780
@<TRIPOS>BOND
    1     1     2    1
    2     1     3    1
    3     1     4    1
    4     4     5    1
    5     4     6    1
    6     4     7    1
    7     7     8    1
    8     7     9    1
    9     7    10    1
   10    10    11    1
   11    10    12    1
   12    10    13    1
   13    13    14    1
   14    13    15    1
   15    15    16    1
   16    15    17    1
   17    15    18    1
   18    18    19    1
   19    18    20    1
   20     1    21    1
   21    18    21    1
   22    21    22    1
   23    21    23    1
   24    13    24    1
   25    24    25    1
@<TRIPOS>SUBSTRUCTURE
       1 MOL1            1 RESIDUE      1      MOL     
@<SCITEGIC>MOL_PROPERTY
VConf Rank
SciTegic.value.IntegerValue
77

@<SCITEGIC>MOL_PROPERTY
Conf_Id
SciTegic.value.IntegerValue
30

@<SCITEGIC>MOL_PROPERTY
Delta U+W
SciTegic.value.DoubleValue
0.000

@<SCITEGIC>MOL_PROPERTY
U+W
SciTegic.value.DoubleValue
10.913

@<SCITEGIC>MOL_PROPERTY
Grad RMS
SciTegic.value.DoubleValue
0.000000

@<SCITEGIC>MOL_PROPERTY
U
SciTegic.value.DoubleValue
13.140

@<SCITEGIC>MOL_PROPERTY
W
SciTegic.value.DoubleValue
-2.227

@<SCITEGIC>MOL_PROPERTY
W(PB)
SciTegic.value.DoubleValue
-4.367

@<SCITEGIC>MOL_PROPERTY
W(SA)
SciTegic.value.DoubleValue
2.140

@<SCITEGIC>MOL_PROPERTY
Valence
SciTegic.value.DoubleValue
19.155

@<SCITEGIC>MOL_PROPERTY
Coulomb
SciTegic.value.DoubleValue
-8.157

@<SCITEGIC>MOL_PROPERTY
VdW
SciTegic.value.DoubleValue
2.142

@<SCITEGIC>MOL_PROPERTY
VdW6
SciTegic.value.DoubleValue
-11.576

@<SCITEGIC>MOL_PROPERTY
VdW12
SciTegic.value.DoubleValue
13.718

@<SCITEGIC>MOL_PROPERTY
Bond
SciTegic.value.DoubleValue
0.294

@<SCITEGIC>MOL_PROPERTY
Angle
SciTegic.value.DoubleValue
3.547

@<SCITEGIC>MOL_PROPERTY
Pdih
SciTegic.value.DoubleValue
15.314

@<SCITEGIC>MOL_PROPERTY
Idih
SciTegic.value.DoubleValue
0.000

@<SCITEGIC>MOL_PROPERTY
Tether
SciTegic.value.DoubleValue
0.000

@<TRIPOS>MOLECULE
guest-s17_confgen4.mol2 : confsearch ligand conformer 78
          25          25           1
SMALL
USER_CHARGES
 
@<TRIPOS>ATOM
       1    C1      19.146190   18.218257   24.133336 C.3        1 MOL1        -0.1684
       2    H1      18.065938   18.106067   24.298640 H          1 MOL1         0.0833
       3    H2      19.630026   17.711627   24.979504 H          1 MOL1         0.0833
       4    C2      19.499920   19.724263   24.203364 C.3        1 MOL1        -0.1684
       5    H3      18.966086   20.157650   25.060142 H          1 MOL1         0.0833
       6    H4      20.561360   19.842088   24.450382 H          1 MOL1         0.0833
       7    C3      19.130138   20.529007   22.931575 C.3        1 MOL1        -0.1684
       8    H5      18.480922   21.366696   23.220506 H          1 MOL1         0.0833
       9    H6      18.521216   19.926331   22.247738 H          1 MOL1         0.0833
      10    C4      20.350978   21.107372   22.172232 C.3        1 MOL1        -0.1760
      11    H7      20.006584   21.489636   21.202167 H          1 MOL1         0.0833
      12    H8      20.722394   21.979937   22.725264 H          1 MOL1         0.0833
      13    C5      21.548882   20.152185   21.942402 C.3        1 MOL1         0.1219
      14    H9      22.056701   19.972450   22.899377 H          1 MOL1         0.0790
      15    C6      21.188299   18.785942   21.309428 C.3        1 MOL1        -0.1760
      16    H10     20.323907   18.891314   20.641390 H          1 MOL1         0.0833
      17    H11     22.020205   18.479973   20.661114 H          1 MOL1         0.0833
      18    C7      20.965636   17.630724   22.326110 C.3        1 MOL1        -0.1684
      19    H12     21.661135   17.706403   23.172854 H          1 MOL1         0.0833
      20    H13     21.233356   16.697387   21.811867 H          1 MOL1         0.0833
      21    C8      19.508504   17.466666   22.824759 C.3        1 MOL1        -0.1684
      22    H14     19.334367   16.398093   23.011560 H          1 MOL1         0.0833
      23    H15     18.806329   17.727320   22.022674 H          1 MOL1         0.0833
      24    O1      22.459735   20.821305   21.078202 O.3        1 MOL1        -0.5508
      25    H16     23.249828   20.246608   21.001188 H          1 MOL1         0.3780
@<TRIPOS>BOND
    1     1     2    1
    2     1     3    1
    3     1     4    1
    4     4     5    1
    5     4     6    1
    6     4     7    1
    7     7     8    1
    8     7     9    1
    9     7    10    1
   10    10    11    1
   11    10    12    1
   12    10    13    1
   13    13    14    1
   14    13    15    1
   15    15    16    1
   16    15    17    1
   17    15    18    1
   18    18    19    1
   19    18    20    1
   20     1    21    1
   21    18    21    1
   22    21    22    1
   23    21    23    1
   24    13    24    1
   25    24    25    1
@<TRIPOS>SUBSTRUCTURE
       1 MOL1            1 RESIDUE      1      MOL     
@<SCITEGIC>MOL_PROPERTY
VConf Rank
SciTegic.value.IntegerValue
78

@<SCITEGIC>MOL_PROPERTY
Conf_Id
SciTegic.value.IntegerValue
162

@<SCITEGIC>MOL_PROPERTY
Delta U+W
SciTegic.value.DoubleValue
0.219

@<SCITEGIC>MOL_PROPERTY
U+W
SciTegic.value.DoubleValue
11.132

@<SCITEGIC>MOL_PROPERTY
Grad RMS
SciTegic.value.DoubleValue
0.000000

@<SCITEGIC>MOL_PROPERTY
U
SciTegic.value.DoubleValue
13.296

@<SCITEGIC>MOL_PROPERTY
W
SciTegic.value.DoubleValue
-2.164

@<SCITEGIC>MOL_PROPERTY
W(PB)
SciTegic.value.DoubleValue
-4.311

@<SCITEGIC>MOL_PROPERTY
W(SA)
SciTegic.value.DoubleValue
2.148

@<SCITEGIC>MOL_PROPERTY
Valence
SciTegic.value.DoubleValue
18.607

@<SCITEGIC>MOL_PROPERTY
Coulomb
SciTegic.value.DoubleValue
-8.339

@<SCITEGIC>MOL_PROPERTY
VdW
SciTegic.value.DoubleValue
3.028

@<SCITEGIC>MOL_PROPERTY
VdW6
SciTegic.value.DoubleValue
-12.271

@<SCITEGIC>MOL_PROPERTY
VdW12
SciTegic.value.DoubleValue
15.299

@<SCITEGIC>MOL_PROPERTY
Bond
SciTegic.value.DoubleValue
0.423

@<SCITEGIC>MOL_PROPERTY
Angle
SciTegic.value.DoubleValue
4.488

@<SCITEGIC>MOL_PROPERTY
Pdih
SciTegic.value.DoubleValue
13.696

@<SCITEGIC>MOL_PROPERTY
Idih
SciTegic.value.DoubleValue
0.000

@<SCITEGIC>MOL_PROPERTY
Tether
SciTegic.value.DoubleValue
0.000

@<TRIPOS>MOLECULE
guest-s17_confgen4.mol2 : confsearch ligand conformer 79
          25          25           1
SMALL
USER_CHARGES
 
@<TRIPOS>ATOM
       1    C1      20.339535   19.024955   24.663412 C.3        1 MOL1        -0.1684
       2    H1      21.190823   19.716720   24.694483 H          1 MOL1         0.0833
       3    H2      20.121775   18.801976   25.716896 H          1 MOL1         0.0833
       4    C2      19.102615   19.735707   24.059622 C.3        1 MOL1        -0.1684
       5    H3      18.371708   19.002272   23.693453 H          1 MOL1         0.0833
       6    H4      18.600925   20.258308   24.885658 H          1 MOL1         0.0833
       7    C3      19.416891   20.804466   22.975857 C.3        1 MOL1        -0.1684
       8    H5      20.333619   21.358341   23.218753 H          1 MOL1         0.0833
       9    H6      18.608718   21.547495   23.019408 H          1 MOL1         0.0833
      10    C4      19.461577   20.275612   21.518632 C.3        1 MOL1        -0.1760
      11    H7      18.736240   19.462313   21.393229 H          1 MOL1         0.0833
      12    H8      19.103601   21.077500   20.859814 H          1 MOL1         0.0833
      13    C5      20.852565   19.852361   20.982594 C.3        1 MOL1         0.1219
      14    H9      21.451470   20.764058   20.843981 H          1 MOL1         0.0790
      15    C6      21.671675   18.896535   21.882321 C.3        1 MOL1        -0.1760
      16    H10     22.521700   18.513673   21.302776 H          1 MOL1         0.0833
      17    H11     22.131565   19.475596   22.690261 H          1 MOL1         0.0833
      18    C7      20.872585   17.693389   22.449215 C.3        1 MOL1        -0.1684
      19    H12     21.368301   16.763197   22.140400 H          1 MOL1         0.0833
      20    H13     19.874064   17.639834   21.999552 H          1 MOL1         0.0833
      21    C8      20.746752   17.686540   23.991908 C.3        1 MOL1        -0.1684
      22    H14     21.705587   17.366607   24.422043 H          1 MOL1         0.0833
      23    H15     20.020026   16.912485   24.273725 H          1 MOL1         0.0833
      24    O1      20.659930   19.230149   19.717744 O.3        1 MOL1        -0.5508
      25    H16     21.546467   18.967231   19.395186 H          1 MOL1         0.3780
@<TRIPOS>BOND
    1     1     2    1
    2     1     3    1
    3     1     4    1
    4     4     5    1
    5     4     6    1
    6     4     7    1
    7     7     8    1
    8     7     9    1
    9     7    10    1
   10    10    11    1
   11    10    12    1
   12    10    13    1
   13    13    14    1
   14    13    15    1
   15    15    16    1
   16    15    17    1
   17    15    18    1
   18    18    19    1
   19    18    20    1
   20     1    21    1
   21    18    21    1
   22    21    22    1
   23    21    23    1
   24    13    24    1
   25    24    25    1
@<TRIPOS>SUBSTRUCTURE
       1 MOL1            1 RESIDUE      1      MOL     
@<SCITEGIC>MOL_PROPERTY
VConf Rank
SciTegic.value.IntegerValue
79

@<SCITEGIC>MOL_PROPERTY
Conf_Id
SciTegic.value.IntegerValue
155

@<SCITEGIC>MOL_PROPERTY
Delta U+W
SciTegic.value.DoubleValue
0.339

@<SCITEGIC>MOL_PROPERTY
U+W
SciTegic.value.DoubleValue
11.252

@<SCITEGIC>MOL_PROPERTY
Grad RMS
SciTegic.value.DoubleValue
0.000000

@<SCITEGIC>MOL_PROPERTY
U
SciTegic.value.DoubleValue
13.420

@<SCITEGIC>MOL_PROPERTY
W
SciTegic.value.DoubleValue
-2.167

@<SCITEGIC>MOL_PROPERTY
W(PB)
SciTegic.value.DoubleValue
-4.325

@<SCITEGIC>MOL_PROPERTY
W(SA)
SciTegic.value.DoubleValue
2.157

@<SCITEGIC>MOL_PROPERTY
Valence
SciTegic.value.DoubleValue
18.609

@<SCITEGIC>MOL_PROPERTY
Coulomb
SciTegic.value.DoubleValue
-8.052

@<SCITEGIC>MOL_PROPERTY
VdW
SciTegic.value.DoubleValue
2.863

@<SCITEGIC>MOL_PROPERTY
VdW6
SciTegic.value.DoubleValue
-12.524

@<SCITEGIC>MOL_PROPERTY
VdW12
SciTegic.value.DoubleValue
15.387

@<SCITEGIC>MOL_PROPERTY
Bond
SciTegic.value.DoubleValue
0.430

@<SCITEGIC>MOL_PROPERTY
Angle
SciTegic.value.DoubleValue
4.724

@<SCITEGIC>MOL_PROPERTY
Pdih
SciTegic.value.DoubleValue
13.455

@<SCITEGIC>MOL_PROPERTY
Idih
SciTegic.value.DoubleValue
0.000

@<SCITEGIC>MOL_PROPERTY
Tether
SciTegic.value.DoubleValue
0.000

@<TRIPOS>MOLECULE
guest-s17_confgen4.mol2 : confsearch ligand conformer 80
          25          25           1
SMALL
USER_CHARGES
 
@<TRIPOS>ATOM
       1    C1      19.188257   19.823653   24.195661 C.3        1 MOL1        -0.1684
       2    H1      18.746938   20.820694   24.063430 H          1 MOL1         0.0833
       3    H2      18.812043   19.463447   25.162873 H          1 MOL1         0.0833
       4    C2      18.627207   18.868317   23.109671 C.3        1 MOL1        -0.1684
       5    H3      18.974076   17.849669   23.310116 H          1 MOL1         0.0833
       6    H4      17.540320   18.802717   23.254893 H          1 MOL1         0.0833
       7    C3      18.866957   19.251648   21.620110 C.3        1 MOL1        -0.1684
       8    H5      18.053650   19.925707   21.318899 H          1 MOL1         0.0833
       9    H6      18.749827   18.353783   20.998146 H          1 MOL1         0.0833
      10    C4      20.200671   19.956046   21.250062 C.3        1 MOL1        -0.1760
      11    H7      20.125423   20.270328   20.200841 H          1 MOL1         0.0833
      12    H8      20.267433   20.905054   21.789210 H          1 MOL1         0.0833
      13    C5      21.522187   19.148742   21.411800 C.3        1 MOL1         0.1219
      14    H9      22.344204   19.870497   21.521927 H          1 MOL1         0.0790
      15    C6      21.611898   18.142358   22.586399 C.3        1 MOL1        -0.1760
      16    H10     20.840131   17.377376   22.461107 H          1 MOL1         0.0833
      17    H11     22.550530   17.584305   22.471631 H          1 MOL1         0.0833
      18    C7      21.597513   18.712083   24.036748 C.3        1 MOL1        -0.1684
      19    H12     22.632834   18.968978   24.299338 H          1 MOL1         0.0833
      20    H13     21.310192   17.910327   24.730259 H          1 MOL1         0.0833
      21    C8      20.733211   19.968215   24.322758 C.3        1 MOL1        -0.1684
      22    H14     21.097091   20.805008   23.718320 H          1 MOL1         0.0833
      23    H15     20.942874   20.286703   25.353043 H          1 MOL1         0.0833
      24    O1      21.729352   18.407100   20.214623 O.3        1 MOL1        -0.5508
      25    H16     21.723909   19.052116   19.477624 H          1 MOL1         0.3780
@<TRIPOS>BOND
    1     1     2    1
    2     1     3    1
    3     1     4    1
    4     4     5    1
    5     4     6    1
    6     4     7    1
    7     7     8    1
    8     7     9    1
    9     7    10    1
   10    10    11    1
   11    10    12    1
   12    10    13    1
   13    13    14    1
   14    13    15    1
   15    15    16    1
   16    15    17    1
   17    15    18    1
   18    18    19    1
   19    18    20    1
   20     1    21    1
   21    18    21    1
   22    21    22    1
   23    21    23    1
   24    13    24    1
   25    24    25    1
@<TRIPOS>SUBSTRUCTURE
       1 MOL1            1 RESIDUE      1      MOL     
@<SCITEGIC>MOL_PROPERTY
VConf Rank
SciTegic.value.IntegerValue
80

@<SCITEGIC>MOL_PROPERTY
Conf_Id
SciTegic.value.IntegerValue
146

@<SCITEGIC>MOL_PROPERTY
Delta U+W
SciTegic.value.DoubleValue
2.553

@<SCITEGIC>MOL_PROPERTY
U+W
SciTegic.value.DoubleValue
13.466

@<SCITEGIC>MOL_PROPERTY
Grad RMS
SciTegic.value.DoubleValue
0.000000

@<SCITEGIC>MOL_PROPERTY
U
SciTegic.value.DoubleValue
15.643

@<SCITEGIC>MOL_PROPERTY
W
SciTegic.value.DoubleValue
-2.176

@<SCITEGIC>MOL_PROPERTY
W(PB)
SciTegic.value.DoubleValue
-4.307

@<SCITEGIC>MOL_PROPERTY
W(SA)
SciTegic.value.DoubleValue
2.131

@<SCITEGIC>MOL_PROPERTY
Valence
SciTegic.value.DoubleValue
18.916

@<SCITEGIC>MOL_PROPERTY
Coulomb
SciTegic.value.DoubleValue
-7.506

@<SCITEGIC>MOL_PROPERTY
VdW
SciTegic.value.DoubleValue
4.232

@<SCITEGIC>MOL_PROPERTY
VdW6
SciTegic.value.DoubleValue
-13.632

@<SCITEGIC>MOL_PROPERTY
VdW12
SciTegic.value.DoubleValue
17.864

@<SCITEGIC>MOL_PROPERTY
Bond
SciTegic.value.DoubleValue
0.735

@<SCITEGIC>MOL_PROPERTY
Angle
SciTegic.value.DoubleValue
9.140

@<SCITEGIC>MOL_PROPERTY
Pdih
SciTegic.value.DoubleValue
9.042

@<SCITEGIC>MOL_PROPERTY
Idih
SciTegic.value.DoubleValue
0.000

@<SCITEGIC>MOL_PROPERTY
Tether
SciTegic.value.DoubleValue
0.000

@<TRIPOS>MOLECULE
guest-s17_confgen4.mol2 : confsearch ligand conformer 81
          25          25           1
SMALL
USER_CHARGES
 
@<TRIPOS>ATOM
       1    C1      20.907051   17.427380   23.450281 C.3        1 MOL1        -0.1684
       2    H1      20.516487   17.038093   24.400238 H          1 MOL1         0.0833
       3    H2      21.612424   16.667723   23.086574 H          1 MOL1         0.0833
       4    C2      21.718154   18.719083   23.721866 C.3        1 MOL1        -0.1684
       5    H3      22.548513   18.448295   24.388183 H          1 MOL1         0.0833
       6    H4      22.204243   19.064396   22.802288 H          1 MOL1         0.0833
       7    C3      20.946352   19.879929   24.397985 C.3        1 MOL1        -0.1684
       8    H5      21.673792   20.669981   24.629566 H          1 MOL1         0.0833
       9    H6      20.556322   19.540888   25.367197 H          1 MOL1         0.0833
      10    C4      19.790759   20.522315   23.587030 C.3        1 MOL1        -0.1760
      11    H7      18.880907   19.920951   23.679779 H          1 MOL1         0.0833
      12    H8      19.542042   21.473159   24.077510 H          1 MOL1         0.0833
      13    C5      20.105083   20.790564   22.092601 C.3        1 MOL1         0.1219
      14    H9      21.192945   20.811042   21.943000 H          1 MOL1         0.0790
      15    C6      19.472234   19.765325   21.117845 C.3        1 MOL1        -0.1760
      16    H10     18.388985   19.723002   21.292492 H          1 MOL1         0.0833
      17    H11     19.593117   20.149453   20.096486 H          1 MOL1         0.0833
      18    C7      20.052064   18.324878   21.140441 C.3        1 MOL1        -0.1684
      19    H12     21.129131   18.334890   20.929192 H          1 MOL1         0.0833
      20    H13     19.599994   17.784256   20.297622 H          1 MOL1         0.0833
      21    C8      19.743866   17.519234   22.429020 C.3        1 MOL1        -0.1684
      22    H14     19.490005   16.491130   22.136454 H          1 MOL1         0.0833
      23    H15     18.835321   17.897182   22.911228 H          1 MOL1         0.0833
      24    O1      19.585787   22.071800   21.754790 O.3        1 MOL1        -0.5508
      25    H16     19.845517   22.246947   20.826305 H          1 MOL1         0.3780
@<TRIPOS>BOND
    1     1     2    1
    2     1     3    1
    3     1     4    1
    4     4     5    1
    5     4     6    1
    6     4     7    1
    7     7     8    1
    8     7     9    1
    9     7    10    1
   10    10    11    1
   11    10    12    1
   12    10    13    1
   13    13    14    1
   14    13    15    1
   15    15    16    1
   16    15    17    1
   17    15    18    1
   18    18    19    1
   19    18    20    1
   20     1    21    1
   21    18    21    1
   22    21    22    1
   23    21    23    1
   24    13    24    1
   25    24    25    1
@<TRIPOS>SUBSTRUCTURE
       1 MOL1            1 RESIDUE      1      MOL     
@<SCITEGIC>MOL_PROPERTY
VConf Rank
SciTegic.value.IntegerValue
81

@<SCITEGIC>MOL_PROPERTY
Conf_Id
SciTegic.value.IntegerValue
62

@<SCITEGIC>MOL_PROPERTY
Delta U+W
SciTegic.value.DoubleValue
-1.779

@<SCITEGIC>MOL_PROPERTY
U+W
SciTegic.value.DoubleValue
9.134

@<SCITEGIC>MOL_PROPERTY
Grad RMS
SciTegic.value.DoubleValue
0.000000

@<SCITEGIC>MOL_PROPERTY
U
SciTegic.value.DoubleValue
11.364

@<SCITEGIC>MOL_PROPERTY
W
SciTegic.value.DoubleValue
-2.230

@<SCITEGIC>MOL_PROPERTY
W(PB)
SciTegic.value.DoubleValue
-4.359

@<SCITEGIC>MOL_PROPERTY
W(SA)
SciTegic.value.DoubleValue
2.129

@<SCITEGIC>MOL_PROPERTY
Valence
SciTegic.value.DoubleValue
16.582

@<SCITEGIC>MOL_PROPERTY
Coulomb
SciTegic.value.DoubleValue
-8.150

@<SCITEGIC>MOL_PROPERTY
VdW
SciTegic.value.DoubleValue
2.933

@<SCITEGIC>MOL_PROPERTY
VdW6
SciTegic.value.DoubleValue
-12.531

@<SCITEGIC>MOL_PROPERTY
VdW12
SciTegic.value.DoubleValue
15.464

@<SCITEGIC>MOL_PROPERTY
Bond
SciTegic.value.DoubleValue
0.439

@<SCITEGIC>MOL_PROPERTY
Angle
SciTegic.value.DoubleValue
5.099

@<SCITEGIC>MOL_PROPERTY
Pdih
SciTegic.value.DoubleValue
11.044

@<SCITEGIC>MOL_PROPERTY
Idih
SciTegic.value.DoubleValue
0.000

@<SCITEGIC>MOL_PROPERTY
Tether
SciTegic.value.DoubleValue
0.000

@<TRIPOS>MOLECULE
guest-s17_confgen4.mol2 : confsearch ligand conformer 82
          25          25           1
SMALL
USER_CHARGES
 
@<TRIPOS>ATOM
       1    C1      18.552019   18.851926   22.399953 C.3        1 MOL1        -0.1684
       2    H1      18.870928   18.077781   23.107145 H          1 MOL1         0.0833
       3    H2      17.488375   18.642838   22.222237 H          1 MOL1         0.0833
       4    C2      19.286520   18.682924   21.046587 C.3        1 MOL1        -0.1684
       5    H3      19.033846   17.687143   20.657404 H          1 MOL1         0.0833
       6    H4      18.877679   19.398144   20.320085 H          1 MOL1         0.0833
       7    C3      20.831472   18.807991   21.060755 C.3        1 MOL1        -0.1684
       8    H5      21.132644   19.860847   21.018530 H          1 MOL1         0.0833
       9    H6      21.199439   18.379280   20.118507 H          1 MOL1         0.0833
      10    C4      21.544635   18.084017   22.234030 C.3        1 MOL1        -0.1760
      11    H7      20.927724   17.266281   22.626432 H          1 MOL1         0.0833
      12    H8      22.438492   17.599076   21.820271 H          1 MOL1         0.0833
      13    C5      22.013163   19.010705   23.384302 C.3        1 MOL1         0.1219
      14    H9      22.619750   19.818725   22.950555 H          1 MOL1         0.0790
      15    C6      20.899175   19.655104   24.246677 C.3        1 MOL1        -0.1760
      16    H10     20.266060   18.881452   24.697695 H          1 MOL1         0.0833
      17    H11     21.395374   20.150294   25.091889 H          1 MOL1         0.0833
      18    C7      20.043427   20.726680   23.519361 C.3        1 MOL1        -0.1684
      19    H12     20.600731   21.159017   22.680646 H          1 MOL1         0.0833
      20    H13     19.888856   21.567806   24.208972 H          1 MOL1         0.0833
      21    C8      18.642345   20.252529   23.055601 C.3        1 MOL1        -0.1684
      22    H14     18.220803   21.001459   22.371577 H          1 MOL1         0.0833
      23    H15     17.982224   20.247497   23.933722 H          1 MOL1         0.0833
      24    O1      22.833868   18.239425   24.252633 O.3        1 MOL1        -0.5508
      25    H16     23.572645   17.892794   23.710229 H          1 MOL1         0.3780
@<TRIPOS>BOND
    1     1     2    1
    2     1     3    1
    3     1     4    1
    4     4     5    1
    5     4     6    1
    6     4     7    1
    7     7     8    1
    8     7     9    1
    9     7    10    1
   10    10    11    1
   11    10    12    1
   12    10    13    1
   13    13    14    1
   14    13    15    1
   15    15    16    1
   16    15    17    1
   17    15    18    1
   18    18    19    1
   19    18    20    1
   20     1    21    1
   21    18    21    1
   22    21    22    1
   23    21    23    1
   24    13    24    1
   25    24    25    1
@<TRIPOS>SUBSTRUCTURE
       1 MOL1            1 RESIDUE      1      MOL     
@<SCITEGIC>MOL_PROPERTY
VConf Rank
SciTegic.value.IntegerValue
82

@<SCITEGIC>MOL_PROPERTY
Conf_Id
SciTegic.value.IntegerValue
121

@<SCITEGIC>MOL_PROPERTY
Delta U+W
SciTegic.value.DoubleValue
-1.283

@<SCITEGIC>MOL_PROPERTY
U+W
SciTegic.value.DoubleValue
9.630

@<SCITEGIC>MOL_PROPERTY
Grad RMS
SciTegic.value.DoubleValue
0.000000

@<SCITEGIC>MOL_PROPERTY
U
SciTegic.value.DoubleValue
11.876

@<SCITEGIC>MOL_PROPERTY
W
SciTegic.value.DoubleValue
-2.246

@<SCITEGIC>MOL_PROPERTY
W(PB)
SciTegic.value.DoubleValue
-4.376

@<SCITEGIC>MOL_PROPERTY
W(SA)
SciTegic.value.DoubleValue
2.130

@<SCITEGIC>MOL_PROPERTY
Valence
SciTegic.value.DoubleValue
17.153

@<SCITEGIC>MOL_PROPERTY
Coulomb
SciTegic.value.DoubleValue
-7.966

@<SCITEGIC>MOL_PROPERTY
VdW
SciTegic.value.DoubleValue
2.689

@<SCITEGIC>MOL_PROPERTY
VdW6
SciTegic.value.DoubleValue
-12.458

@<SCITEGIC>MOL_PROPERTY
VdW12
SciTegic.value.DoubleValue
15.147

@<SCITEGIC>MOL_PROPERTY
Bond
SciTegic.value.DoubleValue
0.421

@<SCITEGIC>MOL_PROPERTY
Angle
SciTegic.value.DoubleValue
5.258

@<SCITEGIC>MOL_PROPERTY
Pdih
SciTegic.value.DoubleValue
11.475

@<SCITEGIC>MOL_PROPERTY
Idih
SciTegic.value.DoubleValue
0.000

@<SCITEGIC>MOL_PROPERTY
Tether
SciTegic.value.DoubleValue
0.000

@<TRIPOS>MOLECULE
guest-s17_confgen4.mol2 : confsearch ligand conformer 83
          25          25           1
SMALL
USER_CHARGES
 
@<TRIPOS>ATOM
       1    C1      19.632515   17.531986   22.654778 C.3        1 MOL1        -0.1684
       2    H1      20.579020   17.437114   22.110488 H          1 MOL1         0.0833
       3    H2      19.216977   16.515207   22.666126 H          1 MOL1         0.0833
       4    C2      18.642808   18.424751   21.865364 C.3        1 MOL1        -0.1684
       5    H3      18.472634   17.945336   20.891668 H          1 MOL1         0.0833
       6    H4      17.668195   18.422179   22.371928 H          1 MOL1         0.0833
       7    C3      19.069502   19.891659   21.602617 C.3        1 MOL1        -0.1684
       8    H5      18.838615   20.520985   22.469558 H          1 MOL1         0.0833
       9    H6      18.423485   20.278549   20.802664 H          1 MOL1         0.0833
      10    C4      20.547089   20.084923   21.167924 C.3        1 MOL1        -0.1760
      11    H7      20.946959   19.173809   20.706659 H          1 MOL1         0.0833
      12    H8      20.558111   20.840165   20.370868 H          1 MOL1         0.0833
      13    C5      21.496696   20.591354   22.282235 C.3        1 MOL1         0.1219
      14    H9      21.057786   21.500485   22.717916 H          1 MOL1         0.0790
      15    C6      21.799572   19.598671   23.432988 C.3        1 MOL1        -0.1760
      16    H10     22.233165   18.672129   23.037048 H          1 MOL1         0.0833
      17    H11     22.588701   20.046074   24.051413 H          1 MOL1         0.0833
      18    C7      20.598848   19.297611   24.369436 C.3        1 MOL1        -0.1684
      19    H12     19.872966   20.118111   24.339995 H          1 MOL1         0.0833
      20    H13     20.964589   19.291788   25.405401 H          1 MOL1         0.0833
      21    C8      19.894093   17.938562   24.126487 C.3        1 MOL1        -0.1684
      22    H14     18.945898   17.924656   24.680767 H          1 MOL1         0.0833
      23    H15     20.514341   17.153031   24.579392 H          1 MOL1         0.0833
      24    O1      22.733787   20.930623   21.668292 O.3        1 MOL1        -0.5508
      25    H16     23.302213   21.312817   22.368984 H          1 MOL1         0.3780
@<TRIPOS>BOND
    1     1     2    1
    2     1     3    1
    3     1     4    1
    4     4     5    1
    5     4     6    1
    6     4     7    1
    7     7     8    1
    8     7     9    1
    9     7    10    1
   10    10    11    1
   11    10    12    1
   12    10    13    1
   13    13    14    1
   14    13    15    1
   15    15    16    1
   16    15    17    1
   17    15    18    1
   18    18    19    1
   19    18    20    1
   20     1    21    1
   21    18    21    1
   22    21    22    1
   23    21    23    1
   24    13    24    1
   25    24    25    1
@<TRIPOS>SUBSTRUCTURE
       1 MOL1            1 RESIDUE      1      MOL     
@<SCITEGIC>MOL_PROPERTY
VConf Rank
SciTegic.value.IntegerValue
83

@<SCITEGIC>MOL_PROPERTY
Conf_Id
SciTegic.value.IntegerValue
24

@<SCITEGIC>MOL_PROPERTY
Delta U+W
SciTegic.value.DoubleValue
-1.236

@<SCITEGIC>MOL_PROPERTY
U+W
SciTegic.value.DoubleValue
9.678

@<SCITEGIC>MOL_PROPERTY
Grad RMS
SciTegic.value.DoubleValue
0.000000

@<SCITEGIC>MOL_PROPERTY
U
SciTegic.value.DoubleValue
11.876

@<SCITEGIC>MOL_PROPERTY
W
SciTegic.value.DoubleValue
-2.199

@<SCITEGIC>MOL_PROPERTY
W(PB)
SciTegic.value.DoubleValue
-4.335

@<SCITEGIC>MOL_PROPERTY
W(SA)
SciTegic.value.DoubleValue
2.137

@<SCITEGIC>MOL_PROPERTY
Valence
SciTegic.value.DoubleValue
17.153

@<SCITEGIC>MOL_PROPERTY
Coulomb
SciTegic.value.DoubleValue
-7.966

@<SCITEGIC>MOL_PROPERTY
VdW
SciTegic.value.DoubleValue
2.689

@<SCITEGIC>MOL_PROPERTY
VdW6
SciTegic.value.DoubleValue
-12.458

@<SCITEGIC>MOL_PROPERTY
VdW12
SciTegic.value.DoubleValue
15.147

@<SCITEGIC>MOL_PROPERTY
Bond
SciTegic.value.DoubleValue
0.421

@<SCITEGIC>MOL_PROPERTY
Angle
SciTegic.value.DoubleValue
5.258

@<SCITEGIC>MOL_PROPERTY
Pdih
SciTegic.value.DoubleValue
11.475

@<SCITEGIC>MOL_PROPERTY
Idih
SciTegic.value.DoubleValue
0.000

@<SCITEGIC>MOL_PROPERTY
Tether
SciTegic.value.DoubleValue
0.000

@<TRIPOS>MOLECULE
guest-s17_confgen4.mol2 : confsearch ligand conformer 84
          25          25           1
SMALL
USER_CHARGES
 
@<TRIPOS>ATOM
       1    C1      19.153420   17.427976   23.182302 C.3        1 MOL1        -0.1684
       2    H1      19.496698   16.713164   23.942552 H          1 MOL1         0.0833
       3    H2      18.228378   17.002034   22.770325 H          1 MOL1         0.0833
       4    C2      18.793457   18.767149   23.878896 C.3        1 MOL1        -0.1684
       5    H3      18.153641   19.379931   23.231263 H          1 MOL1         0.0833
       6    H4      18.160481   18.518462   24.741776 H          1 MOL1         0.0833
       7    C3      19.987920   19.608955   24.392005 C.3        1 MOL1        -0.1684
       8    H5      20.800164   18.959122   24.744755 H          1 MOL1         0.0833
       9    H6      19.638471   20.147818   25.283473 H          1 MOL1         0.0833
      10    C4      20.517306   20.679811   23.396542 C.3        1 MOL1        -0.1760
      11    H7      19.691805   21.125339   22.826864 H          1 MOL1         0.0833
      12    H8      20.929571   21.496365   24.005005 H          1 MOL1         0.0833
      13    C5      21.634243   20.190691   22.442450 C.3        1 MOL1         0.1219
      14    H9      22.192846   19.388052   22.941858 H          1 MOL1         0.0790
      15    C6      21.152580   19.693285   21.055946 C.3        1 MOL1        -0.1760
      16    H10     20.831399   20.552161   20.452169 H          1 MOL1         0.0833
      17    H11     22.020479   19.266553   20.536069 H          1 MOL1         0.0833
      18    C7      20.013635   18.642877   21.046565 C.3        1 MOL1        -0.1684
      19    H12     19.947272   18.221482   20.034250 H          1 MOL1         0.0833
      20    H13     19.050093   19.140882   21.205530 H          1 MOL1         0.0833
      21    C8      20.213823   17.483762   22.055391 C.3        1 MOL1        -0.1684
      22    H14     21.217462   17.511905   22.495359 H          1 MOL1         0.0833
      23    H15     20.177040   16.531855   21.508225 H          1 MOL1         0.0833
      24    O1      22.531765   21.269666   22.214468 O.3        1 MOL1        -0.5508
      25    H16     22.008913   21.979624   21.788373 H          1 MOL1         0.3780
@<TRIPOS>BOND
    1     1     2    1
    2     1     3    1
    3     1     4    1
    4     4     5    1
    5     4     6    1
    6     4     7    1
    7     7     8    1
    8     7     9    1
    9     7    10    1
   10    10    11    1
   11    10    12    1
   12    10    13    1
   13    13    14    1
   14    13    15    1
   15    15    16    1
   16    15    17    1
   17    15    18    1
   18    18    19    1
   19    18    20    1
   20     1    21    1
   21    18    21    1
   22    21    22    1
   23    21    23    1
   24    13    24    1
   25    24    25    1
@<TRIPOS>SUBSTRUCTURE
       1 MOL1            1 RESIDUE      1      MOL     
@<SCITEGIC>MOL_PROPERTY
VConf Rank
SciTegic.value.IntegerValue
84

@<SCITEGIC>MOL_PROPERTY
Conf_Id
SciTegic.value.IntegerValue
167

@<SCITEGIC>MOL_PROPERTY
Delta U+W
SciTegic.value.DoubleValue
0.388

@<SCITEGIC>MOL_PROPERTY
U+W
SciTegic.value.DoubleValue
11.301

@<SCITEGIC>MOL_PROPERTY
Grad RMS
SciTegic.value.DoubleValue
0.000000

@<SCITEGIC>MOL_PROPERTY
U
SciTegic.value.DoubleValue
13.202

@<SCITEGIC>MOL_PROPERTY
W
SciTegic.value.DoubleValue
-1.901

@<SCITEGIC>MOL_PROPERTY
W(PB)
SciTegic.value.DoubleValue
-4.065

@<SCITEGIC>MOL_PROPERTY
W(SA)
SciTegic.value.DoubleValue
2.163

@<SCITEGIC>MOL_PROPERTY
Valence
SciTegic.value.DoubleValue
18.957

@<SCITEGIC>MOL_PROPERTY
Coulomb
SciTegic.value.DoubleValue
-8.753

@<SCITEGIC>MOL_PROPERTY
VdW
SciTegic.value.DoubleValue
2.998

@<SCITEGIC>MOL_PROPERTY
VdW6
SciTegic.value.DoubleValue
-12.294

@<SCITEGIC>MOL_PROPERTY
VdW12
SciTegic.value.DoubleValue
15.292

@<SCITEGIC>MOL_PROPERTY
Bond
SciTegic.value.DoubleValue
0.419

@<SCITEGIC>MOL_PROPERTY
Angle
SciTegic.value.DoubleValue
4.543

@<SCITEGIC>MOL_PROPERTY
Pdih
SciTegic.value.DoubleValue
13.996

@<SCITEGIC>MOL_PROPERTY
Idih
SciTegic.value.DoubleValue
0.000

@<SCITEGIC>MOL_PROPERTY
Tether
SciTegic.value.DoubleValue
0.000

@<TRIPOS>MOLECULE
guest-s17_confgen4.mol2 : confsearch ligand conformer 85
          25          25           1
SMALL
USER_CHARGES
 
@<TRIPOS>ATOM
       1    C1      18.373757   18.656319   23.081602 C.3        1 MOL1        -0.1684
       2    H1      17.511617   19.238324   22.728774 H          1 MOL1         0.0833
       3    H2      17.950406   17.794092   23.614760 H          1 MOL1         0.0833
       4    C2      19.165181   19.504879   24.110629 C.3        1 MOL1        -0.1684
       5    H3      19.228483   20.548847   23.783633 H          1 MOL1         0.0833
       6    H4      18.562086   19.542900   25.028161 H          1 MOL1         0.0833
       7    C3      20.570781   18.964218   24.480520 C.3        1 MOL1        -0.1684
       8    H5      20.629266   17.879018   24.326601 H          1 MOL1         0.0833
       9    H6      20.705974   19.108168   25.561217 H          1 MOL1         0.0833
      10    C4      21.752741   19.684979   23.776445 C.3        1 MOL1        -0.1760
      11    H7      21.695640   20.762544   23.978524 H          1 MOL1         0.0833
      12    H8      22.680110   19.342904   24.254732 H          1 MOL1         0.0833
      13    C5      21.900821   19.459688   22.251085 C.3        1 MOL1         0.1219
      14    H9      21.924756   18.380636   22.048034 H          1 MOL1         0.0790
      15    C6      20.789813   20.129324   21.401392 C.3        1 MOL1        -0.1760
      16    H10     20.327155   20.946805   21.963483 H          1 MOL1         0.0833
      17    H11     21.241616   20.620670   20.529385 H          1 MOL1         0.0833
      18    C7      19.700800   19.162817   20.867841 C.3        1 MOL1        -0.1684
      19    H12     20.120455   18.622823   20.008050 H          1 MOL1         0.0833
      20    H13     18.864641   19.753193   20.469286 H          1 MOL1         0.0833
      21    C8      19.153637   18.106652   21.860816 C.3        1 MOL1        -0.1684
      22    H14     19.955502   17.436748   22.191559 H          1 MOL1         0.0833
      23    H15     18.466235   17.458400   21.300397 H          1 MOL1         0.0833
      24    O1      23.152839   20.011664   21.861298 O.3        1 MOL1        -0.5508
      25    H16     23.267701   19.803232   20.910572 H          1 MOL1         0.3780
@<TRIPOS>BOND
    1     1     2    1
    2     1     3    1
    3     1     4    1
    4     4     5    1
    5     4     6    1
    6     4     7    1
    7     7     8    1
    8     7     9    1
    9     7    10    1
   10    10    11    1
   11    10    12    1
   12    10    13    1
   13    13    14    1
   14    13    15    1
   15    15    16    1
   16    15    17    1
   17    15    18    1
   18    18    19    1
   19    18    20    1
   20     1    21    1
   21    18    21    1
   22    21    22    1
   23    21    23    1
   24    13    24    1
   25    24    25    1
@<TRIPOS>SUBSTRUCTURE
       1 MOL1            1 RESIDUE      1      MOL     
@<SCITEGIC>MOL_PROPERTY
VConf Rank
SciTegic.value.IntegerValue
85

@<SCITEGIC>MOL_PROPERTY
Conf_Id
SciTegic.value.IntegerValue
60

@<SCITEGIC>MOL_PROPERTY
Delta U+W
SciTegic.value.DoubleValue
-1.838

@<SCITEGIC>MOL_PROPERTY
U+W
SciTegic.value.DoubleValue
9.075

@<SCITEGIC>MOL_PROPERTY
Grad RMS
SciTegic.value.DoubleValue
0.000000

@<SCITEGIC>MOL_PROPERTY
U
SciTegic.value.DoubleValue
11.150

@<SCITEGIC>MOL_PROPERTY
W
SciTegic.value.DoubleValue
-2.074

@<SCITEGIC>MOL_PROPERTY
W(PB)
SciTegic.value.DoubleValue
-4.196

@<SCITEGIC>MOL_PROPERTY
W(SA)
SciTegic.value.DoubleValue
2.121

@<SCITEGIC>MOL_PROPERTY
Valence
SciTegic.value.DoubleValue
16.582

@<SCITEGIC>MOL_PROPERTY
Coulomb
SciTegic.value.DoubleValue
-8.361

@<SCITEGIC>MOL_PROPERTY
VdW
SciTegic.value.DoubleValue
2.928

@<SCITEGIC>MOL_PROPERTY
VdW6
SciTegic.value.DoubleValue
-12.539

@<SCITEGIC>MOL_PROPERTY
VdW12
SciTegic.value.DoubleValue
15.467

@<SCITEGIC>MOL_PROPERTY
Bond
SciTegic.value.DoubleValue
0.441

@<SCITEGIC>MOL_PROPERTY
Angle
SciTegic.value.DoubleValue
5.093

@<SCITEGIC>MOL_PROPERTY
Pdih
SciTegic.value.DoubleValue
11.049

@<SCITEGIC>MOL_PROPERTY
Idih
SciTegic.value.DoubleValue
0.000

@<SCITEGIC>MOL_PROPERTY
Tether
SciTegic.value.DoubleValue
0.000

@<TRIPOS>MOLECULE
guest-s17_confgen4.mol2 : confsearch ligand conformer 86
          25          25           1
SMALL
USER_CHARGES
 
@<TRIPOS>ATOM
       1    C1      19.372302   20.229938   24.162039 C.3        1 MOL1        -0.1684
       2    H1      18.964043   21.235419   23.992226 H          1 MOL1         0.0833
       3    H2      19.176807   20.006001   25.219655 H          1 MOL1         0.0833
       4    C2      20.909879   20.264008   23.973999 C.3        1 MOL1        -0.1684
       5    H3      21.313389   20.964334   24.718004 H          1 MOL1         0.0833
       6    H4      21.347684   19.295625   24.241784 H          1 MOL1         0.0833
       7    C3      21.418143   20.726456   22.585229 C.3        1 MOL1        -0.1684
       8    H5      22.512013   20.809821   22.643898 H          1 MOL1         0.0833
       9    H6      21.052456   21.742749   22.385299 H          1 MOL1         0.0833
      10    C4      21.073402   19.820509   21.374785 C.3        1 MOL1        -0.1760
      11    H7      20.053705   20.021038   21.030865 H          1 MOL1         0.0833
      12    H8      21.709969   20.140879   20.539269 H          1 MOL1         0.0833
      13    C5      21.265099   18.301033   21.618031 C.3        1 MOL1         0.1219
      14    H9      21.932584   18.143052   22.475737 H          1 MOL1         0.0790
      15    C6      19.944439   17.526869   21.854532 C.3        1 MOL1        -0.1760
      16    H10     19.262915   17.709902   21.013541 H          1 MOL1         0.0833
      17    H11     20.176789   16.454235   21.819132 H          1 MOL1         0.0833
      18    C7      19.200925   17.799801   23.190550 C.3        1 MOL1        -0.1684
      19    H12     19.850460   17.584163   24.048672 H          1 MOL1         0.0833
      20    H13     18.384458   17.067857   23.257959 H          1 MOL1         0.0833
      21    C8      18.571543   19.212165   23.308677 C.3        1 MOL1        -0.1684
      22    H14     17.583131   19.107024   23.776674 H          1 MOL1         0.0833
      23    H15     18.359452   19.623023   22.315190 H          1 MOL1         0.0833
      24    O1      21.883850   17.740449   20.466051 O.3        1 MOL1        -0.5508
      25    H16     22.749276   18.189339   20.365793 H          1 MOL1         0.3780
@<TRIPOS>BOND
    1     1     2    1
    2     1     3    1
    3     1     4    1
    4     4     5    1
    5     4     6    1
    6     4     7    1
    7     7     8    1
    8     7     9    1
    9     7    10    1
   10    10    11    1
   11    10    12    1
   12    10    13    1
   13    13    14    1
   14    13    15    1
   15    15    16    1
   16    15    17    1
   17    15    18    1
   18    18    19    1
   19    18    20    1
   20     1    21    1
   21    18    21    1
   22    21    22    1
   23    21    23    1
   24    13    24    1
   25    24    25    1
@<TRIPOS>SUBSTRUCTURE
       1 MOL1            1 RESIDUE      1      MOL     
@<SCITEGIC>MOL_PROPERTY
VConf Rank
SciTegic.value.IntegerValue
86

@<SCITEGIC>MOL_PROPERTY
Conf_Id
SciTegic.value.IntegerValue
129

@<SCITEGIC>MOL_PROPERTY
Delta U+W
SciTegic.value.DoubleValue
-1.846

@<SCITEGIC>MOL_PROPERTY
U+W
SciTegic.value.DoubleValue
9.067

@<SCITEGIC>MOL_PROPERTY
Grad RMS
SciTegic.value.DoubleValue
0.000000

@<SCITEGIC>MOL_PROPERTY
U
SciTegic.value.DoubleValue
11.150

@<SCITEGIC>MOL_PROPERTY
W
SciTegic.value.DoubleValue
-2.083

@<SCITEGIC>MOL_PROPERTY
W(PB)
SciTegic.value.DoubleValue
-4.217

@<SCITEGIC>MOL_PROPERTY
W(SA)
SciTegic.value.DoubleValue
2.134

@<SCITEGIC>MOL_PROPERTY
Valence
SciTegic.value.DoubleValue
16.583

@<SCITEGIC>MOL_PROPERTY
Coulomb
SciTegic.value.DoubleValue
-8.361

@<SCITEGIC>MOL_PROPERTY
VdW
SciTegic.value.DoubleValue
2.928

@<SCITEGIC>MOL_PROPERTY
VdW6
SciTegic.value.DoubleValue
-12.539

@<SCITEGIC>MOL_PROPERTY
VdW12
SciTegic.value.DoubleValue
15.467

@<SCITEGIC>MOL_PROPERTY
Bond
SciTegic.value.DoubleValue
0.441

@<SCITEGIC>MOL_PROPERTY
Angle
SciTegic.value.DoubleValue
5.093

@<SCITEGIC>MOL_PROPERTY
Pdih
SciTegic.value.DoubleValue
11.049

@<SCITEGIC>MOL_PROPERTY
Idih
SciTegic.value.DoubleValue
0.000

@<SCITEGIC>MOL_PROPERTY
Tether
SciTegic.value.DoubleValue
0.000

@<TRIPOS>MOLECULE
guest-s17_confgen4.mol2 : confsearch ligand conformer 87
          25          25           1
SMALL
USER_CHARGES
 
@<TRIPOS>ATOM
       1    C1      21.933775   18.763686   23.771661 C.3        1 MOL1        -0.1684
       2    H1      22.718199   18.104335   23.376134 H          1 MOL1         0.0833
       3    H2      22.272458   19.058323   24.774358 H          1 MOL1         0.0833
       4    C2      20.624552   17.953820   23.945639 C.3        1 MOL1        -0.1684
       5    H3      20.833360   17.147017   24.661372 H          1 MOL1         0.0833
       6    H4      19.859643   18.566249   24.436602 H          1 MOL1         0.0833
       7    C3      20.053986   17.295061   22.664717 C.3        1 MOL1        -0.1684
       8    H5      19.203373   16.668511   22.966285 H          1 MOL1         0.0833
       9    H6      20.799804   16.604282   22.248693 H          1 MOL1         0.0833
      10    C4      19.567145   18.246959   21.541262 C.3        1 MOL1        -0.1760
      11    H7      20.416354   18.586122   20.939306 H          1 MOL1         0.0833
      12    H8      18.961825   17.643590   20.851225 H          1 MOL1         0.0833
      13    C5      18.732593   19.460915   22.025416 C.3        1 MOL1         0.1219
      14    H9      18.328260   19.256726   23.025762 H          1 MOL1         0.0790
      15    C6      19.512625   20.799448   22.053302 C.3        1 MOL1        -0.1760
      16    H10     19.944025   20.991851   21.062297 H          1 MOL1         0.0833
      17    H11     18.786063   21.605265   22.223598 H          1 MOL1         0.0833
      18    C7      20.623410   20.941319   23.128964 C.3        1 MOL1        -0.1684
      19    H12     20.211397   20.796279   24.135941 H          1 MOL1         0.0833
      20    H13     20.960828   21.986577   23.105476 H          1 MOL1         0.0833
      21    C8      21.867771   20.044724   22.900434 C.3        1 MOL1        -0.1684
      22    H14     22.763156   20.637985   23.131471 H          1 MOL1         0.0833
      23    H15     21.973033   19.795476   21.838551 H          1 MOL1         0.0833
      24    O1      17.636366   19.629697   21.135493 O.3        1 MOL1        -0.5508
      25    H16     18.021371   19.814196   20.254203 H          1 MOL1         0.3780
@<TRIPOS>BOND
    1     1     2    1
    2     1     3    1
    3     1     4    1
    4     4     5    1
    5     4     6    1
    6     4     7    1
    7     7     8    1
    8     7     9    1
    9     7    10    1
   10    10    11    1
   11    10    12    1
   12    10    13    1
   13    13    14    1
   14    13    15    1
   15    15    16    1
   16    15    17    1
   17    15    18    1
   18    18    19    1
   19    18    20    1
   20     1    21    1
   21    18    21    1
   22    21    22    1
   23    21    23    1
   24    13    24    1
   25    24    25    1
@<TRIPOS>SUBSTRUCTURE
       1 MOL1            1 RESIDUE      1      MOL     
@<SCITEGIC>MOL_PROPERTY
VConf Rank
SciTegic.value.IntegerValue
87

@<SCITEGIC>MOL_PROPERTY
Conf_Id
SciTegic.value.IntegerValue
140

@<SCITEGIC>MOL_PROPERTY
Delta U+W
SciTegic.value.DoubleValue
-1.702

@<SCITEGIC>MOL_PROPERTY
U+W
SciTegic.value.DoubleValue
9.211

@<SCITEGIC>MOL_PROPERTY
Grad RMS
SciTegic.value.DoubleValue
0.000000

@<SCITEGIC>MOL_PROPERTY
U
SciTegic.value.DoubleValue
11.181

@<SCITEGIC>MOL_PROPERTY
W
SciTegic.value.DoubleValue
-1.969

@<SCITEGIC>MOL_PROPERTY
W(PB)
SciTegic.value.DoubleValue
-4.093

@<SCITEGIC>MOL_PROPERTY
W(SA)
SciTegic.value.DoubleValue
2.124

@<SCITEGIC>MOL_PROPERTY
Valence
SciTegic.value.DoubleValue
16.954

@<SCITEGIC>MOL_PROPERTY
Coulomb
SciTegic.value.DoubleValue
-8.661

@<SCITEGIC>MOL_PROPERTY
VdW
SciTegic.value.DoubleValue
2.887

@<SCITEGIC>MOL_PROPERTY
VdW6
SciTegic.value.DoubleValue
-12.561

@<SCITEGIC>MOL_PROPERTY
VdW12
SciTegic.value.DoubleValue
15.448

@<SCITEGIC>MOL_PROPERTY
Bond
SciTegic.value.DoubleValue
0.433

@<SCITEGIC>MOL_PROPERTY
Angle
SciTegic.value.DoubleValue
5.120

@<SCITEGIC>MOL_PROPERTY
Pdih
SciTegic.value.DoubleValue
11.401

@<SCITEGIC>MOL_PROPERTY
Idih
SciTegic.value.DoubleValue
0.000

@<SCITEGIC>MOL_PROPERTY
Tether
SciTegic.value.DoubleValue
0.000

@<TRIPOS>MOLECULE
guest-s17_confgen4.mol2 : confsearch ligand conformer 88
          25          25           1
SMALL
USER_CHARGES
 
@<TRIPOS>ATOM
       1    C1      19.770413   19.913018   24.506170 C.3        1 MOL1        -0.1684
       2    H1      18.721731   19.945972   24.831268 H          1 MOL1         0.0833
       3    H2      20.351746   20.332636   25.338572 H          1 MOL1         0.0833
       4    C2      19.947786   20.852848   23.285634 C.3        1 MOL1        -0.1684
       5    H3      19.096818   20.761890   22.601249 H          1 MOL1         0.0833
       6    H4      19.886952   21.883555   23.661126 H          1 MOL1         0.0833
       7    C3      21.285037   20.698504   22.515904 C.3        1 MOL1        -0.1684
       8    H5      22.070623   20.292347   23.166046 H          1 MOL1         0.0833
       9    H6      21.629102   21.706462   22.246450 H          1 MOL1         0.0833
      10    C4      21.186513   19.885570   21.196644 C.3        1 MOL1        -0.1760
      11    H7      20.424688   20.339663   20.549622 H          1 MOL1         0.0833
      12    H8      22.139764   20.006446   20.664726 H          1 MOL1         0.0833
      13    C5      20.911471   18.366520   21.329796 C.3        1 MOL1         0.1219
      14    H9      21.657134   17.921224   22.001786 H          1 MOL1         0.0790
      15    C6      19.484899   18.018474   21.828119 C.3        1 MOL1        -0.1760
      16    H10     18.800019   18.848847   21.628221 H          1 MOL1         0.0833
      17    H11     19.088086   17.183195   21.235274 H          1 MOL1         0.0833
      18    C7      19.394532   17.597265   23.317981 C.3        1 MOL1        -0.1684
      19    H12     19.741753   16.557760   23.394913 H          1 MOL1         0.0833
      20    H13     18.338832   17.581675   23.620887 H          1 MOL1         0.0833
      21    C8      20.206962   18.436315   24.335931 C.3        1 MOL1        -0.1684
      22    H14     21.278615   18.378630   24.113592 H          1 MOL1         0.0833
      23    H15     20.101877   17.950637   25.315665 H          1 MOL1         0.0833
      24    O1      21.084288   17.791711   20.040654 O.3        1 MOL1        -0.5508
      25    H16     20.413102   18.206453   19.460619 H          1 MOL1         0.3780
@<TRIPOS>BOND
    1     1     2    1
    2     1     3    1
    3     1     4    1
    4     4     5    1
    5     4     6    1
    6     4     7    1
    7     7     8    1
    8     7     9    1
    9     7    10    1
   10    10    11    1
   11    10    12    1
   12    10    13    1
   13    13    14    1
   14    13    15    1
   15    15    16    1
   16    15    17    1
   17    15    18    1
   18    18    19    1
   19    18    20    1
   20     1    21    1
   21    18    21    1
   22    21    22    1
   23    21    23    1
   24    13    24    1
   25    24    25    1
@<TRIPOS>SUBSTRUCTURE
       1 MOL1            1 RESIDUE      1      MOL     
@<SCITEGIC>MOL_PROPERTY
VConf Rank
SciTegic.value.IntegerValue
88

@<SCITEGIC>MOL_PROPERTY
Conf_Id
SciTegic.value.IntegerValue
68

@<SCITEGIC>MOL_PROPERTY
Delta U+W
SciTegic.value.DoubleValue
-1.765

@<SCITEGIC>MOL_PROPERTY
U+W
SciTegic.value.DoubleValue
9.148

@<SCITEGIC>MOL_PROPERTY
Grad RMS
SciTegic.value.DoubleValue
0.000000

@<SCITEGIC>MOL_PROPERTY
U
SciTegic.value.DoubleValue
11.181

@<SCITEGIC>MOL_PROPERTY
W
SciTegic.value.DoubleValue
-2.032

@<SCITEGIC>MOL_PROPERTY
W(PB)
SciTegic.value.DoubleValue
-4.147

@<SCITEGIC>MOL_PROPERTY
W(SA)
SciTegic.value.DoubleValue
2.114

@<SCITEGIC>MOL_PROPERTY
Valence
SciTegic.value.DoubleValue
16.955

@<SCITEGIC>MOL_PROPERTY
Coulomb
SciTegic.value.DoubleValue
-8.661

@<SCITEGIC>MOL_PROPERTY
VdW
SciTegic.value.DoubleValue
2.887

@<SCITEGIC>MOL_PROPERTY
VdW6
SciTegic.value.DoubleValue
-12.561

@<SCITEGIC>MOL_PROPERTY
VdW12
SciTegic.value.DoubleValue
15.448

@<SCITEGIC>MOL_PROPERTY
Bond
SciTegic.value.DoubleValue
0.433

@<SCITEGIC>MOL_PROPERTY
Angle
SciTegic.value.DoubleValue
5.121

@<SCITEGIC>MOL_PROPERTY
Pdih
SciTegic.value.DoubleValue
11.402

@<SCITEGIC>MOL_PROPERTY
Idih
SciTegic.value.DoubleValue
0.000

@<SCITEGIC>MOL_PROPERTY
Tether
SciTegic.value.DoubleValue
0.000

@<TRIPOS>MOLECULE
guest-s17_confgen4.mol2 : confsearch ligand conformer 89
          25          25           1
SMALL
USER_CHARGES
 
@<TRIPOS>ATOM
       1    C1      19.246213   18.059052   23.760882 C.3        1 MOL1        -0.1684
       2    H1      18.584483   17.381133   24.317313 H          1 MOL1         0.0833
       3    H2      19.876968   18.515753   24.531896 H          1 MOL1         0.0833
       4    C2      18.364809   19.132489   23.070836 C.3        1 MOL1        -0.1684
       5    H3      18.130920   18.847607   22.037032 H          1 MOL1         0.0833
       6    H4      17.396192   19.147091   23.589090 H          1 MOL1         0.0833
       7    C3      18.930846   20.575668   23.129495 C.3        1 MOL1        -0.1684
       8    H5      19.111418   20.853926   24.176891 H          1 MOL1         0.0833
       9    H6      18.145052   21.256824   22.775394 H          1 MOL1         0.0833
      10    C4      20.209810   20.856795   22.296565 C.3        1 MOL1        -0.1760
      11    H7      20.039052   20.612930   21.241137 H          1 MOL1         0.0833
      12    H8      20.369159   21.943398   22.319239 H          1 MOL1         0.0833
      13    C5      21.488796   20.158327   22.826871 C.3        1 MOL1         0.1219
      14    H9      21.335032   19.879825   23.875841 H          1 MOL1         0.0790
      15    C6      21.922715   18.905270   22.027118 C.3        1 MOL1        -0.1760
      16    H10     22.409638   19.235057   21.099906 H          1 MOL1         0.0833
      17    H11     22.695766   18.378356   22.601433 H          1 MOL1         0.0833
      18    C7      20.812543   17.897077   21.633255 C.3        1 MOL1        -0.1684
      19    H12     21.281062   17.120533   21.013423 H          1 MOL1         0.0833
      20    H13     20.079215   18.373125   20.972259 H          1 MOL1         0.0833
      21    C8      20.095788   17.181305   22.805464 C.3        1 MOL1        -0.1684
      22    H14     20.834378   16.623002   23.396539 H          1 MOL1         0.0833
      23    H15     19.431575   16.422799   22.369016 H          1 MOL1         0.0833
      24    O1      22.564297   21.087808   22.781617 O.3        1 MOL1        -0.5508
      25    H16     22.674872   21.337984   21.841366 H          1 MOL1         0.3780
@<TRIPOS>BOND
    1     1     2    1
    2     1     3    1
    3     1     4    1
    4     4     5    1
    5     4     6    1
    6     4     7    1
    7     7     8    1
    8     7     9    1
    9     7    10    1
   10    10    11    1
   11    10    12    1
   12    10    13    1
   13    13    14    1
   14    13    15    1
   15    15    16    1
   16    15    17    1
   17    15    18    1
   18    18    19    1
   19    18    20    1
   20     1    21    1
   21    18    21    1
   22    21    22    1
   23    21    23    1
   24    13    24    1
   25    24    25    1
@<TRIPOS>SUBSTRUCTURE
       1 MOL1            1 RESIDUE      1      MOL     
@<SCITEGIC>MOL_PROPERTY
VConf Rank
SciTegic.value.IntegerValue
89

@<SCITEGIC>MOL_PROPERTY
Conf_Id
SciTegic.value.IntegerValue
165

@<SCITEGIC>MOL_PROPERTY
Delta U+W
SciTegic.value.DoubleValue
-1.999

@<SCITEGIC>MOL_PROPERTY
U+W
SciTegic.value.DoubleValue
8.915

@<SCITEGIC>MOL_PROPERTY
Grad RMS
SciTegic.value.DoubleValue
0.000000

@<SCITEGIC>MOL_PROPERTY
U
SciTegic.value.DoubleValue
10.935

@<SCITEGIC>MOL_PROPERTY
W
SciTegic.value.DoubleValue
-2.020

@<SCITEGIC>MOL_PROPERTY
W(PB)
SciTegic.value.DoubleValue
-4.135

@<SCITEGIC>MOL_PROPERTY
W(SA)
SciTegic.value.DoubleValue
2.115

@<SCITEGIC>MOL_PROPERTY
Valence
SciTegic.value.DoubleValue
16.757

@<SCITEGIC>MOL_PROPERTY
Coulomb
SciTegic.value.DoubleValue
-8.731

@<SCITEGIC>MOL_PROPERTY
VdW
SciTegic.value.DoubleValue
2.908

@<SCITEGIC>MOL_PROPERTY
VdW6
SciTegic.value.DoubleValue
-12.597

@<SCITEGIC>MOL_PROPERTY
VdW12
SciTegic.value.DoubleValue
15.506

@<SCITEGIC>MOL_PROPERTY
Bond
SciTegic.value.DoubleValue
0.434

@<SCITEGIC>MOL_PROPERTY
Angle
SciTegic.value.DoubleValue
5.069

@<SCITEGIC>MOL_PROPERTY
Pdih
SciTegic.value.DoubleValue
11.254

@<SCITEGIC>MOL_PROPERTY
Idih
SciTegic.value.DoubleValue
0.000

@<SCITEGIC>MOL_PROPERTY
Tether
SciTegic.value.DoubleValue
0.000

@<TRIPOS>MOLECULE
guest-s17_confgen4.mol2 : confsearch ligand conformer 90
          25          25           1
SMALL
USER_CHARGES
 
@<TRIPOS>ATOM
       1    C1      18.568486   18.598281   22.715574 C.3        1 MOL1        -0.1684
       2    H1      17.518532   18.294879   22.827946 H          1 MOL1         0.0833
       3    H2      18.836515   18.276966   21.702796 H          1 MOL1         0.0833
       4    C2      19.383796   17.812332   23.775294 C.3        1 MOL1        -0.1684
       5    H3      18.805161   17.812176   24.709204 H          1 MOL1         0.0833
       6    H4      19.448309   16.759961   23.467203 H          1 MOL1         0.0833
       7    C3      20.802484   18.336312   24.111612 C.3        1 MOL1        -0.1684
       8    H5      21.188848   17.726697   24.939738 H          1 MOL1         0.0833
       9    H6      20.746583   19.352199   24.519214 H          1 MOL1         0.0833
      10    C4      21.843409   18.269202   22.964441 C.3        1 MOL1        -0.1760
      11    H7      22.813801   18.568343   23.383213 H          1 MOL1         0.0833
      12    H8      21.958397   17.223673   22.650811 H          1 MOL1         0.0833
      13    C5      21.570180   19.135626   21.710480 C.3        1 MOL1         0.1219
      14    H9      20.812321   18.644055   21.089299 H          1 MOL1         0.0790
      15    C6      21.109637   20.584742   22.014035 C.3        1 MOL1        -0.1760
      16    H10     21.424247   20.892042   23.018378 H          1 MOL1         0.0833
      17    H11     21.633676   21.265702   21.329778 H          1 MOL1         0.0833
      18    C7      19.589618   20.832241   21.820961 C.3        1 MOL1        -0.1684
      19    H12     19.302620   20.547527   20.799414 H          1 MOL1         0.0833
      20    H13     19.416919   21.915274   21.884113 H          1 MOL1         0.0833
      21    C8      18.637719   20.143186   22.833857 C.3        1 MOL1        -0.1684
      22    H14     17.629077   20.534401   22.642536 H          1 MOL1         0.0833
      23    H15     18.873076   20.451114   23.860695 H          1 MOL1         0.0833
      24    O1      22.778658   19.193173   20.960958 O.3        1 MOL1        -0.5508
      25    H16     23.021469   18.268486   20.745471 H          1 MOL1         0.3780
@<TRIPOS>BOND
    1     1     2    1
    2     1     3    1
    3     1     4    1
    4     4     5    1
    5     4     6    1
    6     4     7    1
    7     7     8    1
    8     7     9    1
    9     7    10    1
   10    10    11    1
   11    10    12    1
   12    10    13    1
   13    13    14    1
   14    13    15    1
   15    15    16    1
   16    15    17    1
   17    15    18    1
   18    18    19    1
   19    18    20    1
   20     1    21    1
   21    18    21    1
   22    21    22    1
   23    21    23    1
   24    13    24    1
   25    24    25    1
@<TRIPOS>SUBSTRUCTURE
       1 MOL1            1 RESIDUE      1      MOL     
@<SCITEGIC>MOL_PROPERTY
VConf Rank
SciTegic.value.IntegerValue
90

@<SCITEGIC>MOL_PROPERTY
Conf_Id
SciTegic.value.IntegerValue
133

@<SCITEGIC>MOL_PROPERTY
Delta U+W
SciTegic.value.DoubleValue
-2.139

@<SCITEGIC>MOL_PROPERTY
U+W
SciTegic.value.DoubleValue
8.774

@<SCITEGIC>MOL_PROPERTY
Grad RMS
SciTegic.value.DoubleValue
0.000000

@<SCITEGIC>MOL_PROPERTY
U
SciTegic.value.DoubleValue
10.905

@<SCITEGIC>MOL_PROPERTY
W
SciTegic.value.DoubleValue
-2.131

@<SCITEGIC>MOL_PROPERTY
W(PB)
SciTegic.value.DoubleValue
-4.281

@<SCITEGIC>MOL_PROPERTY
W(SA)
SciTegic.value.DoubleValue
2.150

@<SCITEGIC>MOL_PROPERTY
Valence
SciTegic.value.DoubleValue
16.378

@<SCITEGIC>MOL_PROPERTY
Coulomb
SciTegic.value.DoubleValue
-8.448

@<SCITEGIC>MOL_PROPERTY
VdW
SciTegic.value.DoubleValue
2.976

@<SCITEGIC>MOL_PROPERTY
VdW6
SciTegic.value.DoubleValue
-12.570

@<SCITEGIC>MOL_PROPERTY
VdW12
SciTegic.value.DoubleValue
15.545

@<SCITEGIC>MOL_PROPERTY
Bond
SciTegic.value.DoubleValue
0.439

@<SCITEGIC>MOL_PROPERTY
Angle
SciTegic.value.DoubleValue
5.049

@<SCITEGIC>MOL_PROPERTY
Pdih
SciTegic.value.DoubleValue
10.889

@<SCITEGIC>MOL_PROPERTY
Idih
SciTegic.value.DoubleValue
0.000

@<SCITEGIC>MOL_PROPERTY
Tether
SciTegic.value.DoubleValue
0.000

@<TRIPOS>MOLECULE
guest-s17_confgen4.mol2 : confsearch ligand conformer 91
          25          25           1
SMALL
USER_CHARGES
 
@<TRIPOS>ATOM
       1    C1      21.602093   18.779287   21.461920 C.3        1 MOL1        -0.1684
       2    H1      22.389518   18.592337   20.718887 H          1 MOL1         0.0833
       3    H2      21.322085   17.781139   21.817026 H          1 MOL1         0.0833
       4    C2      20.408631   19.455228   20.737853 C.3        1 MOL1        -0.1684
       5    H3      20.462206   20.548187   20.822593 H          1 MOL1         0.0833
       6    H4      20.512897   19.246632   19.664248 H          1 MOL1         0.0833
       7    C3      19.009733   18.938158   21.165165 C.3        1 MOL1        -0.1684
       8    H5      18.965000   17.849501   21.024406 H          1 MOL1         0.0833
       9    H6      18.271798   19.355764   20.466716 H          1 MOL1         0.0833
      10    C4      18.547536   19.288152   22.604911 C.3        1 MOL1        -0.1760
      11    H7      18.554478   20.373914   22.757205 H          1 MOL1         0.0833
      12    H8      17.491500   18.995802   22.681405 H          1 MOL1         0.0833
      13    C5      19.337452   18.568070   23.728163 C.3        1 MOL1         0.1219
      14    H9      19.840098   17.691076   23.303796 H          1 MOL1         0.0790
      15    C6      20.380405   19.453602   24.453303 C.3        1 MOL1        -0.1760
      16    H10     19.845405   20.112461   25.150580 H          1 MOL1         0.0833
      17    H11     21.017411   18.809879   25.073434 H          1 MOL1         0.0833
      18    C7      21.284697   20.350335   23.568909 C.3        1 MOL1        -0.1684
      19    H12     21.903547   20.957168   24.243799 H          1 MOL1         0.0833
      20    H13     20.679682   21.079784   23.018315 H          1 MOL1         0.0833
      21    C8      22.243998   19.608957   22.604313 C.3        1 MOL1        -0.1684
      22    H14     22.912810   18.959073   23.184753 H          1 MOL1         0.0833
      23    H15     22.893567   20.365601   22.143275 H          1 MOL1         0.0833
      24    O1      18.412915   18.109597   24.708237 O.3        1 MOL1        -0.5508
      25    H16     18.932907   17.621210   25.380193 H          1 MOL1         0.3780
@<TRIPOS>BOND
    1     1     2    1
    2     1     3    1
    3     1     4    1
    4     4     5    1
    5     4     6    1
    6     4     7    1
    7     7     8    1
    8     7     9    1
    9     7    10    1
   10    10    11    1
   11    10    12    1
   12    10    13    1
   13    13    14    1
   14    13    15    1
   15    15    16    1
   16    15    17    1
   17    15    18    1
   18    18    19    1
   19    18    20    1
   20     1    21    1
   21    18    21    1
   22    21    22    1
   23    21    23    1
   24    13    24    1
   25    24    25    1
@<TRIPOS>SUBSTRUCTURE
       1 MOL1            1 RESIDUE      1      MOL     
@<SCITEGIC>MOL_PROPERTY
VConf Rank
SciTegic.value.IntegerValue
91

@<SCITEGIC>MOL_PROPERTY
Conf_Id
SciTegic.value.IntegerValue
95

@<SCITEGIC>MOL_PROPERTY
Delta U+W
SciTegic.value.DoubleValue
-2.190

@<SCITEGIC>MOL_PROPERTY
U+W
SciTegic.value.DoubleValue
8.723

@<SCITEGIC>MOL_PROPERTY
Grad RMS
SciTegic.value.DoubleValue
0.000000

@<SCITEGIC>MOL_PROPERTY
U
SciTegic.value.DoubleValue
10.905

@<SCITEGIC>MOL_PROPERTY
W
SciTegic.value.DoubleValue
-2.182

@<SCITEGIC>MOL_PROPERTY
W(PB)
SciTegic.value.DoubleValue
-4.296

@<SCITEGIC>MOL_PROPERTY
W(SA)
SciTegic.value.DoubleValue
2.114

@<SCITEGIC>MOL_PROPERTY
Valence
SciTegic.value.DoubleValue
16.377

@<SCITEGIC>MOL_PROPERTY
Coulomb
SciTegic.value.DoubleValue
-8.448

@<SCITEGIC>MOL_PROPERTY
VdW
SciTegic.value.DoubleValue
2.976

@<SCITEGIC>MOL_PROPERTY
VdW6
SciTegic.value.DoubleValue
-12.570

@<SCITEGIC>MOL_PROPERTY
VdW12
SciTegic.value.DoubleValue
15.546

@<SCITEGIC>MOL_PROPERTY
Bond
SciTegic.value.DoubleValue
0.439

@<SCITEGIC>MOL_PROPERTY
Angle
SciTegic.value.DoubleValue
5.049

@<SCITEGIC>MOL_PROPERTY
Pdih
SciTegic.value.DoubleValue
10.889

@<SCITEGIC>MOL_PROPERTY
Idih
SciTegic.value.DoubleValue
0.000

@<SCITEGIC>MOL_PROPERTY
Tether
SciTegic.value.DoubleValue
0.000

@<TRIPOS>MOLECULE
guest-s17_confgen4.mol2 : confsearch ligand conformer 92
          25          25           1
SMALL
USER_CHARGES
 
@<TRIPOS>ATOM
       1    C1      21.301677   19.683109   21.225812 C.3        1 MOL1        -0.1684
       2    H1      21.868204   19.890286   20.307647 H          1 MOL1         0.0833
       3    H2      21.804419   20.298521   21.978641 H          1 MOL1         0.0833
       4    C2      21.477400   18.167675   21.536937 C.3        1 MOL1        -0.1684
       5    H3      21.522407   17.638721   20.575104 H          1 MOL1         0.0833
       6    H4      22.459921   18.010980   22.002308 H          1 MOL1         0.0833
       7    C3      20.388904   17.462894   22.388381 C.3        1 MOL1        -0.1684
       8    H5      20.619618   16.388904   22.399987 H          1 MOL1         0.0833
       9    H6      19.430199   17.512851   21.862627 H          1 MOL1         0.0833
      10    C4      20.232979   17.914939   23.870900 C.3        1 MOL1        -0.1760
      11    H7      19.236388   17.623578   24.227674 H          1 MOL1         0.0833
      12    H8      20.944552   17.324796   24.463063 H          1 MOL1         0.0833
      13    C5      20.477143   19.406676   24.212658 C.3        1 MOL1         0.1219
      14    H9      21.491065   19.666708   23.891471 H          1 MOL1         0.0790
      15    C6      19.466963   20.437404   23.631515 C.3        1 MOL1        -0.1760
      16    H10     18.617814   20.506054   24.324730 H          1 MOL1         0.0833
      17    H11     19.939363   21.427833   23.644847 H          1 MOL1         0.0833
      18    C7      18.875783   20.179933   22.218988 C.3        1 MOL1        -0.1684
      19    H12     18.112938   20.948321   22.033623 H          1 MOL1         0.0833
      20    H13     18.301997   19.247901   22.231546 H          1 MOL1         0.0833
      21    C8      19.857946   20.209471   21.011515 C.3        1 MOL1        -0.1684
      22    H14     19.943693   21.254331   20.683214 H          1 MOL1         0.0833
      23    H15     19.400130   19.674919   20.168246 H          1 MOL1         0.0833
      24    O1      20.438628   19.529869   25.629680 O.3        1 MOL1        -0.5508
      25    H16     21.122950   18.925274   25.984962 H          1 MOL1         0.3780
@<TRIPOS>BOND
    1     1     2    1
    2     1     3    1
    3     1     4    1
    4     4     5    1
    5     4     6    1
    6     4     7    1
    7     7     8    1
    8     7     9    1
    9     7    10    1
   10    10    11    1
   11    10    12    1
   12    10    13    1
   13    13    14    1
   14    13    15    1
   15    15    16    1
   16    15    17    1
   17    15    18    1
   18    18    19    1
   19    18    20    1
   20     1    21    1
   21    18    21    1
   22    21    22    1
   23    21    23    1
   24    13    24    1
   25    24    25    1
@<TRIPOS>SUBSTRUCTURE
       1 MOL1            1 RESIDUE      1      MOL     
@<SCITEGIC>MOL_PROPERTY
VConf Rank
SciTegic.value.IntegerValue
92

@<SCITEGIC>MOL_PROPERTY
Conf_Id
SciTegic.value.IntegerValue
161

@<SCITEGIC>MOL_PROPERTY
Delta U+W
SciTegic.value.DoubleValue
2.120

@<SCITEGIC>MOL_PROPERTY
U+W
SciTegic.value.DoubleValue
13.033

@<SCITEGIC>MOL_PROPERTY
Grad RMS
SciTegic.value.DoubleValue
0.000000

@<SCITEGIC>MOL_PROPERTY
U
SciTegic.value.DoubleValue
15.076

@<SCITEGIC>MOL_PROPERTY
W
SciTegic.value.DoubleValue
-2.043

@<SCITEGIC>MOL_PROPERTY
W(PB)
SciTegic.value.DoubleValue
-4.186

@<SCITEGIC>MOL_PROPERTY
W(SA)
SciTegic.value.DoubleValue
2.143

@<SCITEGIC>MOL_PROPERTY
Valence
SciTegic.value.DoubleValue
18.884

@<SCITEGIC>MOL_PROPERTY
Coulomb
SciTegic.value.DoubleValue
-8.074

@<SCITEGIC>MOL_PROPERTY
VdW
SciTegic.value.DoubleValue
4.266

@<SCITEGIC>MOL_PROPERTY
VdW6
SciTegic.value.DoubleValue
-13.486

@<SCITEGIC>MOL_PROPERTY
VdW12
SciTegic.value.DoubleValue
17.752

@<SCITEGIC>MOL_PROPERTY
Bond
SciTegic.value.DoubleValue
0.713

@<SCITEGIC>MOL_PROPERTY
Angle
SciTegic.value.DoubleValue
8.955

@<SCITEGIC>MOL_PROPERTY
Pdih
SciTegic.value.DoubleValue
9.215

@<SCITEGIC>MOL_PROPERTY
Idih
SciTegic.value.DoubleValue
0.000

@<SCITEGIC>MOL_PROPERTY
Tether
SciTegic.value.DoubleValue
0.000

@<TRIPOS>MOLECULE
guest-s17_confgen4.mol2 : confsearch ligand conformer 93
          25          25           1
SMALL
USER_CHARGES
 
@<TRIPOS>ATOM
       1    C1      20.871487   21.040760   23.109636 C.3        1 MOL1        -0.1684
       2    H1      21.206351   22.087113   23.108651 H          1 MOL1         0.0833
       3    H2      20.939213   20.726685   24.158924 H          1 MOL1         0.0833
       4    C2      21.862980   20.220346   22.247350 C.3        1 MOL1        -0.1684
       5    H3      21.574571   20.248156   21.187995 H          1 MOL1         0.0833
       6    H4      22.831475   20.736696   22.298064 H          1 MOL1         0.0833
       7    C3      22.105584   18.761764   22.725904 C.3        1 MOL1        -0.1684
       8    H5      22.116832   18.701049   23.822477 H          1 MOL1         0.0833
       9    H6      23.121966   18.489250   22.409829 H          1 MOL1         0.0833
      10    C4      21.149049   17.699529   22.124929 C.3        1 MOL1        -0.1760
      11    H7      20.887767   17.973840   21.095632 H          1 MOL1         0.0833
      12    H8      21.709557   16.759788   22.033539 H          1 MOL1         0.0833
      13    C5      19.878848   17.375610   22.951667 C.3        1 MOL1         0.1219
      14    H9      20.193075   16.831079   23.853622 H          1 MOL1         0.0790
      15    C6      19.030713   18.583751   23.412043 C.3        1 MOL1        -0.1760
      16    H10     18.064878   18.207756   23.775187 H          1 MOL1         0.0833
      17    H11     19.498740   19.031072   24.295569 H          1 MOL1         0.0833
      18    C7      18.771938   19.655443   22.319458 C.3        1 MOL1        -0.1684
      19    H12     17.687524   19.787119   22.203541 H          1 MOL1         0.0833
      20    H13     19.120653   19.314528   21.337992 H          1 MOL1         0.0833
      21    C8      19.395162   21.036955   22.632024 C.3        1 MOL1        -0.1684
      22    H14     18.786136   21.533068   23.399988 H          1 MOL1         0.0833
      23    H15     19.311106   21.663409   21.733542 H          1 MOL1         0.0833
      24    O1      19.051595   16.525906   22.169349 O.3        1 MOL1        -0.5508
      25    H16     18.685742   17.089382   21.457693 H          1 MOL1         0.3780
@<TRIPOS>BOND
    1     1     2    1
    2     1     3    1
    3     1     4    1
    4     4     5    1
    5     4     6    1
    6     4     7    1
    7     7     8    1
    8     7     9    1
    9     7    10    1
   10    10    11    1
   11    10    12    1
   12    10    13    1
   13    13    14    1
   14    13    15    1
   15    15    16    1
   16    15    17    1
   17    15    18    1
   18    18    19    1
   19    18    20    1
   20     1    21    1
   21    18    21    1
   22    21    22    1
   23    21    23    1
   24    13    24    1
   25    24    25    1
@<TRIPOS>SUBSTRUCTURE
       1 MOL1            1 RESIDUE      1      MOL     
@<SCITEGIC>MOL_PROPERTY
VConf Rank
SciTegic.value.IntegerValue
93

@<SCITEGIC>MOL_PROPERTY
Conf_Id
SciTegic.value.IntegerValue
164

@<SCITEGIC>MOL_PROPERTY
Delta U+W
SciTegic.value.DoubleValue
0.008

@<SCITEGIC>MOL_PROPERTY
U+W
SciTegic.value.DoubleValue
10.922

@<SCITEGIC>MOL_PROPERTY
Grad RMS
SciTegic.value.DoubleValue
0.000000

@<SCITEGIC>MOL_PROPERTY
U
SciTegic.value.DoubleValue
12.433

@<SCITEGIC>MOL_PROPERTY
W
SciTegic.value.DoubleValue
-1.511

@<SCITEGIC>MOL_PROPERTY
W(PB)
SciTegic.value.DoubleValue
-3.669

@<SCITEGIC>MOL_PROPERTY
W(SA)
SciTegic.value.DoubleValue
2.157

@<SCITEGIC>MOL_PROPERTY
Valence
SciTegic.value.DoubleValue
19.007

@<SCITEGIC>MOL_PROPERTY
Coulomb
SciTegic.value.DoubleValue
-9.373

@<SCITEGIC>MOL_PROPERTY
VdW
SciTegic.value.DoubleValue
2.799

@<SCITEGIC>MOL_PROPERTY
VdW6
SciTegic.value.DoubleValue
-12.597

@<SCITEGIC>MOL_PROPERTY
VdW12
SciTegic.value.DoubleValue
15.396

@<SCITEGIC>MOL_PROPERTY
Bond
SciTegic.value.DoubleValue
0.425

@<SCITEGIC>MOL_PROPERTY
Angle
SciTegic.value.DoubleValue
4.784

@<SCITEGIC>MOL_PROPERTY
Pdih
SciTegic.value.DoubleValue
13.799

@<SCITEGIC>MOL_PROPERTY
Idih
SciTegic.value.DoubleValue
0.000

@<SCITEGIC>MOL_PROPERTY
Tether
SciTegic.value.DoubleValue
0.000

@<TRIPOS>MOLECULE
guest-s17_confgen4.mol2 : confsearch ligand conformer 94
          25          25           1
SMALL
USER_CHARGES
 
@<TRIPOS>ATOM
       1    C1      18.622576   18.697501   22.201426 C.3        1 MOL1        -0.1684
       2    H1      18.607095   19.792569   22.162578 H          1 MOL1         0.0833
       3    H2      17.599461   18.397198   21.937371 H          1 MOL1         0.0833
       4    C2      18.885277   18.211539   23.648681 C.3        1 MOL1        -0.1684
       5    H3      18.073763   18.600774   24.278636 H          1 MOL1         0.0833
       6    H4      18.791932   17.117763   23.686750 H          1 MOL1         0.0833
       7    C3      20.229983   18.624510   24.299820 C.3        1 MOL1        -0.1684
       8    H5      21.030809   17.940752   23.996149 H          1 MOL1         0.0833
       9    H6      20.128315   18.464900   25.382036 H          1 MOL1         0.0833
      10    C4      20.654758   20.098721   24.065198 C.3        1 MOL1        -0.1760
      11    H7      19.782616   20.730185   23.856865 H          1 MOL1         0.0833
      12    H8      21.065563   20.474384   25.011958 H          1 MOL1         0.0833
      13    C5      21.749098   20.298064   22.986701 C.3        1 MOL1         0.1219
      14    H9      22.597061   19.643609   23.234185 H          1 MOL1         0.0790
      15    C6      21.335301   20.018057   21.520125 C.3        1 MOL1        -0.1760
      16    H10     20.485551   20.646877   21.228080 H          1 MOL1         0.0833
      17    H11     22.169368   20.343543   20.884020 H          1 MOL1         0.0833
      18    C7      21.060841   18.526031   21.192541 C.3        1 MOL1        -0.1684
      19    H12     21.592682   17.874149   21.894865 H          1 MOL1         0.0833
      20    H13     21.509812   18.301160   20.215370 H          1 MOL1         0.0833
      21    C8      19.564217   18.131066   21.109555 C.3        1 MOL1        -0.1684
      22    H14     19.485013   17.035615   21.094730 H          1 MOL1         0.0833
      23    H15     19.181161   18.469518   20.137125 H          1 MOL1         0.0833
      24    O1      22.185953   21.648203   23.060729 O.3        1 MOL1        -0.5508
      25    H16     21.410436   22.202119   22.835927 H          1 MOL1         0.3780
@<TRIPOS>BOND
    1     1     2    1
    2     1     3    1
    3     1     4    1
    4     4     5    1
    5     4     6    1
    6     4     7    1
    7     7     8    1
    8     7     9    1
    9     7    10    1
   10    10    11    1
   11    10    12    1
   12    10    13    1
   13    13    14    1
   14    13    15    1
   15    15    16    1
   16    15    17    1
   17    15    18    1
   18    18    19    1
   19    18    20    1
   20     1    21    1
   21    18    21    1
   22    21    22    1
   23    21    23    1
   24    13    24    1
   25    24    25    1
@<TRIPOS>SUBSTRUCTURE
       1 MOL1            1 RESIDUE      1      MOL     
@<SCITEGIC>MOL_PROPERTY
VConf Rank
SciTegic.value.IntegerValue
94

@<SCITEGIC>MOL_PROPERTY
Conf_Id
SciTegic.value.IntegerValue
15

@<SCITEGIC>MOL_PROPERTY
Delta U+W
SciTegic.value.DoubleValue
-1.271

@<SCITEGIC>MOL_PROPERTY
U+W
SciTegic.value.DoubleValue
9.643

@<SCITEGIC>MOL_PROPERTY
Grad RMS
SciTegic.value.DoubleValue
0.000000

@<SCITEGIC>MOL_PROPERTY
U
SciTegic.value.DoubleValue
11.413

@<SCITEGIC>MOL_PROPERTY
W
SciTegic.value.DoubleValue
-1.770

@<SCITEGIC>MOL_PROPERTY
W(PB)
SciTegic.value.DoubleValue
-3.908

@<SCITEGIC>MOL_PROPERTY
W(SA)
SciTegic.value.DoubleValue
2.138

@<SCITEGIC>MOL_PROPERTY
Valence
SciTegic.value.DoubleValue
17.496

@<SCITEGIC>MOL_PROPERTY
Coulomb
SciTegic.value.DoubleValue
-8.736

@<SCITEGIC>MOL_PROPERTY
VdW
SciTegic.value.DoubleValue
2.653

@<SCITEGIC>MOL_PROPERTY
VdW6
SciTegic.value.DoubleValue
-12.485

@<SCITEGIC>MOL_PROPERTY
VdW12
SciTegic.value.DoubleValue
15.138

@<SCITEGIC>MOL_PROPERTY
Bond
SciTegic.value.DoubleValue
0.414

@<SCITEGIC>MOL_PROPERTY
Angle
SciTegic.value.DoubleValue
5.295

@<SCITEGIC>MOL_PROPERTY
Pdih
SciTegic.value.DoubleValue
11.787

@<SCITEGIC>MOL_PROPERTY
Idih
SciTegic.value.DoubleValue
0.000

@<SCITEGIC>MOL_PROPERTY
Tether
SciTegic.value.DoubleValue
0.000

@<TRIPOS>MOLECULE
guest-s17_confgen4.mol2 : confsearch ligand conformer 95
          25          25           1
SMALL
USER_CHARGES
 
@<TRIPOS>ATOM
       1    C1      19.908585   18.214743   24.216389 C.3        1 MOL1        -0.1684
       2    H1      19.841785   17.548510   25.087396 H          1 MOL1         0.0833
       3    H2      18.867250   18.390220   23.918071 H          1 MOL1         0.0833
       4    C2      20.567546   19.532155   24.703236 C.3        1 MOL1        -0.1684
       5    H3      19.873410   20.023837   25.398398 H          1 MOL1         0.0833
       6    H4      21.458954   19.285713   25.296052 H          1 MOL1         0.0833
       7    C3      20.977428   20.548523   23.610384 C.3        1 MOL1        -0.1684
       8    H5      21.917907   20.228998   23.146516 H          1 MOL1         0.0833
       9    H6      21.217086   21.500665   24.103107 H          1 MOL1         0.0833
      10    C4      19.884948   20.802866   22.539286 C.3        1 MOL1        -0.1760
      11    H7      18.937597   20.334283   22.827984 H          1 MOL1         0.0833
      12    H8      19.670325   21.879136   22.511414 H          1 MOL1         0.0833
      13    C5      20.276841   20.368730   21.108127 C.3        1 MOL1         0.1219
      14    H9      21.005509   21.098676   20.727273 H          1 MOL1         0.0790
      15    C6      20.918299   18.964687   20.960914 C.3        1 MOL1        -0.1760
      16    H10     20.974436   18.749188   19.885394 H          1 MOL1         0.0833
      17    H11     21.964353   18.993931   21.288678 H          1 MOL1         0.0833
      18    C7      20.186688   17.781479   21.649249 C.3        1 MOL1        -0.1684
      19    H12     20.389792   16.888163   21.042720 H          1 MOL1         0.0833
      20    H13     19.097584   17.913158   21.612850 H          1 MOL1         0.0833
      21    C8      20.660893   17.459077   23.093190 C.3        1 MOL1        -0.1684
      22    H14     21.746640   17.590423   23.193630 H          1 MOL1         0.0833
      23    H15     20.481827   16.387188   23.254945 H          1 MOL1         0.0833
      24    O1      19.113061   20.419806   20.294853 O.3        1 MOL1        -0.5508
      25    H16     18.535895   19.694391   20.607578 H          1 MOL1         0.3780
@<TRIPOS>BOND
    1     1     2    1
    2     1     3    1
    3     1     4    1
    4     4     5    1
    5     4     6    1
    6     4     7    1
    7     7     8    1
    8     7     9    1
    9     7    10    1
   10    10    11    1
   11    10    12    1
   12    10    13    1
   13    13    14    1
   14    13    15    1
   15    15    16    1
   16    15    17    1
   17    15    18    1
   18    18    19    1
   19    18    20    1
   20     1    21    1
   21    18    21    1
   22    21    22    1
   23    21    23    1
   24    13    24    1
   25    24    25    1
@<TRIPOS>SUBSTRUCTURE
       1 MOL1            1 RESIDUE      1      MOL     
@<SCITEGIC>MOL_PROPERTY
VConf Rank
SciTegic.value.IntegerValue
95

@<SCITEGIC>MOL_PROPERTY
Conf_Id
SciTegic.value.IntegerValue
115

@<SCITEGIC>MOL_PROPERTY
Delta U+W
SciTegic.value.DoubleValue
0.038

@<SCITEGIC>MOL_PROPERTY
U+W
SciTegic.value.DoubleValue
10.952

@<SCITEGIC>MOL_PROPERTY
Grad RMS
SciTegic.value.DoubleValue
0.000000

@<SCITEGIC>MOL_PROPERTY
U
SciTegic.value.DoubleValue
12.526

@<SCITEGIC>MOL_PROPERTY
W
SciTegic.value.DoubleValue
-1.575

@<SCITEGIC>MOL_PROPERTY
W(PB)
SciTegic.value.DoubleValue
-3.698

@<SCITEGIC>MOL_PROPERTY
W(SA)
SciTegic.value.DoubleValue
2.123

@<SCITEGIC>MOL_PROPERTY
Valence
SciTegic.value.DoubleValue
19.016

@<SCITEGIC>MOL_PROPERTY
Coulomb
SciTegic.value.DoubleValue
-9.226

@<SCITEGIC>MOL_PROPERTY
VdW
SciTegic.value.DoubleValue
2.737

@<SCITEGIC>MOL_PROPERTY
VdW6
SciTegic.value.DoubleValue
-12.612

@<SCITEGIC>MOL_PROPERTY
VdW12
SciTegic.value.DoubleValue
15.349

@<SCITEGIC>MOL_PROPERTY
Bond
SciTegic.value.DoubleValue
0.421

@<SCITEGIC>MOL_PROPERTY
Angle
SciTegic.value.DoubleValue
4.883

@<SCITEGIC>MOL_PROPERTY
Pdih
SciTegic.value.DoubleValue
13.711

@<SCITEGIC>MOL_PROPERTY
Idih
SciTegic.value.DoubleValue
0.000

@<SCITEGIC>MOL_PROPERTY
Tether
SciTegic.value.DoubleValue
0.000

@<TRIPOS>MOLECULE
guest-s17_confgen4.mol2 : confsearch ligand conformer 96
          25          25           1
SMALL
USER_CHARGES
 
@<TRIPOS>ATOM
       1    C1      18.876656   18.162295   23.788708 C.3        1 MOL1        -0.1684
       2    H1      17.898654   17.682690   23.931803 H          1 MOL1         0.0833
       3    H2      19.498786   17.817034   24.625503 H          1 MOL1         0.0833
       4    C2      18.658662   19.690330   23.884220 C.3        1 MOL1        -0.1684
       5    H3      17.939230   20.017083   23.121170 H          1 MOL1         0.0833
       6    H4      18.176565   19.893480   24.850301 H          1 MOL1         0.0833
       7    C3      19.945382   20.544180   23.805572 C.3        1 MOL1        -0.1684
       8    H5      20.747728   20.079838   24.394306 H          1 MOL1         0.0833
       9    H6      19.735590   21.501167   24.302890 H          1 MOL1         0.0833
      10    C4      20.413286   20.862940   22.360097 C.3        1 MOL1        -0.1760
      11    H7      19.629502   20.633250   21.627476 H          1 MOL1         0.0833
      12    H8      20.563226   21.949245   22.296687 H          1 MOL1         0.0833
      13    C5      21.736138   20.176969   21.950877 C.3        1 MOL1         0.1219
      14    H9      22.401439   20.136834   22.825196 H          1 MOL1         0.0790
      15    C6      21.572528   18.751334   21.378838 C.3        1 MOL1        -0.1760
      16    H10     20.960339   18.781320   20.467842 H          1 MOL1         0.0833
      17    H11     22.565066   18.406521   21.060429 H          1 MOL1         0.0833
      18    C7      21.007967   17.700455   22.365547 C.3        1 MOL1        -0.1684
      19    H12     21.458069   17.827809   23.359136 H          1 MOL1         0.0833
      20    H13     21.343601   16.713326   22.018913 H          1 MOL1         0.0833
      21    C8      19.459446   17.661128   22.446424 C.3        1 MOL1        -0.1684
      22    H14     19.151095   16.613244   22.327845 H          1 MOL1         0.0833
      23    H15     18.998854   18.195897   21.605172 H          1 MOL1         0.0833
      24    O1      22.351874   20.972742   20.945261 O.3        1 MOL1        -0.5508
      25    H16     23.212159   20.551645   20.738086 H          1 MOL1         0.3780
@<TRIPOS>BOND
    1     1     2    1
    2     1     3    1
    3     1     4    1
    4     4     5    1
    5     4     6    1
    6     4     7    1
    7     7     8    1
    8     7     9    1
    9     7    10    1
   10    10    11    1
   11    10    12    1
   12    10    13    1
   13    13    14    1
   14    13    15    1
   15    15    16    1
   16    15    17    1
   17    15    18    1
   18    18    19    1
   19    18    20    1
   20     1    21    1
   21    18    21    1
   22    21    22    1
   23    21    23    1
   24    13    24    1
   25    24    25    1
@<TRIPOS>SUBSTRUCTURE
       1 MOL1            1 RESIDUE      1      MOL     
@<SCITEGIC>MOL_PROPERTY
VConf Rank
SciTegic.value.IntegerValue
96

@<SCITEGIC>MOL_PROPERTY
Conf_Id
SciTegic.value.IntegerValue
30

@<SCITEGIC>MOL_PROPERTY
Delta U+W
SciTegic.value.DoubleValue
0.000

@<SCITEGIC>MOL_PROPERTY
U+W
SciTegic.value.DoubleValue
10.913

@<SCITEGIC>MOL_PROPERTY
Grad RMS
SciTegic.value.DoubleValue
0.000000

@<SCITEGIC>MOL_PROPERTY
U
SciTegic.value.DoubleValue
13.140

@<SCITEGIC>MOL_PROPERTY
W
SciTegic.value.DoubleValue
-2.227

@<SCITEGIC>MOL_PROPERTY
W(PB)
SciTegic.value.DoubleValue
-4.367

@<SCITEGIC>MOL_PROPERTY
W(SA)
SciTegic.value.DoubleValue
2.140

@<SCITEGIC>MOL_PROPERTY
Valence
SciTegic.value.DoubleValue
19.155

@<SCITEGIC>MOL_PROPERTY
Coulomb
SciTegic.value.DoubleValue
-8.157

@<SCITEGIC>MOL_PROPERTY
VdW
SciTegic.value.DoubleValue
2.142

@<SCITEGIC>MOL_PROPERTY
VdW6
SciTegic.value.DoubleValue
-11.576

@<SCITEGIC>MOL_PROPERTY
VdW12
SciTegic.value.DoubleValue
13.718

@<SCITEGIC>MOL_PROPERTY
Bond
SciTegic.value.DoubleValue
0.294

@<SCITEGIC>MOL_PROPERTY
Angle
SciTegic.value.DoubleValue
3.547

@<SCITEGIC>MOL_PROPERTY
Pdih
SciTegic.value.DoubleValue
15.314

@<SCITEGIC>MOL_PROPERTY
Idih
SciTegic.value.DoubleValue
0.000

@<SCITEGIC>MOL_PROPERTY
Tether
SciTegic.value.DoubleValue
0.000

@<TRIPOS>MOLECULE
guest-s17_confgen4.mol2 : confsearch ligand conformer 97
          25          25           1
SMALL
USER_CHARGES
 
@<TRIPOS>ATOM
       1    C1      19.308383   21.059168   22.102131 C.3        1 MOL1        -0.1684
       2    H1      19.658006   21.995510   21.646187 H          1 MOL1         0.0833
       3    H2      18.244244   21.216779   22.324704 H          1 MOL1         0.0833
       4    C2      20.058714   20.854919   23.441298 C.3        1 MOL1        -0.1684
       5    H3      20.079397   21.818834   23.967901 H          1 MOL1         0.0833
       6    H4      19.474616   20.195666   24.093809 H          1 MOL1         0.0833
       7    C3      21.513588   20.343140   23.288902 C.3        1 MOL1        -0.1684
       8    H5      22.188668   21.040925   23.802760 H          1 MOL1         0.0833
       9    H6      21.831563   20.367714   22.240129 H          1 MOL1         0.0833
      10    C4      21.750299   18.927621   23.873566 C.3        1 MOL1        -0.1760
      11    H7      22.742021   18.581650   23.553333 H          1 MOL1         0.0833
      12    H8      21.797675   19.007176   24.967455 H          1 MOL1         0.0833
      13    C5      20.700349   17.842553   23.526566 C.3        1 MOL1         0.1219
      14    H9      19.767208   18.057402   24.064222 H          1 MOL1         0.0790
      15    C6      20.380085   17.695918   22.018844 C.3        1 MOL1        -0.1760
      16    H10     21.264286   17.938755   21.415710 H          1 MOL1         0.0833
      17    H11     20.172306   16.636922   21.815495 H          1 MOL1         0.0833
      18    C7      19.139493   18.496508   21.531260 C.3        1 MOL1        -0.1684
      19    H12     18.345281   18.500532   22.289964 H          1 MOL1         0.0833
      20    H13     18.722109   17.947903   20.675655 H          1 MOL1         0.0833
      21    C8      19.437723   19.934821   21.040223 C.3        1 MOL1        -0.1684
      22    H14     18.726561   20.171047   20.236785 H          1 MOL1         0.0833
      23    H15     20.423384   19.969712   20.558992 H          1 MOL1         0.0833
      24    O1      21.207263   16.600722   24.001024 O.3        1 MOL1        -0.5508
      25    H16     20.505413   15.933404   23.850863 H          1 MOL1         0.3780
@<TRIPOS>BOND
    1     1     2    1
    2     1     3    1
    3     1     4    1
    4     4     5    1
    5     4     6    1
    6     4     7    1
    7     7     8    1
    8     7     9    1
    9     7    10    1
   10    10    11    1
   11    10    12    1
   12    10    13    1
   13    13    14    1
   14    13    15    1
   15    15    16    1
   16    15    17    1
   17    15    18    1
   18    18    19    1
   19    18    20    1
   20     1    21    1
   21    18    21    1
   22    21    22    1
   23    21    23    1
   24    13    24    1
   25    24    25    1
@<TRIPOS>SUBSTRUCTURE
       1 MOL1            1 RESIDUE      1      MOL     
@<SCITEGIC>MOL_PROPERTY
VConf Rank
SciTegic.value.IntegerValue
97

@<SCITEGIC>MOL_PROPERTY
Conf_Id
SciTegic.value.IntegerValue
162

@<SCITEGIC>MOL_PROPERTY
Delta U+W
SciTegic.value.DoubleValue
0.219

@<SCITEGIC>MOL_PROPERTY
U+W
SciTegic.value.DoubleValue
11.132

@<SCITEGIC>MOL_PROPERTY
Grad RMS
SciTegic.value.DoubleValue
0.000000

@<SCITEGIC>MOL_PROPERTY
U
SciTegic.value.DoubleValue
13.296

@<SCITEGIC>MOL_PROPERTY
W
SciTegic.value.DoubleValue
-2.164

@<SCITEGIC>MOL_PROPERTY
W(PB)
SciTegic.value.DoubleValue
-4.311

@<SCITEGIC>MOL_PROPERTY
W(SA)
SciTegic.value.DoubleValue
2.148

@<SCITEGIC>MOL_PROPERTY
Valence
SciTegic.value.DoubleValue
18.607

@<SCITEGIC>MOL_PROPERTY
Coulomb
SciTegic.value.DoubleValue
-8.339

@<SCITEGIC>MOL_PROPERTY
VdW
SciTegic.value.DoubleValue
3.028

@<SCITEGIC>MOL_PROPERTY
VdW6
SciTegic.value.DoubleValue
-12.271

@<SCITEGIC>MOL_PROPERTY
VdW12
SciTegic.value.DoubleValue
15.299

@<SCITEGIC>MOL_PROPERTY
Bond
SciTegic.value.DoubleValue
0.423

@<SCITEGIC>MOL_PROPERTY
Angle
SciTegic.value.DoubleValue
4.488

@<SCITEGIC>MOL_PROPERTY
Pdih
SciTegic.value.DoubleValue
13.696

@<SCITEGIC>MOL_PROPERTY
Idih
SciTegic.value.DoubleValue
0.000

@<SCITEGIC>MOL_PROPERTY
Tether
SciTegic.value.DoubleValue
0.000

@<TRIPOS>MOLECULE
guest-s17_confgen4.mol2 : confsearch ligand conformer 98
          25          25           1
SMALL
USER_CHARGES
 
@<TRIPOS>ATOM
       1    C1      20.457109   17.675611   21.417066 C.3        1 MOL1        -0.1684
       2    H1      19.363362   17.722665   21.341576 H          1 MOL1         0.0833
       3    H2      20.750223   16.868101   20.732246 H          1 MOL1         0.0833
       4    C2      21.080189   18.994497   20.895519 C.3        1 MOL1        -0.1684
       5    H3      22.102438   19.120227   21.276873 H          1 MOL1         0.0833
       6    H4      21.187180   18.887594   19.807280 H          1 MOL1         0.0833
       7    C3      20.228415   20.271195   21.140638 C.3        1 MOL1        -0.1684
       8    H5      19.156400   20.060709   21.028184 H          1 MOL1         0.0833
       9    H6      20.472274   20.975048   20.333014 H          1 MOL1         0.0833
      10    C4      20.508971   21.007167   22.476610 C.3        1 MOL1        -0.1760
      11    H7      21.569017   20.910573   22.741686 H          1 MOL1         0.0833
      12    H8      20.357096   22.080989   22.306154 H          1 MOL1         0.0833
      13    C5      19.609692   20.619730   23.677658 C.3        1 MOL1         0.1219
      14    H9      18.601167   21.012465   23.483420 H          1 MOL1         0.0790
      15    C6      19.466133   19.106336   23.965899 C.3        1 MOL1        -0.1760
      16    H10     18.990044   18.981035   24.947040 H          1 MOL1         0.0833
      17    H11     18.749321   18.676056   23.258355 H          1 MOL1         0.0833
      18    C7      20.799633   18.313172   23.954007 C.3        1 MOL1        -0.1684
      19    H12     20.922435   17.814212   24.924738 H          1 MOL1         0.0833
      20    H13     21.657839   18.991322   23.878474 H          1 MOL1         0.0833
      21    C8      20.888612   17.239667   22.842498 C.3        1 MOL1        -0.1684
      22    H14     20.275084   16.377042   23.136096 H          1 MOL1         0.0833
      23    H15     21.922657   16.871000   22.803155 H          1 MOL1         0.0833
      24    O1      20.136337   21.253876   24.837228 O.3        1 MOL1        -0.5508
      25    H16     19.559081   20.997033   25.585510 H          1 MOL1         0.3780
@<TRIPOS>BOND
    1     1     2    1
    2     1     3    1
    3     1     4    1
    4     4     5    1
    5     4     6    1
    6     4     7    1
    7     7     8    1
    8     7     9    1
    9     7    10    1
   10    10    11    1
   11    10    12    1
   12    10    13    1
   13    13    14    1
   14    13    15    1
   15    15    16    1
   16    15    17    1
   17    15    18    1
   18    18    19    1
   19    18    20    1
   20     1    21    1
   21    18    21    1
   22    21    22    1
   23    21    23    1
   24    13    24    1
   25    24    25    1
@<TRIPOS>SUBSTRUCTURE
       1 MOL1            1 RESIDUE      1      MOL     
@<SCITEGIC>MOL_PROPERTY
VConf Rank
SciTegic.value.IntegerValue
98

@<SCITEGIC>MOL_PROPERTY
Conf_Id
SciTegic.value.IntegerValue
155

@<SCITEGIC>MOL_PROPERTY
Delta U+W
SciTegic.value.DoubleValue
0.339

@<SCITEGIC>MOL_PROPERTY
U+W
SciTegic.value.DoubleValue
11.252

@<SCITEGIC>MOL_PROPERTY
Grad RMS
SciTegic.value.DoubleValue
0.000000

@<SCITEGIC>MOL_PROPERTY
U
SciTegic.value.DoubleValue
13.420

@<SCITEGIC>MOL_PROPERTY
W
SciTegic.value.DoubleValue
-2.167

@<SCITEGIC>MOL_PROPERTY
W(PB)
SciTegic.value.DoubleValue
-4.325

@<SCITEGIC>MOL_PROPERTY
W(SA)
SciTegic.value.DoubleValue
2.157

@<SCITEGIC>MOL_PROPERTY
Valence
SciTegic.value.DoubleValue
18.609

@<SCITEGIC>MOL_PROPERTY
Coulomb
SciTegic.value.DoubleValue
-8.052

@<SCITEGIC>MOL_PROPERTY
VdW
SciTegic.value.DoubleValue
2.863

@<SCITEGIC>MOL_PROPERTY
VdW6
SciTegic.value.DoubleValue
-12.524

@<SCITEGIC>MOL_PROPERTY
VdW12
SciTegic.value.DoubleValue
15.387

@<SCITEGIC>MOL_PROPERTY
Bond
SciTegic.value.DoubleValue
0.430

@<SCITEGIC>MOL_PROPERTY
Angle
SciTegic.value.DoubleValue
4.724

@<SCITEGIC>MOL_PROPERTY
Pdih
SciTegic.value.DoubleValue
13.455

@<SCITEGIC>MOL_PROPERTY
Idih
SciTegic.value.DoubleValue
0.000

@<SCITEGIC>MOL_PROPERTY
Tether
SciTegic.value.DoubleValue
0.000

@<TRIPOS>MOLECULE
guest-s17_confgen4.mol2 : confsearch ligand conformer 99
          25          25           1
SMALL
USER_CHARGES
 
@<TRIPOS>ATOM
       1    C1      21.753464   20.301251   23.621748 C.3        1 MOL1        -0.1684
       2    H1      21.561757   21.382627   23.636321 H          1 MOL1         0.0833
       3    H2      22.692944   20.163508   24.174186 H          1 MOL1         0.0833
       4    C2      20.645341   19.574862   24.428743 C.3        1 MOL1        -0.1684
       5    H3      20.897433   18.513125   24.514212 H          1 MOL1         0.0833
       6    H4      20.698859   19.935711   25.464909 H          1 MOL1         0.0833
       7    C3      19.173396   19.758016   23.956463 C.3        1 MOL1        -0.1684
       8    H5      18.788922   20.673773   24.425634 H          1 MOL1         0.0833
       9    H6      18.564030   18.940494   24.365181 H          1 MOL1         0.0833
      10    C4      18.902615   19.880968   22.432172 C.3        1 MOL1        -0.1760
      11    H7      17.844008   20.143760   22.307312 H          1 MOL1         0.0833
      12    H8      19.424048   20.760455   22.044405 H          1 MOL1         0.0833
      13    C5      19.194454   18.641334   21.536379 C.3        1 MOL1         0.1219
      14    H9      19.357990   19.000683   20.510273 H          1 MOL1         0.0790
      15    C6      20.394723   17.740778   21.922244 C.3        1 MOL1        -0.1760
      16    H10     20.221333   17.321589   22.917601 H          1 MOL1         0.0833
      17    H11     20.372910   16.862221   21.263999 H          1 MOL1         0.0833
      18    C7      21.825414   18.349621   21.818607 C.3        1 MOL1        -0.1684
      19    H12     22.169432   18.206764   20.785126 H          1 MOL1         0.0833
      20    H13     22.509746   17.755800   22.439403 H          1 MOL1         0.0833
      21    C8      22.008463   19.853494   22.152590 C.3        1 MOL1        -0.1684
      22    H14     21.418594   20.455277   21.454100 H          1 MOL1         0.0833
      23    H15     23.045454   20.122707   21.909583 H          1 MOL1         0.0833
      24    O1      18.036237   17.813917   21.546214 O.3        1 MOL1        -0.5508
      25    H16     17.287159   18.372138   21.252081 H          1 MOL1         0.3780
@<TRIPOS>BOND
    1     1     2    1
    2     1     3    1
    3     1     4    1
    4     4     5    1
    5     4     6    1
    6     4     7    1
    7     7     8    1
    8     7     9    1
    9     7    10    1
   10    10    11    1
   11    10    12    1
   12    10    13    1
   13    13    14    1
   14    13    15    1
   15    15    16    1
   16    15    17    1
   17    15    18    1
   18    18    19    1
   19    18    20    1
   20     1    21    1
   21    18    21    1
   22    21    22    1
   23    21    23    1
   24    13    24    1
   25    24    25    1
@<TRIPOS>SUBSTRUCTURE
       1 MOL1            1 RESIDUE      1      MOL     
@<SCITEGIC>MOL_PROPERTY
VConf Rank
SciTegic.value.IntegerValue
99

@<SCITEGIC>MOL_PROPERTY
Conf_Id
SciTegic.value.IntegerValue
146

@<SCITEGIC>MOL_PROPERTY
Delta U+W
SciTegic.value.DoubleValue
2.553

@<SCITEGIC>MOL_PROPERTY
U+W
SciTegic.value.DoubleValue
13.466

@<SCITEGIC>MOL_PROPERTY
Grad RMS
SciTegic.value.DoubleValue
0.000000

@<SCITEGIC>MOL_PROPERTY
U
SciTegic.value.DoubleValue
15.643

@<SCITEGIC>MOL_PROPERTY
W
SciTegic.value.DoubleValue
-2.176

@<SCITEGIC>MOL_PROPERTY
W(PB)
SciTegic.value.DoubleValue
-4.307

@<SCITEGIC>MOL_PROPERTY
W(SA)
SciTegic.value.DoubleValue
2.131

@<SCITEGIC>MOL_PROPERTY
Valence
SciTegic.value.DoubleValue
18.916

@<SCITEGIC>MOL_PROPERTY
Coulomb
SciTegic.value.DoubleValue
-7.506

@<SCITEGIC>MOL_PROPERTY
VdW
SciTegic.value.DoubleValue
4.232

@<SCITEGIC>MOL_PROPERTY
VdW6
SciTegic.value.DoubleValue
-13.632

@<SCITEGIC>MOL_PROPERTY
VdW12
SciTegic.value.DoubleValue
17.864

@<SCITEGIC>MOL_PROPERTY
Bond
SciTegic.value.DoubleValue
0.735

@<SCITEGIC>MOL_PROPERTY
Angle
SciTegic.value.DoubleValue
9.140

@<SCITEGIC>MOL_PROPERTY
Pdih
SciTegic.value.DoubleValue
9.042

@<SCITEGIC>MOL_PROPERTY
Idih
SciTegic.value.DoubleValue
0.000

@<SCITEGIC>MOL_PROPERTY
Tether
SciTegic.value.DoubleValue
0.000

@<TRIPOS>MOLECULE
guest-s17_confgen4.mol2 : confsearch ligand conformer 100
          25          25           1
SMALL
USER_CHARGES
 
@<TRIPOS>ATOM
       1    C1      19.346987   17.450966   22.998338 C.3        1 MOL1        -0.1684
       2    H1      19.293302   16.982885   23.990569 H          1 MOL1         0.0833
       3    H2      18.808016   16.773646   22.321832 H          1 MOL1         0.0833
       4    C2      20.823663   17.492000   22.531557 C.3        1 MOL1        -0.1684
       5    H3      21.177381   16.453338   22.478031 H          1 MOL1         0.0833
       6    H4      20.887516   17.858222   21.500562 H          1 MOL1         0.0833
       7    C3      21.806883   18.265663   23.445399 C.3        1 MOL1        -0.1684
       8    H5      22.819767   18.106802   23.050672 H          1 MOL1         0.0833
       9    H6      21.803429   17.814533   24.446854 H          1 MOL1         0.0833
      10    C4      21.585348   19.794775   23.581198 C.3        1 MOL1        -0.1760
      11    H7      20.804231   20.001819   24.319479 H          1 MOL1         0.0833
      12    H8      22.498765   20.215133   24.023356 H          1 MOL1         0.0833
      13    C5      21.277798   20.535760   22.254386 C.3        1 MOL1         0.1219
      14    H9      21.614301   19.925729   21.405344 H          1 MOL1         0.0790
      15    C6      19.783727   20.900736   22.063839 C.3        1 MOL1        -0.1760
      16    H10     19.441438   21.482465   22.929950 H          1 MOL1         0.0833
      17    H11     19.707358   21.577814   21.202982 H          1 MOL1         0.0833
      18    C7      18.800227   19.725073   21.814548 C.3        1 MOL1        -0.1684
      19    H12     19.097760   19.149111   20.928804 H          1 MOL1         0.0833
      20    H13     17.829500   20.169030   21.554601 H          1 MOL1         0.0833
      21    C8      18.574747   18.795113   23.034721 C.3        1 MOL1        -0.1684
      22    H14     17.504781   18.550757   23.084741 H          1 MOL1         0.0833
      23    H15     18.775538   19.330857   23.969325 H          1 MOL1         0.0833
      24    O1      22.014967   21.753083   22.246853 O.3        1 MOL1        -0.5508
      25    H16     21.853669   22.176585   21.378032 H          1 MOL1         0.3780
@<TRIPOS>BOND
    1     1     2    1
    2     1     3    1
    3     1     4    1
    4     4     5    1
    5     4     6    1
    6     4     7    1
    7     7     8    1
    8     7     9    1
    9     7    10    1
   10    10    11    1
   11    10    12    1
   12    10    13    1
   13    13    14    1
   14    13    15    1
   15    15    16    1
   16    15    17    1
   17    15    18    1
   18    18    19    1
   19    18    20    1
   20     1    21    1
   21    18    21    1
   22    21    22    1
   23    21    23    1
   24    13    24    1
   25    24    25    1
@<TRIPOS>SUBSTRUCTURE
       1 MOL1            1 RESIDUE      1      MOL     
@<SCITEGIC>MOL_PROPERTY
VConf Rank
SciTegic.value.IntegerValue
100

@<SCITEGIC>MOL_PROPERTY
Conf_Id
SciTegic.value.IntegerValue
62

@<SCITEGIC>MOL_PROPERTY
Delta U+W
SciTegic.value.DoubleValue
-1.779

@<SCITEGIC>MOL_PROPERTY
U+W
SciTegic.value.DoubleValue
9.134

@<SCITEGIC>MOL_PROPERTY
Grad RMS
SciTegic.value.DoubleValue
0.000000

@<SCITEGIC>MOL_PROPERTY
U
SciTegic.value.DoubleValue
11.364

@<SCITEGIC>MOL_PROPERTY
W
SciTegic.value.DoubleValue
-2.230

@<SCITEGIC>MOL_PROPERTY
W(PB)
SciTegic.value.DoubleValue
-4.359

@<SCITEGIC>MOL_PROPERTY
W(SA)
SciTegic.value.DoubleValue
2.129

@<SCITEGIC>MOL_PROPERTY
Valence
SciTegic.value.DoubleValue
16.582

@<SCITEGIC>MOL_PROPERTY
Coulomb
SciTegic.value.DoubleValue
-8.150

@<SCITEGIC>MOL_PROPERTY
VdW
SciTegic.value.DoubleValue
2.933

@<SCITEGIC>MOL_PROPERTY
VdW6
SciTegic.value.DoubleValue
-12.531

@<SCITEGIC>MOL_PROPERTY
VdW12
SciTegic.value.DoubleValue
15.464

@<SCITEGIC>MOL_PROPERTY
Bond
SciTegic.value.DoubleValue
0.439

@<SCITEGIC>MOL_PROPERTY
Angle
SciTegic.value.DoubleValue
5.099

@<SCITEGIC>MOL_PROPERTY
Pdih
SciTegic.value.DoubleValue
11.044

@<SCITEGIC>MOL_PROPERTY
Idih
SciTegic.value.DoubleValue
0.000

@<SCITEGIC>MOL_PROPERTY
Tether
SciTegic.value.DoubleValue
0.000

@<TRIPOS>MOLECULE
guest-s17_confgen4.mol2 : confsearch ligand conformer 101
          25          25           1
SMALL
USER_CHARGES
 
@<TRIPOS>ATOM
       1    C1      20.037947   20.025841   24.309751 C.3        1 MOL1        -0.1684
       2    H1      19.183235   20.314091   23.687253 H          1 MOL1         0.0833
       3    H2      19.860415   20.525605   25.271706 H          1 MOL1         0.0833
       4    C2      21.350934   20.604596   23.726002 C.3        1 MOL1        -0.1684
       5    H3      21.248239   21.698198   23.706616 H          1 MOL1         0.0833
       6    H4      22.178355   20.396317   24.417731 H          1 MOL1         0.0833
       7    C3      21.756069   20.141540   22.303271 C.3        1 MOL1        -0.1684
       8    H5      22.276248   19.177905   22.345855 H          1 MOL1         0.0833
       9    H6      22.514620   20.846948   21.937178 H          1 MOL1         0.0833
      10    C4      20.600605   20.091588   21.268031 C.3        1 MOL1        -0.1760
      11    H7      19.785341   20.767578   21.553747 H          1 MOL1         0.0833
      12    H8      20.992838   20.493987   20.324860 H          1 MOL1         0.0833
      13    C5      20.051081   18.673328   20.971456 C.3        1 MOL1         0.1219
      14    H9      20.896857   18.026358   20.697461 H          1 MOL1         0.0790
      15    C6      19.269541   17.983988   22.117717 C.3        1 MOL1        -0.1760
      16    H10     18.415478   18.599463   22.425218 H          1 MOL1         0.0833
      17    H11     18.829584   17.068930   21.699487 H          1 MOL1         0.0833
      18    C7      20.129972   17.567291   23.340661 C.3        1 MOL1        -0.1684
      19    H12     21.177554   17.436500   23.046705 H          1 MOL1         0.0833
      20    H13     19.807922   16.567148   23.661513 H          1 MOL1         0.0833
      21    C8      20.022829   18.499596   24.574456 C.3        1 MOL1        -0.1684
      22    H14     20.822593   18.246149   25.283416 H          1 MOL1         0.0833
      23    H15     19.082337   18.265047   25.091508 H          1 MOL1         0.0833
      24    O1      19.174023   18.774858   19.856608 O.3        1 MOL1        -0.5508
      25    H16     19.697576   19.148881   19.117590 H          1 MOL1         0.3780
@<TRIPOS>BOND
    1     1     2    1
    2     1     3    1
    3     1     4    1
    4     4     5    1
    5     4     6    1
    6     4     7    1
    7     7     8    1
    8     7     9    1
    9     7    10    1
   10    10    11    1
   11    10    12    1
   12    10    13    1
   13    13    14    1
   14    13    15    1
   15    15    16    1
   16    15    17    1
   17    15    18    1
   18    18    19    1
   19    18    20    1
   20     1    21    1
   21    18    21    1
   22    21    22    1
   23    21    23    1
   24    13    24    1
   25    24    25    1
@<TRIPOS>SUBSTRUCTURE
       1 MOL1            1 RESIDUE      1      MOL     
@<SCITEGIC>MOL_PROPERTY
VConf Rank
SciTegic.value.IntegerValue
101

@<SCITEGIC>MOL_PROPERTY
Conf_Id
SciTegic.value.IntegerValue
121

@<SCITEGIC>MOL_PROPERTY
Delta U+W
SciTegic.value.DoubleValue
-1.283

@<SCITEGIC>MOL_PROPERTY
U+W
SciTegic.value.DoubleValue
9.630

@<SCITEGIC>MOL_PROPERTY
Grad RMS
SciTegic.value.DoubleValue
0.000000

@<SCITEGIC>MOL_PROPERTY
U
SciTegic.value.DoubleValue
11.876

@<SCITEGIC>MOL_PROPERTY
W
SciTegic.value.DoubleValue
-2.246

@<SCITEGIC>MOL_PROPERTY
W(PB)
SciTegic.value.DoubleValue
-4.376

@<SCITEGIC>MOL_PROPERTY
W(SA)
SciTegic.value.DoubleValue
2.130

@<SCITEGIC>MOL_PROPERTY
Valence
SciTegic.value.DoubleValue
17.153

@<SCITEGIC>MOL_PROPERTY
Coulomb
SciTegic.value.DoubleValue
-7.966

@<SCITEGIC>MOL_PROPERTY
VdW
SciTegic.value.DoubleValue
2.689

@<SCITEGIC>MOL_PROPERTY
VdW6
SciTegic.value.DoubleValue
-12.458

@<SCITEGIC>MOL_PROPERTY
VdW12
SciTegic.value.DoubleValue
15.147

@<SCITEGIC>MOL_PROPERTY
Bond
SciTegic.value.DoubleValue
0.421

@<SCITEGIC>MOL_PROPERTY
Angle
SciTegic.value.DoubleValue
5.258

@<SCITEGIC>MOL_PROPERTY
Pdih
SciTegic.value.DoubleValue
11.475

@<SCITEGIC>MOL_PROPERTY
Idih
SciTegic.value.DoubleValue
0.000

@<SCITEGIC>MOL_PROPERTY
Tether
SciTegic.value.DoubleValue
0.000

@<TRIPOS>MOLECULE
guest-s17_confgen4.mol2 : confsearch ligand conformer 102
          25          25           1
SMALL
USER_CHARGES
 
@<TRIPOS>ATOM
       1    C1      21.907952   20.155302   22.187311 C.3        1 MOL1        -0.1684
       2    H1      21.573364   20.667990   23.096336 H          1 MOL1         0.0833
       3    H2      22.839092   20.666866   21.908170 H          1 MOL1         0.0833
       4    C2      20.895985   20.381222   21.036397 C.3        1 MOL1        -0.1684
       5    H3      20.835781   21.463800   20.859523 H          1 MOL1         0.0833
       6    H4      21.298438   19.950875   20.109404 H          1 MOL1         0.0833
       7    C3      19.453471   19.855600   21.250409 C.3        1 MOL1        -0.1684
       8    H5      19.391489   18.789680   21.003594 H          1 MOL1         0.0833
       9    H6      18.815295   20.347849   20.503837 H          1 MOL1         0.0833
      10    C4      18.851065   20.124784   22.655479 C.3        1 MOL1        -0.1760
      11    H7      19.332837   20.985426   23.135040 H          1 MOL1         0.0833
      12    H8      17.804311   20.423749   22.511482 H          1 MOL1         0.0833
      13    C5      18.844365   18.904567   23.609911 C.3        1 MOL1         0.1219
      14    H9      18.357096   18.067075   23.090144 H          1 MOL1         0.0790
      15    C6      20.225521   18.421778   24.120509 C.3        1 MOL1        -0.1760
      16    H10     20.748480   19.234032   24.640132 H          1 MOL1         0.0833
      17    H11     20.041742   17.658550   24.888006 H          1 MOL1         0.0833
      18    C7      21.132550   17.775391   23.039403 C.3        1 MOL1        -0.1684
      19    H12     20.527607   17.384061   22.213632 H          1 MOL1         0.0833
      20    H13     21.607726   16.886581   23.476721 H          1 MOL1         0.0833
      21    C8      22.268568   18.681576   22.499950 C.3        1 MOL1        -0.1684
      22    H14     22.700898   18.215910   21.603992 H          1 MOL1         0.0833
      23    H15     23.073684   18.691475   23.247331 H          1 MOL1         0.0833
      24    O1      18.062696   19.254098   24.745361 O.3        1 MOL1        -0.5508
      25    H16     18.008552   18.454337   25.308922 H          1 MOL1         0.3780
@<TRIPOS>BOND
    1     1     2    1
    2     1     3    1
    3     1     4    1
    4     4     5    1
    5     4     6    1
    6     4     7    1
    7     7     8    1
    8     7     9    1
    9     7    10    1
   10    10    11    1
   11    10    12    1
   12    10    13    1
   13    13    14    1
   14    13    15    1
   15    15    16    1
   16    15    17    1
   17    15    18    1
   18    18    19    1
   19    18    20    1
   20     1    21    1
   21    18    21    1
   22    21    22    1
   23    21    23    1
   24    13    24    1
   25    24    25    1
@<TRIPOS>SUBSTRUCTURE
       1 MOL1            1 RESIDUE      1      MOL     
@<SCITEGIC>MOL_PROPERTY
VConf Rank
SciTegic.value.IntegerValue
102

@<SCITEGIC>MOL_PROPERTY
Conf_Id
SciTegic.value.IntegerValue
24

@<SCITEGIC>MOL_PROPERTY
Delta U+W
SciTegic.value.DoubleValue
-1.236

@<SCITEGIC>MOL_PROPERTY
U+W
SciTegic.value.DoubleValue
9.678

@<SCITEGIC>MOL_PROPERTY
Grad RMS
SciTegic.value.DoubleValue
0.000000

@<SCITEGIC>MOL_PROPERTY
U
SciTegic.value.DoubleValue
11.876

@<SCITEGIC>MOL_PROPERTY
W
SciTegic.value.DoubleValue
-2.199

@<SCITEGIC>MOL_PROPERTY
W(PB)
SciTegic.value.DoubleValue
-4.335

@<SCITEGIC>MOL_PROPERTY
W(SA)
SciTegic.value.DoubleValue
2.137

@<SCITEGIC>MOL_PROPERTY
Valence
SciTegic.value.DoubleValue
17.153

@<SCITEGIC>MOL_PROPERTY
Coulomb
SciTegic.value.DoubleValue
-7.966

@<SCITEGIC>MOL_PROPERTY
VdW
SciTegic.value.DoubleValue
2.689

@<SCITEGIC>MOL_PROPERTY
VdW6
SciTegic.value.DoubleValue
-12.458

@<SCITEGIC>MOL_PROPERTY
VdW12
SciTegic.value.DoubleValue
15.147

@<SCITEGIC>MOL_PROPERTY
Bond
SciTegic.value.DoubleValue
0.421

@<SCITEGIC>MOL_PROPERTY
Angle
SciTegic.value.DoubleValue
5.258

@<SCITEGIC>MOL_PROPERTY
Pdih
SciTegic.value.DoubleValue
11.475

@<SCITEGIC>MOL_PROPERTY
Idih
SciTegic.value.DoubleValue
0.000

@<SCITEGIC>MOL_PROPERTY
Tether
SciTegic.value.DoubleValue
0.000

@<TRIPOS>MOLECULE
guest-s17_confgen4.mol2 : confsearch ligand conformer 103
          25          25           1
SMALL
USER_CHARGES
 
@<TRIPOS>ATOM
       1    C1      22.140848   18.787162   23.606443 C.3        1 MOL1        -0.1684
       2    H1      23.088822   19.232176   23.274654 H          1 MOL1         0.0833
       3    H2      22.404041   18.103942   24.425462 H          1 MOL1         0.0833
       4    C2      21.238141   19.906464   24.189953 C.3        1 MOL1        -0.1684
       5    H3      20.445759   19.476918   24.815984 H          1 MOL1         0.0833
       6    H4      21.859045   20.487669   24.885470 H          1 MOL1         0.0833
       7    C3      20.625889   20.890590   23.162673 C.3        1 MOL1        -0.1684
       8    H5      21.319058   21.065213   22.328719 H          1 MOL1         0.0833
       9    H6      20.529679   21.860914   23.669050 H          1 MOL1         0.0833
      10    C4      19.209769   20.509446   22.645700 C.3        1 MOL1        -0.1760
      11    H7      18.611624   20.054168   23.445339 H          1 MOL1         0.0833
      12    H8      18.702374   21.452046   22.398705 H          1 MOL1         0.0833
      13    C5      19.193424   19.617911   21.380009 C.3        1 MOL1         0.1219
      14    H9      20.100166   19.824403   20.796181 H          1 MOL1         0.0790
      15    C6      19.089321   18.094060   21.642404 C.3        1 MOL1        -0.1760
      16    H10     18.075127   17.852017   21.986200 H          1 MOL1         0.0833
      17    H11     19.211709   17.581816   20.678947 H          1 MOL1         0.0833
      18    C7      20.098698   17.487034   22.649041 C.3        1 MOL1        -0.1684
      19    H12     20.060143   16.393440   22.552474 H          1 MOL1         0.0833
      20    H13     19.765649   17.688868   23.673752 H          1 MOL1         0.0833
      21    C8      21.561223   17.953510   22.437445 C.3        1 MOL1        -0.1684
      22    H14     21.666110   18.511624   21.499808 H          1 MOL1         0.0833
      23    H15     22.196814   17.067207   22.305678 H          1 MOL1         0.0833
      24    O1      18.071686   19.986593   20.587870 O.3        1 MOL1        -0.5508
      25    H16     17.277744   19.813733   21.134449 H          1 MOL1         0.3780
@<TRIPOS>BOND
    1     1     2    1
    2     1     3    1
    3     1     4    1
    4     4     5    1
    5     4     6    1
    6     4     7    1
    7     7     8    1
    8     7     9    1
    9     7    10    1
   10    10    11    1
   11    10    12    1
   12    10    13    1
   13    13    14    1
   14    13    15    1
   15    15    16    1
   16    15    17    1
   17    15    18    1
   18    18    19    1
   19    18    20    1
   20     1    21    1
   21    18    21    1
   22    21    22    1
   23    21    23    1
   24    13    24    1
   25    24    25    1
@<TRIPOS>SUBSTRUCTURE
       1 MOL1            1 RESIDUE      1      MOL     
@<SCITEGIC>MOL_PROPERTY
VConf Rank
SciTegic.value.IntegerValue
103

@<SCITEGIC>MOL_PROPERTY
Conf_Id
SciTegic.value.IntegerValue
167

@<SCITEGIC>MOL_PROPERTY
Delta U+W
SciTegic.value.DoubleValue
0.388

@<SCITEGIC>MOL_PROPERTY
U+W
SciTegic.value.DoubleValue
11.301

@<SCITEGIC>MOL_PROPERTY
Grad RMS
SciTegic.value.DoubleValue
0.000000

@<SCITEGIC>MOL_PROPERTY
U
SciTegic.value.DoubleValue
13.202

@<SCITEGIC>MOL_PROPERTY
W
SciTegic.value.DoubleValue
-1.901

@<SCITEGIC>MOL_PROPERTY
W(PB)
SciTegic.value.DoubleValue
-4.065

@<SCITEGIC>MOL_PROPERTY
W(SA)
SciTegic.value.DoubleValue
2.163

@<SCITEGIC>MOL_PROPERTY
Valence
SciTegic.value.DoubleValue
18.957

@<SCITEGIC>MOL_PROPERTY
Coulomb
SciTegic.value.DoubleValue
-8.753

@<SCITEGIC>MOL_PROPERTY
VdW
SciTegic.value.DoubleValue
2.998

@<SCITEGIC>MOL_PROPERTY
VdW6
SciTegic.value.DoubleValue
-12.294

@<SCITEGIC>MOL_PROPERTY
VdW12
SciTegic.value.DoubleValue
15.292

@<SCITEGIC>MOL_PROPERTY
Bond
SciTegic.value.DoubleValue
0.419

@<SCITEGIC>MOL_PROPERTY
Angle
SciTegic.value.DoubleValue
4.543

@<SCITEGIC>MOL_PROPERTY
Pdih
SciTegic.value.DoubleValue
13.996

@<SCITEGIC>MOL_PROPERTY
Idih
SciTegic.value.DoubleValue
0.000

@<SCITEGIC>MOL_PROPERTY
Tether
SciTegic.value.DoubleValue
0.000

@<TRIPOS>MOLECULE
guest-s17_confgen4.mol2 : confsearch ligand conformer 104
          25          25           1
SMALL
USER_CHARGES
 
@<TRIPOS>ATOM
       1    C1      18.508891   20.113085   23.160530 C.3        1 MOL1        -0.1684
       2    H1      18.315038   20.473331   24.179915 H          1 MOL1         0.0833
       3    H2      17.606057   20.356757   22.583960 H          1 MOL1         0.0833
       4    C2      18.646129   18.568573   23.191419 C.3        1 MOL1        -0.1684
       5    H3      19.219180   18.248908   24.069047 H          1 MOL1         0.0833
       6    H4      17.640375   18.159398   23.358956 H          1 MOL1         0.0833
       7    C3      19.219506   17.924105   21.902721 C.3        1 MOL1        -0.1684
       8    H5      19.031962   18.558720   21.027014 H          1 MOL1         0.0833
       9    H6      18.653216   17.001656   21.714819 H          1 MOL1         0.0833
      10    C4      20.718664   17.526388   21.983930 C.3        1 MOL1        -0.1760
      11    H7      20.873491   16.859922   22.842472 H          1 MOL1         0.0833
      12    H8      20.948811   16.923160   21.095710 H          1 MOL1         0.0833
      13    C5      21.747064   18.683150   22.044793 C.3        1 MOL1         0.1219
      14    H9      21.569344   19.366386   21.203509 H          1 MOL1         0.0790
      15    C6      21.730222   19.475804   23.377513 C.3        1 MOL1        -0.1760
      16    H10     21.289648   18.866013   24.172700 H          1 MOL1         0.0833
      17    H11     22.761299   19.653607   23.710992 H          1 MOL1         0.0833
      18    C7      21.027492   20.856512   23.309824 C.3        1 MOL1        -0.1684
      19    H12     21.716054   21.562483   22.825644 H          1 MOL1         0.0833
      20    H13     20.884033   21.233834   24.331392 H          1 MOL1         0.0833
      21    C8      19.680299   20.920616   22.547046 C.3        1 MOL1        -0.1684
      22    H14     19.819993   20.648787   21.494552 H          1 MOL1         0.0833
      23    H15     19.370835   21.974361   22.521034 H          1 MOL1         0.0833
      24    O1      23.039158   18.109640   21.884353 O.3        1 MOL1        -0.5508
      25    H16     23.675252   18.854648   21.854952 H          1 MOL1         0.3780
@<TRIPOS>BOND
    1     1     2    1
    2     1     3    1
    3     1     4    1
    4     4     5    1
    5     4     6    1
    6     4     7    1
    7     7     8    1
    8     7     9    1
    9     7    10    1
   10    10    11    1
   11    10    12    1
   12    10    13    1
   13    13    14    1
   14    13    15    1
   15    15    16    1
   16    15    17    1
   17    15    18    1
   18    18    19    1
   19    18    20    1
   20     1    21    1
   21    18    21    1
   22    21    22    1
   23    21    23    1
   24    13    24    1
   25    24    25    1
@<TRIPOS>SUBSTRUCTURE
       1 MOL1            1 RESIDUE      1      MOL     
@<SCITEGIC>MOL_PROPERTY
VConf Rank
SciTegic.value.IntegerValue
104

@<SCITEGIC>MOL_PROPERTY
Conf_Id
SciTegic.value.IntegerValue
60

@<SCITEGIC>MOL_PROPERTY
Delta U+W
SciTegic.value.DoubleValue
-1.838

@<SCITEGIC>MOL_PROPERTY
U+W
SciTegic.value.DoubleValue
9.075

@<SCITEGIC>MOL_PROPERTY
Grad RMS
SciTegic.value.DoubleValue
0.000000

@<SCITEGIC>MOL_PROPERTY
U
SciTegic.value.DoubleValue
11.150

@<SCITEGIC>MOL_PROPERTY
W
SciTegic.value.DoubleValue
-2.074

@<SCITEGIC>MOL_PROPERTY
W(PB)
SciTegic.value.DoubleValue
-4.196

@<SCITEGIC>MOL_PROPERTY
W(SA)
SciTegic.value.DoubleValue
2.121

@<SCITEGIC>MOL_PROPERTY
Valence
SciTegic.value.DoubleValue
16.582

@<SCITEGIC>MOL_PROPERTY
Coulomb
SciTegic.value.DoubleValue
-8.361

@<SCITEGIC>MOL_PROPERTY
VdW
SciTegic.value.DoubleValue
2.928

@<SCITEGIC>MOL_PROPERTY
VdW6
SciTegic.value.DoubleValue
-12.539

@<SCITEGIC>MOL_PROPERTY
VdW12
SciTegic.value.DoubleValue
15.467

@<SCITEGIC>MOL_PROPERTY
Bond
SciTegic.value.DoubleValue
0.441

@<SCITEGIC>MOL_PROPERTY
Angle
SciTegic.value.DoubleValue
5.093

@<SCITEGIC>MOL_PROPERTY
Pdih
SciTegic.value.DoubleValue
11.049

@<SCITEGIC>MOL_PROPERTY
Idih
SciTegic.value.DoubleValue
0.000

@<SCITEGIC>MOL_PROPERTY
Tether
SciTegic.value.DoubleValue
0.000

@<TRIPOS>MOLECULE
guest-s17_confgen4.mol2 : confsearch ligand conformer 105
          25          25           1
SMALL
USER_CHARGES
 
@<TRIPOS>ATOM
       1    C1      20.196377   21.038715   23.560498 C.3        1 MOL1        -0.1684
       2    H1      19.273137   21.371602   24.053771 H          1 MOL1         0.0833
       3    H2      20.901470   21.875691   23.656593 H          1 MOL1         0.0833
       4    C2      19.923831   20.836014   22.048778 C.3        1 MOL1        -0.1684
       5    H3      19.608890   21.806571   21.641771 H          1 MOL1         0.0833
       6    H4      20.856575   20.606020   21.521295 H          1 MOL1         0.0833
       7    C3      18.824055   19.806956   21.684911 C.3        1 MOL1        -0.1684
       8    H5      18.666822   19.860428   20.598927 H          1 MOL1         0.0833
       9    H6      17.873078   20.116817   22.138983 H          1 MOL1         0.0833
      10    C4      19.099103   18.326207   22.054361 C.3        1 MOL1        -0.1760
      11    H7      18.866996   18.150525   23.109603 H          1 MOL1         0.0833
      12    H8      18.366788   17.715494   21.509672 H          1 MOL1         0.0833
      13    C5      20.531209   17.825819   21.732789 C.3        1 MOL1         0.1219
      14    H9      20.998515   18.487466   20.991167 H          1 MOL1         0.0790
      15    C6      21.456476   17.718699   22.970452 C.3        1 MOL1        -0.1760
      16    H10     20.976221   17.083990   23.726588 H          1 MOL1         0.0833
      17    H11     22.362058   17.179098   22.662985 H          1 MOL1         0.0833
      18    C7      21.907564   19.052211   23.626587 C.3        1 MOL1        -0.1684
      19    H12     22.427702   19.687940   22.898524 H          1 MOL1         0.0833
      20    H13     22.666534   18.798152   24.379132 H          1 MOL1         0.0833
      21    C8      20.780921   19.836947   24.347497 C.3        1 MOL1        -0.1684
      22    H14     21.189626   20.235221   25.286311 H          1 MOL1         0.0833
      23    H15     19.981947   19.157740   24.665495 H          1 MOL1         0.0833
      24    O1      20.431205   16.525029   21.165242 O.3        1 MOL1        -0.5508
      25    H16     19.901615   16.616337   20.345661 H          1 MOL1         0.3780
@<TRIPOS>BOND
    1     1     2    1
    2     1     3    1
    3     1     4    1
    4     4     5    1
    5     4     6    1
    6     4     7    1
    7     7     8    1
    8     7     9    1
    9     7    10    1
   10    10    11    1
   11    10    12    1
   12    10    13    1
   13    13    14    1
   14    13    15    1
   15    15    16    1
   16    15    17    1
   17    15    18    1
   18    18    19    1
   19    18    20    1
   20     1    21    1
   21    18    21    1
   22    21    22    1
   23    21    23    1
   24    13    24    1
   25    24    25    1
@<TRIPOS>SUBSTRUCTURE
       1 MOL1            1 RESIDUE      1      MOL     
@<SCITEGIC>MOL_PROPERTY
VConf Rank
SciTegic.value.IntegerValue
105

@<SCITEGIC>MOL_PROPERTY
Conf_Id
SciTegic.value.IntegerValue
129

@<SCITEGIC>MOL_PROPERTY
Delta U+W
SciTegic.value.DoubleValue
-1.846

@<SCITEGIC>MOL_PROPERTY
U+W
SciTegic.value.DoubleValue
9.067

@<SCITEGIC>MOL_PROPERTY
Grad RMS
SciTegic.value.DoubleValue
0.000000

@<SCITEGIC>MOL_PROPERTY
U
SciTegic.value.DoubleValue
11.150

@<SCITEGIC>MOL_PROPERTY
W
SciTegic.value.DoubleValue
-2.083

@<SCITEGIC>MOL_PROPERTY
W(PB)
SciTegic.value.DoubleValue
-4.217

@<SCITEGIC>MOL_PROPERTY
W(SA)
SciTegic.value.DoubleValue
2.134

@<SCITEGIC>MOL_PROPERTY
Valence
SciTegic.value.DoubleValue
16.583

@<SCITEGIC>MOL_PROPERTY
Coulomb
SciTegic.value.DoubleValue
-8.361

@<SCITEGIC>MOL_PROPERTY
VdW
SciTegic.value.DoubleValue
2.928

@<SCITEGIC>MOL_PROPERTY
VdW6
SciTegic.value.DoubleValue
-12.539

@<SCITEGIC>MOL_PROPERTY
VdW12
SciTegic.value.DoubleValue
15.467

@<SCITEGIC>MOL_PROPERTY
Bond
SciTegic.value.DoubleValue
0.441

@<SCITEGIC>MOL_PROPERTY
Angle
SciTegic.value.DoubleValue
5.093

@<SCITEGIC>MOL_PROPERTY
Pdih
SciTegic.value.DoubleValue
11.049

@<SCITEGIC>MOL_PROPERTY
Idih
SciTegic.value.DoubleValue
0.000

@<SCITEGIC>MOL_PROPERTY
Tether
SciTegic.value.DoubleValue
0.000

@<TRIPOS>MOLECULE
guest-s17_confgen4.mol2 : confsearch ligand conformer 106
          25          25           1
SMALL
USER_CHARGES
 
@<TRIPOS>ATOM
       1    C1      21.792915   18.611090   21.402144 C.3        1 MOL1        -0.1684
       2    H1      22.621727   19.288703   21.156342 H          1 MOL1         0.0833
       3    H2      22.010207   17.673343   20.872677 H          1 MOL1         0.0833
       4    C2      20.476580   19.178978   20.814794 C.3        1 MOL1        -0.1684
       5    H3      20.604287   19.236538   19.725215 H          1 MOL1         0.0833
       6    H4      19.656210   18.466573   20.958572 H          1 MOL1         0.0833
       7    C3      20.063519   20.589807   21.303887 C.3        1 MOL1        -0.1684
       8    H5      19.186715   20.898822   20.718417 H          1 MOL1         0.0833
       9    H6      20.856557   21.307401   21.053596 H          1 MOL1         0.0833
      10    C4      19.706724   20.737039   22.805984 C.3        1 MOL1        -0.1760
      11    H7      20.618842   20.842104   23.402257 H          1 MOL1         0.0833
      12    H8      19.189610   21.699586   22.918728 H          1 MOL1         0.0833
      13    C5      18.814842   19.607135   23.382558 C.3        1 MOL1         0.1219
      14    H9      18.297134   19.090048   22.563736 H          1 MOL1         0.0790
      15    C6      19.579218   18.567698   24.240579 C.3        1 MOL1        -0.1760
      16    H10     20.122774   19.084338   25.042355 H          1 MOL1         0.0833
      17    H11     18.833499   17.937820   24.743959 H          1 MOL1         0.0833
      18    C7      20.555527   17.621450   23.490609 C.3        1 MOL1        -0.1684
      19    H12     20.029105   17.058294   22.709246 H          1 MOL1         0.0833
      20    H13     20.887900   16.864671   24.214336 H          1 MOL1         0.0833
      21    C8      21.822770   18.312011   22.923364 C.3        1 MOL1        -0.1684
      22    H14     22.681792   17.651628   23.105096 H          1 MOL1         0.0833
      23    H15     22.053057   19.220515   23.491156 H          1 MOL1         0.0833
      24    O1      17.829597   20.201517   24.218121 O.3        1 MOL1        -0.5508
      25    H16     18.314263   20.651303   24.940433 H          1 MOL1         0.3780
@<TRIPOS>BOND
    1     1     2    1
    2     1     3    1
    3     1     4    1
    4     4     5    1
    5     4     6    1
    6     4     7    1
    7     7     8    1
    8     7     9    1
    9     7    10    1
   10    10    11    1
   11    10    12    1
   12    10    13    1
   13    13    14    1
   14    13    15    1
   15    15    16    1
   16    15    17    1
   17    15    18    1
   18    18    19    1
   19    18    20    1
   20     1    21    1
   21    18    21    1
   22    21    22    1
   23    21    23    1
   24    13    24    1
   25    24    25    1
@<TRIPOS>SUBSTRUCTURE
       1 MOL1            1 RESIDUE      1      MOL     
@<SCITEGIC>MOL_PROPERTY
VConf Rank
SciTegic.value.IntegerValue
106

@<SCITEGIC>MOL_PROPERTY
Conf_Id
SciTegic.value.IntegerValue
140

@<SCITEGIC>MOL_PROPERTY
Delta U+W
SciTegic.value.DoubleValue
-1.702

@<SCITEGIC>MOL_PROPERTY
U+W
SciTegic.value.DoubleValue
9.211

@<SCITEGIC>MOL_PROPERTY
Grad RMS
SciTegic.value.DoubleValue
0.000000

@<SCITEGIC>MOL_PROPERTY
U
SciTegic.value.DoubleValue
11.181

@<SCITEGIC>MOL_PROPERTY
W
SciTegic.value.DoubleValue
-1.969

@<SCITEGIC>MOL_PROPERTY
W(PB)
SciTegic.value.DoubleValue
-4.093

@<SCITEGIC>MOL_PROPERTY
W(SA)
SciTegic.value.DoubleValue
2.124

@<SCITEGIC>MOL_PROPERTY
Valence
SciTegic.value.DoubleValue
16.954

@<SCITEGIC>MOL_PROPERTY
Coulomb
SciTegic.value.DoubleValue
-8.661

@<SCITEGIC>MOL_PROPERTY
VdW
SciTegic.value.DoubleValue
2.887

@<SCITEGIC>MOL_PROPERTY
VdW6
SciTegic.value.DoubleValue
-12.561

@<SCITEGIC>MOL_PROPERTY
VdW12
SciTegic.value.DoubleValue
15.448

@<SCITEGIC>MOL_PROPERTY
Bond
SciTegic.value.DoubleValue
0.433

@<SCITEGIC>MOL_PROPERTY
Angle
SciTegic.value.DoubleValue
5.120

@<SCITEGIC>MOL_PROPERTY
Pdih
SciTegic.value.DoubleValue
11.401

@<SCITEGIC>MOL_PROPERTY
Idih
SciTegic.value.DoubleValue
0.000

@<SCITEGIC>MOL_PROPERTY
Tether
SciTegic.value.DoubleValue
0.000

@<TRIPOS>MOLECULE
guest-s17_confgen4.mol2 : confsearch ligand conformer 107
          25          25           1
SMALL
USER_CHARGES
 
@<TRIPOS>ATOM
       1    C1      21.988289   18.946928   21.514024 C.3        1 MOL1        -0.1684
       2    H1      22.618419   19.810245   21.260790 H          1 MOL1         0.0833
       3    H2      22.471144   18.079705   21.043179 H          1 MOL1         0.0833
       4    C2      20.597377   19.129126   20.853254 C.3        1 MOL1        -0.1684
       5    H3      20.263639   20.169570   20.936300 H          1 MOL1         0.0833
       6    H4      20.730007   18.970453   19.774234 H          1 MOL1         0.0833
       7    C3      19.492677   18.161172   21.350496 C.3        1 MOL1        -0.1684
       8    H5      19.928035   17.234561   21.746287 H          1 MOL1         0.0833
       9    H6      18.906814   17.850889   20.474451 H          1 MOL1         0.0833
      10    C4      18.494951   18.779434   22.367014 C.3        1 MOL1        -0.1760
      11    H7      18.043989   19.678830   21.927772 H          1 MOL1         0.0833
      12    H8      17.670885   18.064614   22.494223 H          1 MOL1         0.0833
      13    C5      19.048357   19.114737   23.774922 C.3        1 MOL1         0.1219
      14    H9      19.525509   18.221014   24.198547 H          1 MOL1         0.0790
      15    C6      20.045596   20.301909   23.801543 C.3        1 MOL1        -0.1760
      16    H10     19.896018   20.942813   22.926668 H          1 MOL1         0.0833
      17    H11     19.816972   20.947561   24.660310 H          1 MOL1         0.0833
      18    C7      21.539147   19.902045   23.922720 C.3        1 MOL1        -0.1684
      19    H12     21.731866   19.636455   24.971230 H          1 MOL1         0.0833
      20    H13     22.162080   20.783635   23.719611 H          1 MOL1         0.0833
      21    C8      22.023436   18.719936   23.046163 C.3        1 MOL1        -0.1684
      22    H14     21.485913   17.801414   23.308057 H          1 MOL1         0.0833
      23    H15     23.067353   18.516774   23.321420 H          1 MOL1         0.0833
      24    O1      17.937034   19.449565   24.596513 O.3        1 MOL1        -0.5508
      25    H16     17.527234   20.244229   24.197119 H          1 MOL1         0.3780
@<TRIPOS>BOND
    1     1     2    1
    2     1     3    1
    3     1     4    1
    4     4     5    1
    5     4     6    1
    6     4     7    1
    7     7     8    1
    8     7     9    1
    9     7    10    1
   10    10    11    1
   11    10    12    1
   12    10    13    1
   13    13    14    1
   14    13    15    1
   15    15    16    1
   16    15    17    1
   17    15    18    1
   18    18    19    1
   19    18    20    1
   20     1    21    1
   21    18    21    1
   22    21    22    1
   23    21    23    1
   24    13    24    1
   25    24    25    1
@<TRIPOS>SUBSTRUCTURE
       1 MOL1            1 RESIDUE      1      MOL     
@<SCITEGIC>MOL_PROPERTY
VConf Rank
SciTegic.value.IntegerValue
107

@<SCITEGIC>MOL_PROPERTY
Conf_Id
SciTegic.value.IntegerValue
68

@<SCITEGIC>MOL_PROPERTY
Delta U+W
SciTegic.value.DoubleValue
-1.765

@<SCITEGIC>MOL_PROPERTY
U+W
SciTegic.value.DoubleValue
9.148

@<SCITEGIC>MOL_PROPERTY
Grad RMS
SciTegic.value.DoubleValue
0.000000

@<SCITEGIC>MOL_PROPERTY
U
SciTegic.value.DoubleValue
11.181

@<SCITEGIC>MOL_PROPERTY
W
SciTegic.value.DoubleValue
-2.032

@<SCITEGIC>MOL_PROPERTY
W(PB)
SciTegic.value.DoubleValue
-4.147

@<SCITEGIC>MOL_PROPERTY
W(SA)
SciTegic.value.DoubleValue
2.114

@<SCITEGIC>MOL_PROPERTY
Valence
SciTegic.value.DoubleValue
16.955

@<SCITEGIC>MOL_PROPERTY
Coulomb
SciTegic.value.DoubleValue
-8.661

@<SCITEGIC>MOL_PROPERTY
VdW
SciTegic.value.DoubleValue
2.887

@<SCITEGIC>MOL_PROPERTY
VdW6
SciTegic.value.DoubleValue
-12.561

@<SCITEGIC>MOL_PROPERTY
VdW12
SciTegic.value.DoubleValue
15.448

@<SCITEGIC>MOL_PROPERTY
Bond
SciTegic.value.DoubleValue
0.433

@<SCITEGIC>MOL_PROPERTY
Angle
SciTegic.value.DoubleValue
5.121

@<SCITEGIC>MOL_PROPERTY
Pdih
SciTegic.value.DoubleValue
11.402

@<SCITEGIC>MOL_PROPERTY
Idih
SciTegic.value.DoubleValue
0.000

@<SCITEGIC>MOL_PROPERTY
Tether
SciTegic.value.DoubleValue
0.000

@<TRIPOS>MOLECULE
guest-s17_confgen4.mol2 : confsearch ligand conformer 108
          25          25           1
SMALL
USER_CHARGES
 
@<TRIPOS>ATOM
       1    C1      19.340549   19.116717   21.026151 C.3        1 MOL1        -0.1684
       2    H1      18.712677   19.043753   20.127524 H          1 MOL1         0.0833
       3    H2      20.366743   19.101399   20.641985 H          1 MOL1         0.0833
       4    C2      19.068629   17.868488   21.905517 C.3        1 MOL1        -0.1684
       5    H3      18.310954   18.080899   22.670648 H          1 MOL1         0.0833
       6    H4      18.616280   17.102670   21.260597 H          1 MOL1         0.0833
       7    C3      20.332221   17.233642   22.543411 C.3        1 MOL1        -0.1684
       8    H5      21.054468   16.986810   21.753153 H          1 MOL1         0.0833
       9    H6      20.036417   16.271175   22.982716 H          1 MOL1         0.0833
      10    C4      21.043809   18.058320   23.648899 C.3        1 MOL1        -0.1760
      11    H7      20.345210   18.289068   24.462086 H          1 MOL1         0.0833
      12    H8      21.800248   17.399740   24.096876 H          1 MOL1         0.0833
      13    C5      21.746294   19.343874   23.140223 C.3        1 MOL1         0.1219
      14    H9      21.910220   19.257846   22.059820 H          1 MOL1         0.0790
      15    C6      20.984491   20.659449   23.435117 C.3        1 MOL1        -0.1760
      16    H10     21.133273   20.918943   24.491574 H          1 MOL1         0.0833
      17    H11     21.452822   21.467634   22.858413 H          1 MOL1         0.0833
      18    C7      19.457340   20.668735   23.167183 C.3        1 MOL1        -0.1684
      19    H12     19.073012   21.642642   23.499626 H          1 MOL1         0.0833
      20    H13     18.951062   19.938307   23.808639 H          1 MOL1         0.0833
      21    C8      19.023800   20.481170   21.691717 C.3        1 MOL1        -0.1684
      22    H14     19.456668   21.284848   21.080723 H          1 MOL1         0.0833
      23    H15     17.936109   20.629707   21.648552 H          1 MOL1         0.0833
      24    O1      23.021465   19.439690   23.762672 O.3        1 MOL1        -0.5508
      25    H16     22.855842   19.497609   24.726053 H          1 MOL1         0.3780
@<TRIPOS>BOND
    1     1     2    1
    2     1     3    1
    3     1     4    1
    4     4     5    1
    5     4     6    1
    6     4     7    1
    7     7     8    1
    8     7     9    1
    9     7    10    1
   10    10    11    1
   11    10    12    1
   12    10    13    1
   13    13    14    1
   14    13    15    1
   15    15    16    1
   16    15    17    1
   17    15    18    1
   18    18    19    1
   19    18    20    1
   20     1    21    1
   21    18    21    1
   22    21    22    1
   23    21    23    1
   24    13    24    1
   25    24    25    1
@<TRIPOS>SUBSTRUCTURE
       1 MOL1            1 RESIDUE      1      MOL     
@<SCITEGIC>MOL_PROPERTY
VConf Rank
SciTegic.value.IntegerValue
108

@<SCITEGIC>MOL_PROPERTY
Conf_Id
SciTegic.value.IntegerValue
165

@<SCITEGIC>MOL_PROPERTY
Delta U+W
SciTegic.value.DoubleValue
-1.999

@<SCITEGIC>MOL_PROPERTY
U+W
SciTegic.value.DoubleValue
8.915

@<SCITEGIC>MOL_PROPERTY
Grad RMS
SciTegic.value.DoubleValue
0.000000

@<SCITEGIC>MOL_PROPERTY
U
SciTegic.value.DoubleValue
10.935

@<SCITEGIC>MOL_PROPERTY
W
SciTegic.value.DoubleValue
-2.020

@<SCITEGIC>MOL_PROPERTY
W(PB)
SciTegic.value.DoubleValue
-4.135

@<SCITEGIC>MOL_PROPERTY
W(SA)
SciTegic.value.DoubleValue
2.115

@<SCITEGIC>MOL_PROPERTY
Valence
SciTegic.value.DoubleValue
16.757

@<SCITEGIC>MOL_PROPERTY
Coulomb
SciTegic.value.DoubleValue
-8.731

@<SCITEGIC>MOL_PROPERTY
VdW
SciTegic.value.DoubleValue
2.908

@<SCITEGIC>MOL_PROPERTY
VdW6
SciTegic.value.DoubleValue
-12.597

@<SCITEGIC>MOL_PROPERTY
VdW12
SciTegic.value.DoubleValue
15.506

@<SCITEGIC>MOL_PROPERTY
Bond
SciTegic.value.DoubleValue
0.434

@<SCITEGIC>MOL_PROPERTY
Angle
SciTegic.value.DoubleValue
5.069

@<SCITEGIC>MOL_PROPERTY
Pdih
SciTegic.value.DoubleValue
11.254

@<SCITEGIC>MOL_PROPERTY
Idih
SciTegic.value.DoubleValue
0.000

@<SCITEGIC>MOL_PROPERTY
Tether
SciTegic.value.DoubleValue
0.000

@<TRIPOS>MOLECULE
guest-s17_confgen4.mol2 : confsearch ligand conformer 109
          25          25           1
SMALL
USER_CHARGES
 
@<TRIPOS>ATOM
       1    C1      20.226351   20.534438   23.891401 C.3        1 MOL1        -0.1684
       2    H1      20.117000   21.387126   24.575542 H          1 MOL1         0.0833
       3    H2      20.840386   19.817478   24.447937 H          1 MOL1         0.0833
       4    C2      20.982992   21.050947   22.639936 C.3        1 MOL1        -0.1684
       5    H3      20.573192   22.038063   22.385630 H          1 MOL1         0.0833
       6    H4      22.034136   21.226726   22.905954 H          1 MOL1         0.0833
       7    C3      20.916374   20.180106   21.360272 C.3        1 MOL1        -0.1684
       8    H5      21.417390   20.738479   20.557837 H          1 MOL1         0.0833
       9    H6      19.878933   20.080273   21.021096 H          1 MOL1         0.0833
      10    C4      21.594460   18.788449   21.446989 C.3        1 MOL1        -0.1760
      11    H7      21.560222   18.343037   20.443520 H          1 MOL1         0.0833
      12    H8      22.657950   18.926254   21.680903 H          1 MOL1         0.0833
      13    C5      20.994524   17.771010   22.448316 C.3        1 MOL1         0.1219
      14    H9      21.322935   18.025349   23.462868 H          1 MOL1         0.0790
      15    C6      19.446775   17.680191   22.428127 C.3        1 MOL1        -0.1760
      16    H10     19.047471   18.033327   21.470020 H          1 MOL1         0.0833
      17    H11     19.160761   16.621120   22.483771 H          1 MOL1         0.0833
      18    C7      18.742950   18.400557   23.609098 C.3        1 MOL1        -0.1684
      19    H12     19.135038   18.009586   24.557990 H          1 MOL1         0.0833
      20    H13     17.682121   18.115901   23.589436 H          1 MOL1         0.0833
      21    C8      18.815093   19.950233   23.622006 C.3        1 MOL1        -0.1684
      22    H14     18.155446   20.294773   24.430194 H          1 MOL1         0.0833
      23    H15     18.382916   20.367674   22.703542 H          1 MOL1         0.0833
      24    O1      21.526551   16.491127   22.125263 O.3        1 MOL1        -0.5508
      25    H16     22.501573   16.566364   22.189376 H          1 MOL1         0.3780
@<TRIPOS>BOND
    1     1     2    1
    2     1     3    1
    3     1     4    1
    4     4     5    1
    5     4     6    1
    6     4     7    1
    7     7     8    1
    8     7     9    1
    9     7    10    1
   10    10    11    1
   11    10    12    1
   12    10    13    1
   13    13    14    1
   14    13    15    1
   15    15    16    1
   16    15    17    1
   17    15    18    1
   18    18    19    1
   19    18    20    1
   20     1    21    1
   21    18    21    1
   22    21    22    1
   23    21    23    1
   24    13    24    1
   25    24    25    1
@<TRIPOS>SUBSTRUCTURE
       1 MOL1            1 RESIDUE      1      MOL     
@<SCITEGIC>MOL_PROPERTY
VConf Rank
SciTegic.value.IntegerValue
109

@<SCITEGIC>MOL_PROPERTY
Conf_Id
SciTegic.value.IntegerValue
133

@<SCITEGIC>MOL_PROPERTY
Delta U+W
SciTegic.value.DoubleValue
-2.139

@<SCITEGIC>MOL_PROPERTY
U+W
SciTegic.value.DoubleValue
8.774

@<SCITEGIC>MOL_PROPERTY
Grad RMS
SciTegic.value.DoubleValue
0.000000

@<SCITEGIC>MOL_PROPERTY
U
SciTegic.value.DoubleValue
10.905

@<SCITEGIC>MOL_PROPERTY
W
SciTegic.value.DoubleValue
-2.131

@<SCITEGIC>MOL_PROPERTY
W(PB)
SciTegic.value.DoubleValue
-4.281

@<SCITEGIC>MOL_PROPERTY
W(SA)
SciTegic.value.DoubleValue
2.150

@<SCITEGIC>MOL_PROPERTY
Valence
SciTegic.value.DoubleValue
16.378

@<SCITEGIC>MOL_PROPERTY
Coulomb
SciTegic.value.DoubleValue
-8.448

@<SCITEGIC>MOL_PROPERTY
VdW
SciTegic.value.DoubleValue
2.976

@<SCITEGIC>MOL_PROPERTY
VdW6
SciTegic.value.DoubleValue
-12.570

@<SCITEGIC>MOL_PROPERTY
VdW12
SciTegic.value.DoubleValue
15.545

@<SCITEGIC>MOL_PROPERTY
Bond
SciTegic.value.DoubleValue
0.439

@<SCITEGIC>MOL_PROPERTY
Angle
SciTegic.value.DoubleValue
5.049

@<SCITEGIC>MOL_PROPERTY
Pdih
SciTegic.value.DoubleValue
10.889

@<SCITEGIC>MOL_PROPERTY
Idih
SciTegic.value.DoubleValue
0.000

@<SCITEGIC>MOL_PROPERTY
Tether
SciTegic.value.DoubleValue
0.000

@<TRIPOS>MOLECULE
guest-s17_confgen4.mol2 : confsearch ligand conformer 110
          25          25           1
SMALL
USER_CHARGES
 
@<TRIPOS>ATOM
       1    C1      20.005048   21.005031   23.053321 C.3        1 MOL1        -0.1684
       2    H1      19.836355   22.041494   23.376390 H          1 MOL1         0.0833
       3    H2      19.877812   21.036178   21.965367 H          1 MOL1         0.0833
       4    C2      18.914608   20.114979   23.704683 C.3        1 MOL1        -0.1684
       5    H3      19.276486   19.665658   24.638366 H          1 MOL1         0.0833
       6    H4      18.088063   20.773009   24.006065 H          1 MOL1         0.0833
       7    C3      18.313100   19.032532   22.770142 C.3        1 MOL1        -0.1684
       8    H5      17.913742   19.512574   21.866228 H          1 MOL1         0.0833
       9    H6      17.443461   18.596657   23.280549 H          1 MOL1         0.0833
      10    C4      19.252112   17.867047   22.359176 C.3        1 MOL1        -0.1760
      11    H7      19.637897   17.353178   23.247561 H          1 MOL1         0.0833
      12    H8      18.630087   17.121491   21.845598 H          1 MOL1         0.0833
      13    C5      20.409411   18.275532   21.411557 C.3        1 MOL1         0.1219
      14    H9      20.157009   19.228328   20.931630 H          1 MOL1         0.0790
      15    C6      21.792070   18.399516   22.097582 C.3        1 MOL1        -0.1760
      16    H10     22.185479   17.387200   22.261781 H          1 MOL1         0.0833
      17    H11     22.487529   18.885291   21.401107 H          1 MOL1         0.0833
      18    C7      21.843488   19.143437   23.456980 C.3        1 MOL1        -0.1684
      19    H12     22.874180   19.071755   23.830122 H          1 MOL1         0.0833
      20    H13     21.241473   18.615636   24.205510 H          1 MOL1         0.0833
      21    C8      21.467244   20.646034   23.425558 C.3        1 MOL1        -0.1684
      22    H14     22.148688   21.177511   22.747519 H          1 MOL1         0.0833
      23    H15     21.667169   21.054351   24.425714 H          1 MOL1         0.0833
      24    O1      20.527029   17.290441   20.391129 O.3        1 MOL1        -0.5508
      25    H16     21.232829   17.596052   19.783768 H          1 MOL1         0.3780
@<TRIPOS>BOND
    1     1     2    1
    2     1     3    1
    3     1     4    1
    4     4     5    1
    5     4     6    1
    6     4     7    1
    7     7     8    1
    8     7     9    1
    9     7    10    1
   10    10    11    1
   11    10    12    1
   12    10    13    1
   13    13    14    1
   14    13    15    1
   15    15    16    1
   16    15    17    1
   17    15    18    1
   18    18    19    1
   19    18    20    1
   20     1    21    1
   21    18    21    1
   22    21    22    1
   23    21    23    1
   24    13    24    1
   25    24    25    1
@<TRIPOS>SUBSTRUCTURE
       1 MOL1            1 RESIDUE      1      MOL     
@<SCITEGIC>MOL_PROPERTY
VConf Rank
SciTegic.value.IntegerValue
110

@<SCITEGIC>MOL_PROPERTY
Conf_Id
SciTegic.value.IntegerValue
95

@<SCITEGIC>MOL_PROPERTY
Delta U+W
SciTegic.value.DoubleValue
-2.190

@<SCITEGIC>MOL_PROPERTY
U+W
SciTegic.value.DoubleValue
8.723

@<SCITEGIC>MOL_PROPERTY
Grad RMS
SciTegic.value.DoubleValue
0.000000

@<SCITEGIC>MOL_PROPERTY
U
SciTegic.value.DoubleValue
10.905

@<SCITEGIC>MOL_PROPERTY
W
SciTegic.value.DoubleValue
-2.182

@<SCITEGIC>MOL_PROPERTY
W(PB)
SciTegic.value.DoubleValue
-4.296

@<SCITEGIC>MOL_PROPERTY
W(SA)
SciTegic.value.DoubleValue
2.114

@<SCITEGIC>MOL_PROPERTY
Valence
SciTegic.value.DoubleValue
16.377

@<SCITEGIC>MOL_PROPERTY
Coulomb
SciTegic.value.DoubleValue
-8.448

@<SCITEGIC>MOL_PROPERTY
VdW
SciTegic.value.DoubleValue
2.976

@<SCITEGIC>MOL_PROPERTY
VdW6
SciTegic.value.DoubleValue
-12.570

@<SCITEGIC>MOL_PROPERTY
VdW12
SciTegic.value.DoubleValue
15.546

@<SCITEGIC>MOL_PROPERTY
Bond
SciTegic.value.DoubleValue
0.439

@<SCITEGIC>MOL_PROPERTY
Angle
SciTegic.value.DoubleValue
5.049

@<SCITEGIC>MOL_PROPERTY
Pdih
SciTegic.value.DoubleValue
10.889

@<SCITEGIC>MOL_PROPERTY
Idih
SciTegic.value.DoubleValue
0.000

@<SCITEGIC>MOL_PROPERTY
Tether
SciTegic.value.DoubleValue
0.000

@<TRIPOS>MOLECULE
guest-s17_confgen4.mol2 : confsearch ligand conformer 111
          25          25           1
SMALL
USER_CHARGES
 
@<TRIPOS>ATOM
       1    C1      20.798325   19.075476   24.412301 C.3        1 MOL1        -0.1684
       2    H1      20.984754   19.022813   25.493676 H          1 MOL1         0.0833
       3    H2      21.766546   19.379902   24.002289 H          1 MOL1         0.0833
       4    C2      19.725726   20.181698   24.188646 C.3        1 MOL1        -0.1684
       5    H3      19.037769   20.148956   25.044557 H          1 MOL1         0.0833
       6    H4      20.211625   21.165308   24.242364 H          1 MOL1         0.0833
       7    C3      18.854487   20.109898   22.907129 C.3        1 MOL1        -0.1684
       8    H5      18.086801   20.892040   22.982822 H          1 MOL1         0.0833
       9    H6      18.275162   19.181275   22.915492 H          1 MOL1         0.0833
      10    C4      19.573339   20.303171   21.538765 C.3        1 MOL1        -0.1760
      11    H7      18.946346   19.875968   20.745197 H          1 MOL1         0.0833
      12    H8      19.605644   21.382885   21.342716 H          1 MOL1         0.0833
      13    C5      21.018809   19.765353   21.386912 C.3        1 MOL1         0.1219
      14    H9      21.638671   20.236517   22.156712 H          1 MOL1         0.0790
      15    C6      21.205867   18.221767   21.441167 C.3        1 MOL1        -0.1760
      16    H10     21.043645   17.825984   20.429557 H          1 MOL1         0.0833
      17    H11     22.256850   18.010188   21.675595 H          1 MOL1         0.0833
      18    C7      20.300628   17.398914   22.397448 C.3        1 MOL1        -0.1684
      19    H12     20.506035   16.335288   22.215187 H          1 MOL1         0.0833
      20    H13     19.255369   17.513143   22.093381 H          1 MOL1         0.0833
      21    C8      20.462151   17.640684   23.926815 C.3        1 MOL1        -0.1684
      22    H14     21.270720   16.985871   24.279384 H          1 MOL1         0.0833
      23    H15     19.556728   17.288834   24.439509 H          1 MOL1         0.0833
      24    O1      21.505832   20.206032   20.124682 O.3        1 MOL1        -0.5508
      25    H16     21.445251   21.183982   20.123774 H          1 MOL1         0.3780
@<TRIPOS>BOND
    1     1     2    1
    2     1     3    1
    3     1     4    1
    4     4     5    1
    5     4     6    1
    6     4     7    1
    7     7     8    1
    8     7     9    1
    9     7    10    1
   10    10    11    1
   11    10    12    1
   12    10    13    1
   13    13    14    1
   14    13    15    1
   15    15    16    1
   16    15    17    1
   17    15    18    1
   18    18    19    1
   19    18    20    1
   20     1    21    1
   21    18    21    1
   22    21    22    1
   23    21    23    1
   24    13    24    1
   25    24    25    1
@<TRIPOS>SUBSTRUCTURE
       1 MOL1            1 RESIDUE      1      MOL     
@<SCITEGIC>MOL_PROPERTY
VConf Rank
SciTegic.value.IntegerValue
111

@<SCITEGIC>MOL_PROPERTY
Conf_Id
SciTegic.value.IntegerValue
161

@<SCITEGIC>MOL_PROPERTY
Delta U+W
SciTegic.value.DoubleValue
2.120

@<SCITEGIC>MOL_PROPERTY
U+W
SciTegic.value.DoubleValue
13.033

@<SCITEGIC>MOL_PROPERTY
Grad RMS
SciTegic.value.DoubleValue
0.000000

@<SCITEGIC>MOL_PROPERTY
U
SciTegic.value.DoubleValue
15.076

@<SCITEGIC>MOL_PROPERTY
W
SciTegic.value.DoubleValue
-2.043

@<SCITEGIC>MOL_PROPERTY
W(PB)
SciTegic.value.DoubleValue
-4.186

@<SCITEGIC>MOL_PROPERTY
W(SA)
SciTegic.value.DoubleValue
2.143

@<SCITEGIC>MOL_PROPERTY
Valence
SciTegic.value.DoubleValue
18.884

@<SCITEGIC>MOL_PROPERTY
Coulomb
SciTegic.value.DoubleValue
-8.074

@<SCITEGIC>MOL_PROPERTY
VdW
SciTegic.value.DoubleValue
4.266

@<SCITEGIC>MOL_PROPERTY
VdW6
SciTegic.value.DoubleValue
-13.486

@<SCITEGIC>MOL_PROPERTY
VdW12
SciTegic.value.DoubleValue
17.752

@<SCITEGIC>MOL_PROPERTY
Bond
SciTegic.value.DoubleValue
0.713

@<SCITEGIC>MOL_PROPERTY
Angle
SciTegic.value.DoubleValue
8.955

@<SCITEGIC>MOL_PROPERTY
Pdih
SciTegic.value.DoubleValue
9.215

@<SCITEGIC>MOL_PROPERTY
Idih
SciTegic.value.DoubleValue
0.000

@<SCITEGIC>MOL_PROPERTY
Tether
SciTegic.value.DoubleValue
0.000

@<TRIPOS>MOLECULE
guest-s17_confgen4.mol2 : confsearch ligand conformer 112
          25          25           1
SMALL
USER_CHARGES
 
@<TRIPOS>ATOM
       1    C1      18.989386   18.516189   21.336103 C.3        1 MOL1        -0.1684
       2    H1      18.451954   18.175571   20.440484 H          1 MOL1         0.0833
       3    H2      18.214623   18.612033   22.107329 H          1 MOL1         0.0833
       4    C2      19.602135   19.904970   21.027067 C.3        1 MOL1        -0.1684
       5    H3      20.586116   19.800221   20.550627 H          1 MOL1         0.0833
       6    H4      18.960769   20.374013   20.268239 H          1 MOL1         0.0833
       7    C3      19.662425   20.884285   22.232322 C.3        1 MOL1        -0.1684
       8    H5      18.775468   20.780959   22.871788 H          1 MOL1         0.0833
       9    H6      19.604866   21.900440   21.818416 H          1 MOL1         0.0833
      10    C4      20.961357   20.816786   23.076533 C.3        1 MOL1        -0.1760
      11    H7      21.815234   20.586214   22.427920 H          1 MOL1         0.0833
      12    H8      21.162232   21.825660   23.460535 H          1 MOL1         0.0833
      13    C5      20.930233   19.875618   24.307413 C.3        1 MOL1         0.1219
      14    H9      20.262552   20.323127   25.057553 H          1 MOL1         0.0790
      15    C6      20.441880   18.430158   24.056332 C.3        1 MOL1        -0.1760
      16    H10     20.686891   17.825785   24.939954 H          1 MOL1         0.0833
      17    H11     19.347217   18.425959   24.018179 H          1 MOL1         0.0833
      18    C7      21.042868   17.745846   22.799447 C.3        1 MOL1        -0.1684
      19    H12     21.539112   16.815332   23.107043 H          1 MOL1         0.0833
      20    H13     21.838331   18.356126   22.356845 H          1 MOL1         0.0833
      21    C8      19.998853   17.399051   21.711123 C.3        1 MOL1        -0.1684
      22    H14     19.428690   16.518451   22.037112 H          1 MOL1         0.0833
      23    H15     20.536750   17.087919   20.805229 H          1 MOL1         0.0833
      24    O1      22.244107   19.812453   24.844172 O.3        1 MOL1        -0.5508
      25    H16     22.768893   19.286890   24.206841 H          1 MOL1         0.3780
@<TRIPOS>BOND
    1     1     2    1
    2     1     3    1
    3     1     4    1
    4     4     5    1
    5     4     6    1
    6     4     7    1
    7     7     8    1
    8     7     9    1
    9     7    10    1
   10    10    11    1
   11    10    12    1
   12    10    13    1
   13    13    14    1
   14    13    15    1
   15    15    16    1
   16    15    17    1
   17    15    18    1
   18    18    19    1
   19    18    20    1
   20     1    21    1
   21    18    21    1
   22    21    22    1
   23    21    23    1
   24    13    24    1
   25    24    25    1
@<TRIPOS>SUBSTRUCTURE
       1 MOL1            1 RESIDUE      1      MOL     
@<SCITEGIC>MOL_PROPERTY
VConf Rank
SciTegic.value.IntegerValue
112

@<SCITEGIC>MOL_PROPERTY
Conf_Id
SciTegic.value.IntegerValue
164

@<SCITEGIC>MOL_PROPERTY
Delta U+W
SciTegic.value.DoubleValue
0.008

@<SCITEGIC>MOL_PROPERTY
U+W
SciTegic.value.DoubleValue
10.922

@<SCITEGIC>MOL_PROPERTY
Grad RMS
SciTegic.value.DoubleValue
0.000000

@<SCITEGIC>MOL_PROPERTY
U
SciTegic.value.DoubleValue
12.433

@<SCITEGIC>MOL_PROPERTY
W
SciTegic.value.DoubleValue
-1.511

@<SCITEGIC>MOL_PROPERTY
W(PB)
SciTegic.value.DoubleValue
-3.669

@<SCITEGIC>MOL_PROPERTY
W(SA)
SciTegic.value.DoubleValue
2.157

@<SCITEGIC>MOL_PROPERTY
Valence
SciTegic.value.DoubleValue
19.007

@<SCITEGIC>MOL_PROPERTY
Coulomb
SciTegic.value.DoubleValue
-9.373

@<SCITEGIC>MOL_PROPERTY
VdW
SciTegic.value.DoubleValue
2.799

@<SCITEGIC>MOL_PROPERTY
VdW6
SciTegic.value.DoubleValue
-12.597

@<SCITEGIC>MOL_PROPERTY
VdW12
SciTegic.value.DoubleValue
15.396

@<SCITEGIC>MOL_PROPERTY
Bond
SciTegic.value.DoubleValue
0.425

@<SCITEGIC>MOL_PROPERTY
Angle
SciTegic.value.DoubleValue
4.784

@<SCITEGIC>MOL_PROPERTY
Pdih
SciTegic.value.DoubleValue
13.799

@<SCITEGIC>MOL_PROPERTY
Idih
SciTegic.value.DoubleValue
0.000

@<SCITEGIC>MOL_PROPERTY
Tether
SciTegic.value.DoubleValue
0.000

@<TRIPOS>MOLECULE
guest-s17_confgen4.mol2 : confsearch ligand conformer 113
          25          25           1
SMALL
USER_CHARGES
 
@<TRIPOS>ATOM
       1    C1      19.111787   19.767342   21.388444 C.3        1 MOL1        -0.1684
       2    H1      19.090929   18.672853   21.337642 H          1 MOL1         0.0833
       3    H2      18.384848   20.092924   20.631986 H          1 MOL1         0.0833
       4    C2      20.498904   20.302408   20.953325 C.3        1 MOL1        -0.1684
       5    H3      20.671090   19.968484   19.920974 H          1 MOL1         0.0833
       6    H4      20.467041   21.399460   20.908946 H          1 MOL1         0.0833
       7    C3      21.721653   19.868677   21.801574 C.3        1 MOL1        -0.1684
       8    H5      21.825257   20.510417   22.683900 H          1 MOL1         0.0833
       9    H6      22.620130   20.075948   21.204263 H          1 MOL1         0.0833
      10    C4      21.746681   18.371879   22.211147 C.3        1 MOL1        -0.1760
      11    H7      21.158463   17.763959   21.513141 H          1 MOL1         0.0833
      12    H8      22.781496   18.020832   22.100855 H          1 MOL1         0.0833
      13    C5      21.327104   18.089649   23.675651 C.3        1 MOL1         0.1219
      14    H9      21.937694   18.722991   24.334937 H          1 MOL1         0.0790
      15    C6      19.836293   18.324026   24.026406 C.3        1 MOL1        -0.1760
      16    H10     19.185242   17.714522   23.388114 H          1 MOL1         0.0833
      17    H11     19.682977   17.943226   25.045094 H          1 MOL1         0.0833
      18    C7      19.389251   19.810250   24.017809 C.3        1 MOL1        -0.1684
      19    H12     20.247984   20.470913   24.182627 H          1 MOL1         0.0833
      20    H13     18.741891   19.978791   24.889315 H          1 MOL1         0.0833
      21    C8      18.592973   20.254664   22.764332 C.3        1 MOL1        -0.1684
      22    H14     18.521405   21.350721   22.757676 H          1 MOL1         0.0833
      23    H15     17.562367   19.890609   22.874861 H          1 MOL1         0.0833
      24    O1      21.626550   16.728935   23.954911 O.3        1 MOL1        -0.5508
      25    H16     21.068633   16.194325   23.353489 H          1 MOL1         0.3780
@<TRIPOS>BOND
    1     1     2    1
    2     1     3    1
    3     1     4    1
    4     4     5    1
    5     4     6    1
    6     4     7    1
    7     7     8    1
    8     7     9    1
    9     7    10    1
   10    10    11    1
   11    10    12    1
   12    10    13    1
   13    13    14    1
   14    13    15    1
   15    15    16    1
   16    15    17    1
   17    15    18    1
   18    18    19    1
   19    18    20    1
   20     1    21    1
   21    18    21    1
   22    21    22    1
   23    21    23    1
   24    13    24    1
   25    24    25    1
@<TRIPOS>SUBSTRUCTURE
       1 MOL1            1 RESIDUE      1      MOL     
@<SCITEGIC>MOL_PROPERTY
VConf Rank
SciTegic.value.IntegerValue
113

@<SCITEGIC>MOL_PROPERTY
Conf_Id
SciTegic.value.IntegerValue
15

@<SCITEGIC>MOL_PROPERTY
Delta U+W
SciTegic.value.DoubleValue
-1.271

@<SCITEGIC>MOL_PROPERTY
U+W
SciTegic.value.DoubleValue
9.643

@<SCITEGIC>MOL_PROPERTY
Grad RMS
SciTegic.value.DoubleValue
0.000000

@<SCITEGIC>MOL_PROPERTY
U
SciTegic.value.DoubleValue
11.413

@<SCITEGIC>MOL_PROPERTY
W
SciTegic.value.DoubleValue
-1.770

@<SCITEGIC>MOL_PROPERTY
W(PB)
SciTegic.value.DoubleValue
-3.908

@<SCITEGIC>MOL_PROPERTY
W(SA)
SciTegic.value.DoubleValue
2.138

@<SCITEGIC>MOL_PROPERTY
Valence
SciTegic.value.DoubleValue
17.496

@<SCITEGIC>MOL_PROPERTY
Coulomb
SciTegic.value.DoubleValue
-8.736

@<SCITEGIC>MOL_PROPERTY
VdW
SciTegic.value.DoubleValue
2.653

@<SCITEGIC>MOL_PROPERTY
VdW6
SciTegic.value.DoubleValue
-12.485

@<SCITEGIC>MOL_PROPERTY
VdW12
SciTegic.value.DoubleValue
15.138

@<SCITEGIC>MOL_PROPERTY
Bond
SciTegic.value.DoubleValue
0.414

@<SCITEGIC>MOL_PROPERTY
Angle
SciTegic.value.DoubleValue
5.295

@<SCITEGIC>MOL_PROPERTY
Pdih
SciTegic.value.DoubleValue
11.787

@<SCITEGIC>MOL_PROPERTY
Idih
SciTegic.value.DoubleValue
0.000

@<SCITEGIC>MOL_PROPERTY
Tether
SciTegic.value.DoubleValue
0.000

@<TRIPOS>MOLECULE
guest-s17_confgen4.mol2 : confsearch ligand conformer 114
          25          25           1
SMALL
USER_CHARGES
 
@<TRIPOS>ATOM
       1    C1      21.108454   18.870106   20.922155 C.3        1 MOL1        -0.1684
       2    H1      21.664567   18.534303   20.036178 H          1 MOL1         0.0833
       3    H2      20.819259   19.904096   20.695450 H          1 MOL1         0.0833
       4    C2      19.854250   17.964597   21.039842 C.3        1 MOL1        -0.1684
       5    H3      19.199862   18.175670   20.183074 H          1 MOL1         0.0833
       6    H4      20.161548   16.915723   20.929362 H          1 MOL1         0.0833
       7    C3      19.024996   18.092792   22.340317 C.3        1 MOL1        -0.1684
       8    H5      19.520774   17.540850   23.147370 H          1 MOL1         0.0833
       9    H6      18.070443   17.570647   22.188722 H          1 MOL1         0.0833
      10    C4      18.731063   19.555735   22.763227 C.3        1 MOL1        -0.1760
      11    H7      19.028361   20.257594   21.976208 H          1 MOL1         0.0833
      12    H8      17.644005   19.678631   22.854866 H          1 MOL1         0.0833
      13    C5      19.362350   19.972484   24.111584 C.3        1 MOL1         0.1219
      14    H9      18.786352   19.486870   24.912355 H          1 MOL1         0.0790
      15    C6      20.850664   19.594046   24.326493 C.3        1 MOL1        -0.1760
      16    H10     21.182305   20.104445   25.240736 H          1 MOL1         0.0833
      17    H11     20.935927   18.526704   24.563188 H          1 MOL1         0.0833
      18    C7      21.840587   19.958718   23.188026 C.3        1 MOL1        -0.1684
      19    H12     22.811692   20.153439   23.663612 H          1 MOL1         0.0833
      20    H13     21.560588   20.904516   22.706489 H          1 MOL1         0.0833
      21    C8      22.075353   18.843893   22.131697 C.3        1 MOL1        -0.1684
      22    H14     22.089292   17.850103   22.599000 H          1 MOL1         0.0833
      23    H15     23.088496   18.991620   21.733083 H          1 MOL1         0.0833
      24    O1      19.231703   21.380770   24.246006 O.3        1 MOL1        -0.5508
      25    H16     19.831747   21.770194   23.578593 H          1 MOL1         0.3780
@<TRIPOS>BOND
    1     1     2    1
    2     1     3    1
    3     1     4    1
    4     4     5    1
    5     4     6    1
    6     4     7    1
    7     7     8    1
    8     7     9    1
    9     7    10    1
   10    10    11    1
   11    10    12    1
   12    10    13    1
   13    13    14    1
   14    13    15    1
   15    15    16    1
   16    15    17    1
   17    15    18    1
   18    18    19    1
   19    18    20    1
   20     1    21    1
   21    18    21    1
   22    21    22    1
   23    21    23    1
   24    13    24    1
   25    24    25    1
@<TRIPOS>SUBSTRUCTURE
       1 MOL1            1 RESIDUE      1      MOL     
@<SCITEGIC>MOL_PROPERTY
VConf Rank
SciTegic.value.IntegerValue
114

@<SCITEGIC>MOL_PROPERTY
Conf_Id
SciTegic.value.IntegerValue
115

@<SCITEGIC>MOL_PROPERTY
Delta U+W
SciTegic.value.DoubleValue
0.038

@<SCITEGIC>MOL_PROPERTY
U+W
SciTegic.value.DoubleValue
10.952

@<SCITEGIC>MOL_PROPERTY
Grad RMS
SciTegic.value.DoubleValue
0.000000

@<SCITEGIC>MOL_PROPERTY
U
SciTegic.value.DoubleValue
12.526

@<SCITEGIC>MOL_PROPERTY
W
SciTegic.value.DoubleValue
-1.575

@<SCITEGIC>MOL_PROPERTY
W(PB)
SciTegic.value.DoubleValue
-3.698

@<SCITEGIC>MOL_PROPERTY
W(SA)
SciTegic.value.DoubleValue
2.123

@<SCITEGIC>MOL_PROPERTY
Valence
SciTegic.value.DoubleValue
19.016

@<SCITEGIC>MOL_PROPERTY
Coulomb
SciTegic.value.DoubleValue
-9.226

@<SCITEGIC>MOL_PROPERTY
VdW
SciTegic.value.DoubleValue
2.737

@<SCITEGIC>MOL_PROPERTY
VdW6
SciTegic.value.DoubleValue
-12.612

@<SCITEGIC>MOL_PROPERTY
VdW12
SciTegic.value.DoubleValue
15.349

@<SCITEGIC>MOL_PROPERTY
Bond
SciTegic.value.DoubleValue
0.421

@<SCITEGIC>MOL_PROPERTY
Angle
SciTegic.value.DoubleValue
4.883

@<SCITEGIC>MOL_PROPERTY
Pdih
SciTegic.value.DoubleValue
13.711

@<SCITEGIC>MOL_PROPERTY
Idih
SciTegic.value.DoubleValue
0.000

@<SCITEGIC>MOL_PROPERTY
Tether
SciTegic.value.DoubleValue
0.000

@<TRIPOS>MOLECULE
guest-s17_confgen4.mol2 : confsearch ligand conformer 115
          25          25           1
SMALL
USER_CHARGES
 
@<TRIPOS>ATOM
       1    C1      21.728557   18.722959   24.192953 C.3        1 MOL1        -0.1684
       2    H1      22.690526   18.338452   24.558679 H          1 MOL1         0.0833
       3    H2      21.250189   19.193591   25.062519 H          1 MOL1         0.0833
       4    C2      20.896004   17.507874   23.721825 C.3        1 MOL1        -0.1684
       5    H3      21.434050   16.965141   22.932812 H          1 MOL1         0.0833
       6    H4      20.827973   16.808977   24.566759 H          1 MOL1         0.0833
       7    C3      19.457706   17.836174   23.258777 C.3        1 MOL1        -0.1684
       8    H5      18.998333   18.570993   23.933311 H          1 MOL1         0.0833
       9    H6      18.859085   16.921943   23.372776 H          1 MOL1         0.0833
      10    C4      19.350039   18.281733   21.775596 C.3        1 MOL1        -0.1760
      11    H7      20.275207   18.066574   21.226432 H          1 MOL1         0.0833
      12    H8      18.578008   17.660021   21.302307 H          1 MOL1         0.0833
      13    C5      18.952175   19.762135   21.580486 C.3        1 MOL1         0.1219
      14    H9      18.239772   20.045911   22.368282 H          1 MOL1         0.0790
      15    C6      20.136023   20.754493   21.593171 C.3        1 MOL1        -0.1760
      16    H10     20.827526   20.523039   20.772292 H          1 MOL1         0.0833
      17    H11     19.734060   21.752108   21.372714 H          1 MOL1         0.0833
      18    C7      20.909700   20.848429   22.930807 C.3        1 MOL1        -0.1684
      19    H12     20.211229   20.840933   23.778223 H          1 MOL1         0.0833
      20    H13     21.392111   21.835150   22.960651 H          1 MOL1         0.0833
      21    C8      22.023288   19.782903   23.105668 C.3        1 MOL1        -0.1684
      22    H14     22.939023   20.311237   23.404828 H          1 MOL1         0.0833
      23    H15     22.267722   19.296106   22.152196 H          1 MOL1         0.0833
      24    O1      18.307751   19.881995   20.317949 O.3        1 MOL1        -0.5508
      25    H16     18.015785   20.813886   20.236287 H          1 MOL1         0.3780
@<TRIPOS>BOND
    1     1     2    1
    2     1     3    1
    3     1     4    1
    4     4     5    1
    5     4     6    1
    6     4     7    1
    7     7     8    1
    8     7     9    1
    9     7    10    1
   10    10    11    1
   11    10    12    1
   12    10    13    1
   13    13    14    1
   14    13    15    1
   15    15    16    1
   16    15    17    1
   17    15    18    1
   18    18    19    1
   19    18    20    1
   20     1    21    1
   21    18    21    1
   22    21    22    1
   23    21    23    1
   24    13    24    1
   25    24    25    1
@<TRIPOS>SUBSTRUCTURE
       1 MOL1            1 RESIDUE      1      MOL     
@<SCITEGIC>MOL_PROPERTY
VConf Rank
SciTegic.value.IntegerValue
115

@<SCITEGIC>MOL_PROPERTY
Conf_Id
SciTegic.value.IntegerValue
30

@<SCITEGIC>MOL_PROPERTY
Delta U+W
SciTegic.value.DoubleValue
0.000

@<SCITEGIC>MOL_PROPERTY
U+W
SciTegic.value.DoubleValue
10.913

@<SCITEGIC>MOL_PROPERTY
Grad RMS
SciTegic.value.DoubleValue
0.000000

@<SCITEGIC>MOL_PROPERTY
U
SciTegic.value.DoubleValue
13.140

@<SCITEGIC>MOL_PROPERTY
W
SciTegic.value.DoubleValue
-2.227

@<SCITEGIC>MOL_PROPERTY
W(PB)
SciTegic.value.DoubleValue
-4.367

@<SCITEGIC>MOL_PROPERTY
W(SA)
SciTegic.value.DoubleValue
2.140

@<SCITEGIC>MOL_PROPERTY
Valence
SciTegic.value.DoubleValue
19.155

@<SCITEGIC>MOL_PROPERTY
Coulomb
SciTegic.value.DoubleValue
-8.157

@<SCITEGIC>MOL_PROPERTY
VdW
SciTegic.value.DoubleValue
2.142

@<SCITEGIC>MOL_PROPERTY
VdW6
SciTegic.value.DoubleValue
-11.576

@<SCITEGIC>MOL_PROPERTY
VdW12
SciTegic.value.DoubleValue
13.718

@<SCITEGIC>MOL_PROPERTY
Bond
SciTegic.value.DoubleValue
0.294

@<SCITEGIC>MOL_PROPERTY
Angle
SciTegic.value.DoubleValue
3.547

@<SCITEGIC>MOL_PROPERTY
Pdih
SciTegic.value.DoubleValue
15.314

@<SCITEGIC>MOL_PROPERTY
Idih
SciTegic.value.DoubleValue
0.000

@<SCITEGIC>MOL_PROPERTY
Tether
SciTegic.value.DoubleValue
0.000

@<TRIPOS>MOLECULE
guest-s17_confgen4.mol2 : confsearch ligand conformer 116
          25          25           1
SMALL
USER_CHARGES
 
@<TRIPOS>ATOM
       1    C1      18.742273   20.534837   21.952937 C.3        1 MOL1        -0.1684
       2    H1      17.962488   20.422273   21.187352 H          1 MOL1         0.0833
       3    H2      18.644784   21.563187   22.326789 H          1 MOL1         0.0833
       4    C2      20.125012   20.396449   21.269587 C.3        1 MOL1        -0.1684
       5    H3      20.099996   20.974001   20.335415 H          1 MOL1         0.0833
       6    H4      20.888823   20.891386   21.880476 H          1 MOL1         0.0833
       7    C3      20.533182   18.938401   20.938988 C.3        1 MOL1        -0.1684
       8    H5      20.756778   18.869375   19.865710 H          1 MOL1         0.0833
       9    H6      19.694413   18.250021   21.094666 H          1 MOL1         0.0833
      10    C4      21.773229   18.436269   21.721103 C.3        1 MOL1        -0.1760
      11    H7      21.866661   17.353421   21.564678 H          1 MOL1         0.0833
      12    H8      22.670431   18.883799   21.273988 H          1 MOL1         0.0833
      13    C5      21.808651   18.731993   23.241454 C.3        1 MOL1         0.1219
      14    H9      21.975646   19.806193   23.396994 H          1 MOL1         0.0790
      15    C6      20.540332   18.310241   24.022983 C.3        1 MOL1        -0.1760
      16    H10     20.082523   17.427175   23.559134 H          1 MOL1         0.0833
      17    H11     20.849585   17.983991   25.024941 H          1 MOL1         0.0833
      18    C7      19.489249   19.438192   24.224730 C.3        1 MOL1        -0.1684
      19    H12     19.974788   20.408209   24.397183 H          1 MOL1         0.0833
      20    H13     18.952885   19.211272   25.156426 H          1 MOL1         0.0833
      21    C8      18.422081   19.548670   23.107703 C.3        1 MOL1        -0.1684
      22    H14     17.485317   19.890398   23.568966 H          1 MOL1         0.0833
      23    H15     18.190024   18.552043   22.711202 H          1 MOL1         0.0833
      24    O1      22.922544   18.029590   23.780054 O.3        1 MOL1        -0.5508
      25    H16     22.986941   18.283912   24.724314 H          1 MOL1         0.3780
@<TRIPOS>BOND
    1     1     2    1
    2     1     3    1
    3     1     4    1
    4     4     5    1
    5     4     6    1
    6     4     7    1
    7     7     8    1
    8     7     9    1
    9     7    10    1
   10    10    11    1
   11    10    12    1
   12    10    13    1
   13    13    14    1
   14    13    15    1
   15    15    16    1
   16    15    17    1
   17    15    18    1
   18    18    19    1
   19    18    20    1
   20     1    21    1
   21    18    21    1
   22    21    22    1
   23    21    23    1
   24    13    24    1
   25    24    25    1
@<TRIPOS>SUBSTRUCTURE
       1 MOL1            1 RESIDUE      1      MOL     
@<SCITEGIC>MOL_PROPERTY
VConf Rank
SciTegic.value.IntegerValue
116

@<SCITEGIC>MOL_PROPERTY
Conf_Id
SciTegic.value.IntegerValue
162

@<SCITEGIC>MOL_PROPERTY
Delta U+W
SciTegic.value.DoubleValue
0.219

@<SCITEGIC>MOL_PROPERTY
U+W
SciTegic.value.DoubleValue
11.132

@<SCITEGIC>MOL_PROPERTY
Grad RMS
SciTegic.value.DoubleValue
0.000000

@<SCITEGIC>MOL_PROPERTY
U
SciTegic.value.DoubleValue
13.296

@<SCITEGIC>MOL_PROPERTY
W
SciTegic.value.DoubleValue
-2.164

@<SCITEGIC>MOL_PROPERTY
W(PB)
SciTegic.value.DoubleValue
-4.311

@<SCITEGIC>MOL_PROPERTY
W(SA)
SciTegic.value.DoubleValue
2.148

@<SCITEGIC>MOL_PROPERTY
Valence
SciTegic.value.DoubleValue
18.607

@<SCITEGIC>MOL_PROPERTY
Coulomb
SciTegic.value.DoubleValue
-8.339

@<SCITEGIC>MOL_PROPERTY
VdW
SciTegic.value.DoubleValue
3.028

@<SCITEGIC>MOL_PROPERTY
VdW6
SciTegic.value.DoubleValue
-12.271

@<SCITEGIC>MOL_PROPERTY
VdW12
SciTegic.value.DoubleValue
15.299

@<SCITEGIC>MOL_PROPERTY
Bond
SciTegic.value.DoubleValue
0.423

@<SCITEGIC>MOL_PROPERTY
Angle
SciTegic.value.DoubleValue
4.488

@<SCITEGIC>MOL_PROPERTY
Pdih
SciTegic.value.DoubleValue
13.696

@<SCITEGIC>MOL_PROPERTY
Idih
SciTegic.value.DoubleValue
0.000

@<SCITEGIC>MOL_PROPERTY
Tether
SciTegic.value.DoubleValue
0.000

@<TRIPOS>MOLECULE
guest-s17_confgen4.mol2 : confsearch ligand conformer 117
          25          25           1
SMALL
USER_CHARGES
 
@<TRIPOS>ATOM
       1    C1      20.604083   21.097642   23.357772 C.3        1 MOL1        -0.1684
       2    H1      21.359567   20.693458   24.043392 H          1 MOL1         0.0833
       3    H2      20.608468   22.180416   23.543640 H          1 MOL1         0.0833
       4    C2      21.042078   20.862662   21.890582 C.3        1 MOL1        -0.1684
       5    H3      20.180734   20.924408   21.211976 H          1 MOL1         0.0833
       6    H4      21.691274   21.704585   21.613366 H          1 MOL1         0.0833
       7    C3      21.859425   19.563972   21.643788 C.3        1 MOL1        -0.1684
       8    H5      22.535582   19.354969   22.483607 H          1 MOL1         0.0833
       9    H6      22.515664   19.760654   20.784836 H          1 MOL1         0.0833
      10    C4      21.018312   18.310637   21.287600 C.3        1 MOL1        -0.1760
      11    H7      20.135016   18.605120   20.707632 H          1 MOL1         0.0833
      12    H8      21.612479   17.691657   20.602734 H          1 MOL1         0.0833
      13    C5      20.612942   17.395131   22.470329 C.3        1 MOL1         0.1219
      14    H9      21.519794   16.886889   22.828659 H          1 MOL1         0.0790
      15    C6      19.966723   18.096041   23.689009 C.3        1 MOL1        -0.1760
      16    H10     19.541093   17.328592   24.348448 H          1 MOL1         0.0833
      17    H11     20.754468   18.564224   24.288875 H          1 MOL1         0.0833
      18    C7      18.856805   19.121176   23.335945 C.3        1 MOL1        -0.1684
      19    H12     17.930028   18.828501   23.847595 H          1 MOL1         0.0833
      20    H13     18.610937   19.079794   22.268262 H          1 MOL1         0.0833
      21    C8      19.190745   20.579132   23.734229 C.3        1 MOL1        -0.1684
      22    H14     19.066503   20.684702   24.820579 H          1 MOL1         0.0833
      23    H15     18.438300   21.239538   23.282119 H          1 MOL1         0.0833
      24    O1      19.703535   16.420348   21.973462 O.3        1 MOL1        -0.5508
      25    H16     19.456158   15.853072   22.732488 H          1 MOL1         0.3780
@<TRIPOS>BOND
    1     1     2    1
    2     1     3    1
    3     1     4    1
    4     4     5    1
    5     4     6    1
    6     4     7    1
    7     7     8    1
    8     7     9    1
    9     7    10    1
   10    10    11    1
   11    10    12    1
   12    10    13    1
   13    13    14    1
   14    13    15    1
   15    15    16    1
   16    15    17    1
   17    15    18    1
   18    18    19    1
   19    18    20    1
   20     1    21    1
   21    18    21    1
   22    21    22    1
   23    21    23    1
   24    13    24    1
   25    24    25    1
@<TRIPOS>SUBSTRUCTURE
       1 MOL1            1 RESIDUE      1      MOL     
@<SCITEGIC>MOL_PROPERTY
VConf Rank
SciTegic.value.IntegerValue
117

@<SCITEGIC>MOL_PROPERTY
Conf_Id
SciTegic.value.IntegerValue
155

@<SCITEGIC>MOL_PROPERTY
Delta U+W
SciTegic.value.DoubleValue
0.339

@<SCITEGIC>MOL_PROPERTY
U+W
SciTegic.value.DoubleValue
11.252

@<SCITEGIC>MOL_PROPERTY
Grad RMS
SciTegic.value.DoubleValue
0.000000

@<SCITEGIC>MOL_PROPERTY
U
SciTegic.value.DoubleValue
13.420

@<SCITEGIC>MOL_PROPERTY
W
SciTegic.value.DoubleValue
-2.167

@<SCITEGIC>MOL_PROPERTY
W(PB)
SciTegic.value.DoubleValue
-4.325

@<SCITEGIC>MOL_PROPERTY
W(SA)
SciTegic.value.DoubleValue
2.157

@<SCITEGIC>MOL_PROPERTY
Valence
SciTegic.value.DoubleValue
18.609

@<SCITEGIC>MOL_PROPERTY
Coulomb
SciTegic.value.DoubleValue
-8.052

@<SCITEGIC>MOL_PROPERTY
VdW
SciTegic.value.DoubleValue
2.863

@<SCITEGIC>MOL_PROPERTY
VdW6
SciTegic.value.DoubleValue
-12.524

@<SCITEGIC>MOL_PROPERTY
VdW12
SciTegic.value.DoubleValue
15.387

@<SCITEGIC>MOL_PROPERTY
Bond
SciTegic.value.DoubleValue
0.430

@<SCITEGIC>MOL_PROPERTY
Angle
SciTegic.value.DoubleValue
4.724

@<SCITEGIC>MOL_PROPERTY
Pdih
SciTegic.value.DoubleValue
13.455

@<SCITEGIC>MOL_PROPERTY
Idih
SciTegic.value.DoubleValue
0.000

@<SCITEGIC>MOL_PROPERTY
Tether
SciTegic.value.DoubleValue
0.000

@<TRIPOS>MOLECULE
guest-s17_confgen4.mol2 : confsearch ligand conformer 118
          25          25           1
SMALL
USER_CHARGES
 
@<TRIPOS>ATOM
       1    C1      22.347860   19.219591   22.467690 C.3        1 MOL1        -0.1684
       2    H1      22.902373   19.062601   23.402681 H          1 MOL1         0.0833
       3    H2      23.113821   19.313265   21.685826 H          1 MOL1         0.0833
       4    C2      21.524484   17.945753   22.141791 C.3        1 MOL1        -0.1684
       5    H3      21.064956   18.055114   21.154363 H          1 MOL1         0.0833
       6    H4      22.233809   17.118240   22.004691 H          1 MOL1         0.0833
       7    C3      20.474824   17.478680   23.192158 C.3        1 MOL1        -0.1684
       8    H5      20.998097   16.844592   23.920629 H          1 MOL1         0.0833
       9    H6      19.746618   16.820268   22.699278 H          1 MOL1         0.0833
      10    C4      19.713185   18.564488   24.000138 C.3        1 MOL1        -0.1760
      11    H7      19.133118   18.048835   24.776619 H          1 MOL1         0.0833
      12    H8      20.431787   19.153181   24.577030 H          1 MOL1         0.0833
      13    C5      18.742777   19.504292   23.225941 C.3        1 MOL1         0.1219
      14    H9      18.627418   20.425356   23.815094 H          1 MOL1         0.0790
      15    C6      19.131489   19.908684   21.781673 C.3        1 MOL1        -0.1760
      16    H10     19.189835   19.008998   21.162253 H          1 MOL1         0.0833
      17    H11     18.284683   20.462259   21.354940 H          1 MOL1         0.0833
      18    C7      20.397159   20.797181   21.589434 C.3        1 MOL1        -0.1684
      19    H12     20.083571   21.844280   21.699361 H          1 MOL1         0.0833
      20    H13     20.742780   20.702812   20.551184 H          1 MOL1         0.0833
      21    C8      21.597370   20.581278   22.548375 C.3        1 MOL1        -0.1684
      22    H14     21.284491   20.793244   23.575582 H          1 MOL1         0.0833
      23    H15     22.334753   21.368001   22.338105 H          1 MOL1         0.0833
      24    O1      17.477788   18.856282   23.148030 O.3        1 MOL1        -0.5508
      25    H16     17.209677   18.647596   24.066620 H          1 MOL1         0.3780
@<TRIPOS>BOND
    1     1     2    1
    2     1     3    1
    3     1     4    1
    4     4     5    1
    5     4     6    1
    6     4     7    1
    7     7     8    1
    8     7     9    1
    9     7    10    1
   10    10    11    1
   11    10    12    1
   12    10    13    1
   13    13    14    1
   14    13    15    1
   15    15    16    1
   16    15    17    1
   17    15    18    1
   18    18    19    1
   19    18    20    1
   20     1    21    1
   21    18    21    1
   22    21    22    1
   23    21    23    1
   24    13    24    1
   25    24    25    1
@<TRIPOS>SUBSTRUCTURE
       1 MOL1            1 RESIDUE      1      MOL     
@<SCITEGIC>MOL_PROPERTY
VConf Rank
SciTegic.value.IntegerValue
118

@<SCITEGIC>MOL_PROPERTY
Conf_Id
SciTegic.value.IntegerValue
146

@<SCITEGIC>MOL_PROPERTY
Delta U+W
SciTegic.value.DoubleValue
2.553

@<SCITEGIC>MOL_PROPERTY
U+W
SciTegic.value.DoubleValue
13.466

@<SCITEGIC>MOL_PROPERTY
Grad RMS
SciTegic.value.DoubleValue
0.000000

@<SCITEGIC>MOL_PROPERTY
U
SciTegic.value.DoubleValue
15.643

@<SCITEGIC>MOL_PROPERTY
W
SciTegic.value.DoubleValue
-2.176

@<SCITEGIC>MOL_PROPERTY
W(PB)
SciTegic.value.DoubleValue
-4.307

@<SCITEGIC>MOL_PROPERTY
W(SA)
SciTegic.value.DoubleValue
2.131

@<SCITEGIC>MOL_PROPERTY
Valence
SciTegic.value.DoubleValue
18.916

@<SCITEGIC>MOL_PROPERTY
Coulomb
SciTegic.value.DoubleValue
-7.506

@<SCITEGIC>MOL_PROPERTY
VdW
SciTegic.value.DoubleValue
4.232

@<SCITEGIC>MOL_PROPERTY
VdW6
SciTegic.value.DoubleValue
-13.632

@<SCITEGIC>MOL_PROPERTY
VdW12
SciTegic.value.DoubleValue
17.864

@<SCITEGIC>MOL_PROPERTY
Bond
SciTegic.value.DoubleValue
0.735

@<SCITEGIC>MOL_PROPERTY
Angle
SciTegic.value.DoubleValue
9.140

@<SCITEGIC>MOL_PROPERTY
Pdih
SciTegic.value.DoubleValue
9.042

@<SCITEGIC>MOL_PROPERTY
Idih
SciTegic.value.DoubleValue
0.000

@<SCITEGIC>MOL_PROPERTY
Tether
SciTegic.value.DoubleValue
0.000

@<TRIPOS>MOLECULE
guest-s17_confgen4.mol2 : confsearch ligand conformer 119
          25          25           1
SMALL
USER_CHARGES
 
@<TRIPOS>ATOM
       1    C1      19.502145   21.156812   22.657295 C.3        1 MOL1        -0.1684
       2    H1      19.846828   21.947064   21.976708 H          1 MOL1         0.0833
       3    H2      18.703628   21.611832   23.259159 H          1 MOL1         0.0833
       4    C2      20.651419   20.777936   23.624644 C.3        1 MOL1        -0.1684
       5    H3      20.908265   21.681042   24.194934 H          1 MOL1         0.0833
       6    H4      20.295712   20.067381   24.379449 H          1 MOL1         0.0833
       7    C3      21.956160   20.263944   22.965974 C.3        1 MOL1        -0.1684
       8    H5      22.705865   20.151424   23.761123 H          1 MOL1         0.0833
       9    H6      22.351006   21.035705   22.291493 H          1 MOL1         0.0833
      10    C4      21.873581   18.918709   22.198363 C.3        1 MOL1        -0.1760
      11    H7      21.479243   19.079750   21.190080 H          1 MOL1         0.0833
      12    H8      22.904420   18.574988   22.037857 H          1 MOL1         0.0833
      13    C5      21.072699   17.800493   22.914085 C.3        1 MOL1         0.1219
      14    H9      21.000620   18.027693   23.986199 H          1 MOL1         0.0790
      15    C6      19.650868   17.573132   22.340965 C.3        1 MOL1        -0.1760
      16    H10     19.723633   17.378906   21.262679 H          1 MOL1         0.0833
      17    H11     19.251146   16.650653   22.782096 H          1 MOL1         0.0833
      18    C7      18.605791   18.694294   22.590792 C.3        1 MOL1        -0.1684
      19    H12     18.484434   18.881602   23.665496 H          1 MOL1         0.0833
      20    H13     17.633817   18.306643   22.256166 H          1 MOL1         0.0833
      21    C8      18.870350   20.014093   21.820971 C.3        1 MOL1        -0.1684
      22    H14     17.909060   20.386400   21.441042 H          1 MOL1         0.0833
      23    H15     19.463146   19.821772   20.919622 H          1 MOL1         0.0833
      24    O1      21.788888   16.579681   22.765631 O.3        1 MOL1        -0.5508
      25    H16     21.298371   15.899948   23.273151 H          1 MOL1         0.3780
@<TRIPOS>BOND
    1     1     2    1
    2     1     3    1
    3     1     4    1
    4     4     5    1
    5     4     6    1
    6     4     7    1
    7     7     8    1
    8     7     9    1
    9     7    10    1
   10    10    11    1
   11    10    12    1
   12    10    13    1
   13    13    14    1
   14    13    15    1
   15    15    16    1
   16    15    17    1
   17    15    18    1
   18    18    19    1
   19    18    20    1
   20     1    21    1
   21    18    21    1
   22    21    22    1
   23    21    23    1
   24    13    24    1
   25    24    25    1
@<TRIPOS>SUBSTRUCTURE
       1 MOL1            1 RESIDUE      1      MOL     
@<SCITEGIC>MOL_PROPERTY
VConf Rank
SciTegic.value.IntegerValue
119

@<SCITEGIC>MOL_PROPERTY
Conf_Id
SciTegic.value.IntegerValue
62

@<SCITEGIC>MOL_PROPERTY
Delta U+W
SciTegic.value.DoubleValue
-1.779

@<SCITEGIC>MOL_PROPERTY
U+W
SciTegic.value.DoubleValue
9.134

@<SCITEGIC>MOL_PROPERTY
Grad RMS
SciTegic.value.DoubleValue
0.000000

@<SCITEGIC>MOL_PROPERTY
U
SciTegic.value.DoubleValue
11.364

@<SCITEGIC>MOL_PROPERTY
W
SciTegic.value.DoubleValue
-2.230

@<SCITEGIC>MOL_PROPERTY
W(PB)
SciTegic.value.DoubleValue
-4.359

@<SCITEGIC>MOL_PROPERTY
W(SA)
SciTegic.value.DoubleValue
2.129

@<SCITEGIC>MOL_PROPERTY
Valence
SciTegic.value.DoubleValue
16.582

@<SCITEGIC>MOL_PROPERTY
Coulomb
SciTegic.value.DoubleValue
-8.150

@<SCITEGIC>MOL_PROPERTY
VdW
SciTegic.value.DoubleValue
2.933

@<SCITEGIC>MOL_PROPERTY
VdW6
SciTegic.value.DoubleValue
-12.531

@<SCITEGIC>MOL_PROPERTY
VdW12
SciTegic.value.DoubleValue
15.464

@<SCITEGIC>MOL_PROPERTY
Bond
SciTegic.value.DoubleValue
0.439

@<SCITEGIC>MOL_PROPERTY
Angle
SciTegic.value.DoubleValue
5.099

@<SCITEGIC>MOL_PROPERTY
Pdih
SciTegic.value.DoubleValue
11.044

@<SCITEGIC>MOL_PROPERTY
Idih
SciTegic.value.DoubleValue
0.000

@<SCITEGIC>MOL_PROPERTY
Tether
SciTegic.value.DoubleValue
0.000

@<TRIPOS>MOLECULE
guest-s17_confgen4.mol2 : confsearch ligand conformer 120
          25          25           1
SMALL
USER_CHARGES
 
@<TRIPOS>ATOM
       1    C1      19.562872   20.852946   22.983621 C.3        1 MOL1        -0.1684
       2    H1      19.228821   20.578934   21.976422 H          1 MOL1         0.0833
       3    H2      19.108317   21.835842   23.167835 H          1 MOL1         0.0833
       4    C2      21.099823   21.044694   23.009490 C.3        1 MOL1        -0.1684
       5    H3      21.343243   21.846127   22.298618 H          1 MOL1         0.0833
       6    H4      21.401947   21.421135   23.996155 H          1 MOL1         0.0833
       7    C3      21.971506   19.813724   22.652277 C.3        1 MOL1        -0.1684
       8    H5      22.102663   19.168007   23.527971 H          1 MOL1         0.0833
       9    H6      22.981523   20.185529   22.431705 H          1 MOL1         0.0833
      10    C4      21.482561   18.986139   21.433527 C.3        1 MOL1        -0.1760
      11    H7      20.867106   19.597870   20.762519 H          1 MOL1         0.0833
      12    H8      22.370775   18.717559   20.846769 H          1 MOL1         0.0833
      13    C5      20.750095   17.668221   21.791269 C.3        1 MOL1         0.1219
      14    H9      21.393914   17.089095   22.468832 H          1 MOL1         0.0790
      15    C6      19.358316   17.812462   22.456141 C.3        1 MOL1        -0.1760
      16    H10     18.682615   18.388738   21.812617 H          1 MOL1         0.0833
      17    H11     18.921464   16.806182   22.504835 H          1 MOL1         0.0833
      18    C7      19.376862   18.379870   23.900880 C.3        1 MOL1        -0.1684
      19    H12     20.348986   18.197588   24.372785 H          1 MOL1         0.0833
      20    H13     18.665291   17.801113   24.505575 H          1 MOL1         0.0833
      21    C8      18.979381   19.872479   24.031449 C.3        1 MOL1        -0.1684
      22    H14     19.237164   20.223222   25.039919 H          1 MOL1         0.0833
      23    H15     17.884529   19.935039   23.966138 H          1 MOL1         0.0833
      24    O1      20.574659   16.931643   20.587483 O.3        1 MOL1        -0.5508
      25    H16     21.467759   16.787576   20.210966 H          1 MOL1         0.3780
@<TRIPOS>BOND
    1     1     2    1
    2     1     3    1
    3     1     4    1
    4     4     5    1
    5     4     6    1
    6     4     7    1
    7     7     8    1
    8     7     9    1
    9     7    10    1
   10    10    11    1
   11    10    12    1
   12    10    13    1
   13    13    14    1
   14    13    15    1
   15    15    16    1
   16    15    17    1
   17    15    18    1
   18    18    19    1
   19    18    20    1
   20     1    21    1
   21    18    21    1
   22    21    22    1
   23    21    23    1
   24    13    24    1
   25    24    25    1
@<TRIPOS>SUBSTRUCTURE
       1 MOL1            1 RESIDUE      1      MOL     
@<SCITEGIC>MOL_PROPERTY
VConf Rank
SciTegic.value.IntegerValue
120

@<SCITEGIC>MOL_PROPERTY
Conf_Id
SciTegic.value.IntegerValue
121

@<SCITEGIC>MOL_PROPERTY
Delta U+W
SciTegic.value.DoubleValue
-1.283

@<SCITEGIC>MOL_PROPERTY
U+W
SciTegic.value.DoubleValue
9.630

@<SCITEGIC>MOL_PROPERTY
Grad RMS
SciTegic.value.DoubleValue
0.000000

@<SCITEGIC>MOL_PROPERTY
U
SciTegic.value.DoubleValue
11.876

@<SCITEGIC>MOL_PROPERTY
W
SciTegic.value.DoubleValue
-2.246

@<SCITEGIC>MOL_PROPERTY
W(PB)
SciTegic.value.DoubleValue
-4.376

@<SCITEGIC>MOL_PROPERTY
W(SA)
SciTegic.value.DoubleValue
2.130

@<SCITEGIC>MOL_PROPERTY
Valence
SciTegic.value.DoubleValue
17.153

@<SCITEGIC>MOL_PROPERTY
Coulomb
SciTegic.value.DoubleValue
-7.966

@<SCITEGIC>MOL_PROPERTY
VdW
SciTegic.value.DoubleValue
2.689

@<SCITEGIC>MOL_PROPERTY
VdW6
SciTegic.value.DoubleValue
-12.458

@<SCITEGIC>MOL_PROPERTY
VdW12
SciTegic.value.DoubleValue
15.147

@<SCITEGIC>MOL_PROPERTY
Bond
SciTegic.value.DoubleValue
0.421

@<SCITEGIC>MOL_PROPERTY
Angle
SciTegic.value.DoubleValue
5.258

@<SCITEGIC>MOL_PROPERTY
Pdih
SciTegic.value.DoubleValue
11.475

@<SCITEGIC>MOL_PROPERTY
Idih
SciTegic.value.DoubleValue
0.000

@<SCITEGIC>MOL_PROPERTY
Tether
SciTegic.value.DoubleValue
0.000

@<TRIPOS>MOLECULE
guest-s17_confgen4.mol2 : confsearch ligand conformer 121
          25          25           1
SMALL
USER_CHARGES
 
@<TRIPOS>ATOM
       1    C1      21.235176   20.366299   23.878427 C.3        1 MOL1        -0.1684
       2    H1      20.325079   20.921842   23.625014 H          1 MOL1         0.0833
       3    H2      21.755928   21.005183   24.604570 H          1 MOL1         0.0833
       4    C2      22.152867   20.238140   22.637000 C.3        1 MOL1        -0.1684
       5    H3      22.409258   21.255564   22.311431 H          1 MOL1         0.0833
       6    H4      23.102674   19.773286   22.934084 H          1 MOL1         0.0833
       7    C3      21.582446   19.478736   21.411908 C.3        1 MOL1        -0.1684
       8    H5      21.712563   18.397521   21.534347 H          1 MOL1         0.0833
       9    H6      22.212911   19.735228   20.549543 H          1 MOL1         0.0833
      10    C4      20.109891   19.812298   21.051506 C.3        1 MOL1        -0.1760
      11    H7      19.826781   20.805559   21.420382 H          1 MOL1         0.0833
      12    H8      20.048173   19.882832   19.957419 H          1 MOL1         0.0833
      13    C5      19.070931   18.751954   21.494392 C.3        1 MOL1         0.1219
      14    H9      19.393996   17.774782   21.107423 H          1 MOL1         0.0790
      15    C6      18.832878   18.615794   23.019573 C.3        1 MOL1        -0.1760
      16    H10     18.515471   19.575260   23.446106 H          1 MOL1         0.0833
      17    H11     17.978118   17.940841   23.158018 H          1 MOL1         0.0833
      18    C7      20.023141   18.017181   23.815968 C.3        1 MOL1        -0.1684
      19    H12     20.658099   17.410391   23.160508 H          1 MOL1         0.0833
      20    H13     19.621794   17.302563   24.547586 H          1 MOL1         0.0833
      21    C8      20.877183   19.044347   24.602264 C.3        1 MOL1        -0.1684
      22    H14     21.800174   18.555029   24.941603 H          1 MOL1         0.0833
      23    H15     20.327699   19.308241   25.516219 H          1 MOL1         0.0833
      24    O1      17.828458   19.093251   20.892560 O.3        1 MOL1        -0.5508
      25    H16     17.196874   18.380452   21.123145 H          1 MOL1         0.3780
@<TRIPOS>BOND
    1     1     2    1
    2     1     3    1
    3     1     4    1
    4     4     5    1
    5     4     6    1
    6     4     7    1
    7     7     8    1
    8     7     9    1
    9     7    10    1
   10    10    11    1
   11    10    12    1
   12    10    13    1
   13    13    14    1
   14    13    15    1
   15    15    16    1
   16    15    17    1
   17    15    18    1
   18    18    19    1
   19    18    20    1
   20     1    21    1
   21    18    21    1
   22    21    22    1
   23    21    23    1
   24    13    24    1
   25    24    25    1
@<TRIPOS>SUBSTRUCTURE
       1 MOL1            1 RESIDUE      1      MOL     
@<SCITEGIC>MOL_PROPERTY
VConf Rank
SciTegic.value.IntegerValue
121

@<SCITEGIC>MOL_PROPERTY
Conf_Id
SciTegic.value.IntegerValue
24

@<SCITEGIC>MOL_PROPERTY
Delta U+W
SciTegic.value.DoubleValue
-1.236

@<SCITEGIC>MOL_PROPERTY
U+W
SciTegic.value.DoubleValue
9.678

@<SCITEGIC>MOL_PROPERTY
Grad RMS
SciTegic.value.DoubleValue
0.000000

@<SCITEGIC>MOL_PROPERTY
U
SciTegic.value.DoubleValue
11.876

@<SCITEGIC>MOL_PROPERTY
W
SciTegic.value.DoubleValue
-2.199

@<SCITEGIC>MOL_PROPERTY
W(PB)
SciTegic.value.DoubleValue
-4.335

@<SCITEGIC>MOL_PROPERTY
W(SA)
SciTegic.value.DoubleValue
2.137

@<SCITEGIC>MOL_PROPERTY
Valence
SciTegic.value.DoubleValue
17.153

@<SCITEGIC>MOL_PROPERTY
Coulomb
SciTegic.value.DoubleValue
-7.966

@<SCITEGIC>MOL_PROPERTY
VdW
SciTegic.value.DoubleValue
2.689

@<SCITEGIC>MOL_PROPERTY
VdW6
SciTegic.value.DoubleValue
-12.458

@<SCITEGIC>MOL_PROPERTY
VdW12
SciTegic.value.DoubleValue
15.147

@<SCITEGIC>MOL_PROPERTY
Bond
SciTegic.value.DoubleValue
0.421

@<SCITEGIC>MOL_PROPERTY
Angle
SciTegic.value.DoubleValue
5.258

@<SCITEGIC>MOL_PROPERTY
Pdih
SciTegic.value.DoubleValue
11.475

@<SCITEGIC>MOL_PROPERTY
Idih
SciTegic.value.DoubleValue
0.000

@<SCITEGIC>MOL_PROPERTY
Tether
SciTegic.value.DoubleValue
0.000

@<TRIPOS>MOLECULE
guest-s17_confgen4.mol2 : confsearch ligand conformer 122
          25          25           1
SMALL
USER_CHARGES
 
@<TRIPOS>ATOM
       1    C1      20.639760   21.167538   21.904704 C.3        1 MOL1        -0.1684
       2    H1      21.076672   21.964426   22.521838 H          1 MOL1         0.0833
       3    H2      20.410997   21.633364   20.936444 H          1 MOL1         0.0833
       4    C2      21.712952   20.072359   21.665864 C.3        1 MOL1        -0.1684
       5    H3      21.438443   19.442270   20.810338 H          1 MOL1         0.0833
       6    H4      22.630473   20.587559   21.349968 H          1 MOL1         0.0833
       7    C3      22.061796   19.184925   22.886285 C.3        1 MOL1        -0.1684
       8    H5      22.005288   19.763524   23.818211 H          1 MOL1         0.0833
       9    H6      23.118469   18.902099   22.783068 H          1 MOL1         0.0833
      10    C4      21.249907   17.863247   22.995529 C.3        1 MOL1        -0.1760
      11    H7      21.058860   17.439045   22.001531 H          1 MOL1         0.0833
      12    H8      21.899041   17.138190   23.505301 H          1 MOL1         0.0833
      13    C5      19.933407   17.969047   23.803434 C.3        1 MOL1         0.1219
      14    H9      20.046635   18.764105   24.552258 H          1 MOL1         0.0790
      15    C6      18.658321   18.234537   22.963507 C.3        1 MOL1        -0.1760
      16    H10     18.395679   17.327582   22.403309 H          1 MOL1         0.0833
      17    H11     17.829793   18.407856   23.662880 H          1 MOL1         0.0833
      18    C7      18.711309   19.419820   21.967044 C.3        1 MOL1        -0.1684
      19    H12     17.686724   19.626833   21.629212 H          1 MOL1         0.0833
      20    H13     19.248474   19.117103   21.060673 H          1 MOL1         0.0833
      21    C8      19.310966   20.719354   22.561159 C.3        1 MOL1        -0.1684
      22    H14     19.447093   20.631923   23.645356 H          1 MOL1         0.0833
      23    H15     18.581295   21.531232   22.437445 H          1 MOL1         0.0833
      24    O1      19.734060   16.743324   24.495947 O.3        1 MOL1        -0.5508
      25    H16     19.656451   16.047664   23.811106 H          1 MOL1         0.3780
@<TRIPOS>BOND
    1     1     2    1
    2     1     3    1
    3     1     4    1
    4     4     5    1
    5     4     6    1
    6     4     7    1
    7     7     8    1
    8     7     9    1
    9     7    10    1
   10    10    11    1
   11    10    12    1
   12    10    13    1
   13    13    14    1
   14    13    15    1
   15    15    16    1
   16    15    17    1
   17    15    18    1
   18    18    19    1
   19    18    20    1
   20     1    21    1
   21    18    21    1
   22    21    22    1
   23    21    23    1
   24    13    24    1
   25    24    25    1
@<TRIPOS>SUBSTRUCTURE
       1 MOL1            1 RESIDUE      1      MOL     
@<SCITEGIC>MOL_PROPERTY
VConf Rank
SciTegic.value.IntegerValue
122

@<SCITEGIC>MOL_PROPERTY
Conf_Id
SciTegic.value.IntegerValue
167

@<SCITEGIC>MOL_PROPERTY
Delta U+W
SciTegic.value.DoubleValue
0.388

@<SCITEGIC>MOL_PROPERTY
U+W
SciTegic.value.DoubleValue
11.301

@<SCITEGIC>MOL_PROPERTY
Grad RMS
SciTegic.value.DoubleValue
0.000000

@<SCITEGIC>MOL_PROPERTY
U
SciTegic.value.DoubleValue
13.202

@<SCITEGIC>MOL_PROPERTY
W
SciTegic.value.DoubleValue
-1.901

@<SCITEGIC>MOL_PROPERTY
W(PB)
SciTegic.value.DoubleValue
-4.065

@<SCITEGIC>MOL_PROPERTY
W(SA)
SciTegic.value.DoubleValue
2.163

@<SCITEGIC>MOL_PROPERTY
Valence
SciTegic.value.DoubleValue
18.957

@<SCITEGIC>MOL_PROPERTY
Coulomb
SciTegic.value.DoubleValue
-8.753

@<SCITEGIC>MOL_PROPERTY
VdW
SciTegic.value.DoubleValue
2.998

@<SCITEGIC>MOL_PROPERTY
VdW6
SciTegic.value.DoubleValue
-12.294

@<SCITEGIC>MOL_PROPERTY
VdW12
SciTegic.value.DoubleValue
15.292

@<SCITEGIC>MOL_PROPERTY
Bond
SciTegic.value.DoubleValue
0.419

@<SCITEGIC>MOL_PROPERTY
Angle
SciTegic.value.DoubleValue
4.543

@<SCITEGIC>MOL_PROPERTY
Pdih
SciTegic.value.DoubleValue
13.996

@<SCITEGIC>MOL_PROPERTY
Idih
SciTegic.value.DoubleValue
0.000

@<SCITEGIC>MOL_PROPERTY
Tether
SciTegic.value.DoubleValue
0.000

@<TRIPOS>MOLECULE
guest-s17_confgen4.mol2 : confsearch ligand conformer 123
          25          25           1
SMALL
USER_CHARGES
 
@<TRIPOS>ATOM
       1    C1      18.336354   19.601920   23.144517 C.3        1 MOL1        -0.1684
       2    H1      17.513145   19.153688   22.571876 H          1 MOL1         0.0833
       3    H2      17.858042   20.181589   23.945841 H          1 MOL1         0.0833
       4    C2      19.098474   20.598082   22.232301 C.3        1 MOL1        -0.1684
       5    H3      19.212236   20.188097   21.222462 H          1 MOL1         0.0833
       6    H4      18.448925   21.474080   22.099085 H          1 MOL1         0.0833
       7    C3      20.464505   21.090081   22.777040 C.3        1 MOL1        -0.1684
       8    H5      20.496574   21.031890   23.872648 H          1 MOL1         0.0833
       9    H6      20.546510   22.160603   22.544308 H          1 MOL1         0.0833
      10    C4      21.704566   20.394600   22.151898 C.3        1 MOL1        -0.1760
      11    H7      21.671072   20.501426   21.059786 H          1 MOL1         0.0833
      12    H8      22.593829   20.951012   22.476558 H          1 MOL1         0.0833
      13    C5      21.926364   18.904357   22.511605 C.3        1 MOL1         0.1219
      14    H9      21.926760   18.794842   23.604382 H          1 MOL1         0.0790
      15    C6      20.883989   17.940541   21.887715 C.3        1 MOL1        -0.1760
      16    H10     20.418296   18.404900   21.012630 H          1 MOL1         0.0833
      17    H11     21.396940   17.056680   21.485700 H          1 MOL1         0.0833
      18    C7      19.794739   17.430691   22.866668 C.3        1 MOL1        -0.1684
      19    H12     20.242173   16.644321   23.489861 H          1 MOL1         0.0833
      20    H13     19.000160   16.937708   22.290331 H          1 MOL1         0.0833
      21    C8      19.162222   18.477301   23.818193 C.3        1 MOL1        -0.1684
      22    H14     19.923653   18.907626   24.478642 H          1 MOL1         0.0833
      23    H15     18.485356   17.936216   24.493399 H          1 MOL1         0.0833
      24    O1      23.214260   18.539714   22.029402 O.3        1 MOL1        -0.5508
      25    H16     23.372864   17.617879   22.321947 H          1 MOL1         0.3780
@<TRIPOS>BOND
    1     1     2    1
    2     1     3    1
    3     1     4    1
    4     4     5    1
    5     4     6    1
    6     4     7    1
    7     7     8    1
    8     7     9    1
    9     7    10    1
   10    10    11    1
   11    10    12    1
   12    10    13    1
   13    13    14    1
   14    13    15    1
   15    15    16    1
   16    15    17    1
   17    15    18    1
   18    18    19    1
   19    18    20    1
   20     1    21    1
   21    18    21    1
   22    21    22    1
   23    21    23    1
   24    13    24    1
   25    24    25    1
@<TRIPOS>SUBSTRUCTURE
       1 MOL1            1 RESIDUE      1      MOL     
@<SCITEGIC>MOL_PROPERTY
VConf Rank
SciTegic.value.IntegerValue
123

@<SCITEGIC>MOL_PROPERTY
Conf_Id
SciTegic.value.IntegerValue
60

@<SCITEGIC>MOL_PROPERTY
Delta U+W
SciTegic.value.DoubleValue
-1.838

@<SCITEGIC>MOL_PROPERTY
U+W
SciTegic.value.DoubleValue
9.075

@<SCITEGIC>MOL_PROPERTY
Grad RMS
SciTegic.value.DoubleValue
0.000000

@<SCITEGIC>MOL_PROPERTY
U
SciTegic.value.DoubleValue
11.150

@<SCITEGIC>MOL_PROPERTY
W
SciTegic.value.DoubleValue
-2.074

@<SCITEGIC>MOL_PROPERTY
W(PB)
SciTegic.value.DoubleValue
-4.196

@<SCITEGIC>MOL_PROPERTY
W(SA)
SciTegic.value.DoubleValue
2.121

@<SCITEGIC>MOL_PROPERTY
Valence
SciTegic.value.DoubleValue
16.582

@<SCITEGIC>MOL_PROPERTY
Coulomb
SciTegic.value.DoubleValue
-8.361

@<SCITEGIC>MOL_PROPERTY
VdW
SciTegic.value.DoubleValue
2.928

@<SCITEGIC>MOL_PROPERTY
VdW6
SciTegic.value.DoubleValue
-12.539

@<SCITEGIC>MOL_PROPERTY
VdW12
SciTegic.value.DoubleValue
15.467

@<SCITEGIC>MOL_PROPERTY
Bond
SciTegic.value.DoubleValue
0.441

@<SCITEGIC>MOL_PROPERTY
Angle
SciTegic.value.DoubleValue
5.093

@<SCITEGIC>MOL_PROPERTY
Pdih
SciTegic.value.DoubleValue
11.049

@<SCITEGIC>MOL_PROPERTY
Idih
SciTegic.value.DoubleValue
0.000

@<SCITEGIC>MOL_PROPERTY
Tether
SciTegic.value.DoubleValue
0.000

@<TRIPOS>MOLECULE
guest-s17_confgen4.mol2 : confsearch ligand conformer 124
          25          25           1
SMALL
USER_CHARGES
 
@<TRIPOS>ATOM
       1    C1      19.976834   21.222320   22.709590 C.3        1 MOL1        -0.1684
       2    H1      20.611008   21.924928   22.152213 H          1 MOL1         0.0833
       3    H2      19.244150   21.843802   23.242369 H          1 MOL1         0.0833
       4    C2      20.833042   20.498819   23.779224 C.3        1 MOL1        -0.1684
       5    H3      21.226600   21.268915   24.456635 H          1 MOL1         0.0833
       6    H4      20.197716   19.871697   24.415012 H          1 MOL1         0.0833
       7    C3      22.044197   19.689157   23.251569 C.3        1 MOL1        -0.1684
       8    H5      22.612509   19.337399   24.123482 H          1 MOL1         0.0833
       9    H6      22.720558   20.361919   22.707071 H          1 MOL1         0.0833
      10    C4      21.731197   18.460149   22.359196 C.3        1 MOL1        -0.1760
      11    H7      21.539239   18.779468   21.329894 H          1 MOL1         0.0833
      12    H8      22.652339   17.866058   22.292147 H          1 MOL1         0.0833
      13    C5      20.572121   17.562111   22.863967 C.3        1 MOL1         0.1219
      14    H9      20.397118   17.746425   23.932403 H          1 MOL1         0.0790
      15    C6      19.242446   17.752670   22.092568 C.3        1 MOL1        -0.1760
      16    H10     19.422082   17.601022   21.020199 H          1 MOL1         0.0833
      17    H11     18.563226   16.944971   22.395991 H          1 MOL1         0.0833
      18    C7      18.494201   19.096887   22.305780 C.3        1 MOL1        -0.1684
      19    H12     18.266868   19.251633   23.368391 H          1 MOL1         0.0833
      20    H13     17.516315   19.000466   21.814509 H          1 MOL1         0.0833
      21    C8      19.199661   20.337954   21.700034 C.3        1 MOL1        -0.1684
      22    H14     18.432629   20.974736   21.238295 H          1 MOL1         0.0833
      23    H15     19.846619   20.043675   20.865978 H          1 MOL1         0.0833
      24    O1      20.961485   16.202737   22.706917 O.3        1 MOL1        -0.5508
      25    H16     21.764555   16.075770   23.254158 H          1 MOL1         0.3780
@<TRIPOS>BOND
    1     1     2    1
    2     1     3    1
    3     1     4    1
    4     4     5    1
    5     4     6    1
    6     4     7    1
    7     7     8    1
    8     7     9    1
    9     7    10    1
   10    10    11    1
   11    10    12    1
   12    10    13    1
   13    13    14    1
   14    13    15    1
   15    15    16    1
   16    15    17    1
   17    15    18    1
   18    18    19    1
   19    18    20    1
   20     1    21    1
   21    18    21    1
   22    21    22    1
   23    21    23    1
   24    13    24    1
   25    24    25    1
@<TRIPOS>SUBSTRUCTURE
       1 MOL1            1 RESIDUE      1      MOL     
@<SCITEGIC>MOL_PROPERTY
VConf Rank
SciTegic.value.IntegerValue
124

@<SCITEGIC>MOL_PROPERTY
Conf_Id
SciTegic.value.IntegerValue
129

@<SCITEGIC>MOL_PROPERTY
Delta U+W
SciTegic.value.DoubleValue
-1.846

@<SCITEGIC>MOL_PROPERTY
U+W
SciTegic.value.DoubleValue
9.067

@<SCITEGIC>MOL_PROPERTY
Grad RMS
SciTegic.value.DoubleValue
0.000000

@<SCITEGIC>MOL_PROPERTY
U
SciTegic.value.DoubleValue
11.150

@<SCITEGIC>MOL_PROPERTY
W
SciTegic.value.DoubleValue
-2.083

@<SCITEGIC>MOL_PROPERTY
W(PB)
SciTegic.value.DoubleValue
-4.217

@<SCITEGIC>MOL_PROPERTY
W(SA)
SciTegic.value.DoubleValue
2.134

@<SCITEGIC>MOL_PROPERTY
Valence
SciTegic.value.DoubleValue
16.583

@<SCITEGIC>MOL_PROPERTY
Coulomb
SciTegic.value.DoubleValue
-8.361

@<SCITEGIC>MOL_PROPERTY
VdW
SciTegic.value.DoubleValue
2.928

@<SCITEGIC>MOL_PROPERTY
VdW6
SciTegic.value.DoubleValue
-12.539

@<SCITEGIC>MOL_PROPERTY
VdW12
SciTegic.value.DoubleValue
15.467

@<SCITEGIC>MOL_PROPERTY
Bond
SciTegic.value.DoubleValue
0.441

@<SCITEGIC>MOL_PROPERTY
Angle
SciTegic.value.DoubleValue
5.093

@<SCITEGIC>MOL_PROPERTY
Pdih
SciTegic.value.DoubleValue
11.049

@<SCITEGIC>MOL_PROPERTY
Idih
SciTegic.value.DoubleValue
0.000

@<SCITEGIC>MOL_PROPERTY
Tether
SciTegic.value.DoubleValue
0.000

@<TRIPOS>MOLECULE
guest-s17_confgen4.mol2 : confsearch ligand conformer 125
          25          25           1
SMALL
USER_CHARGES
 
@<TRIPOS>ATOM
       1    C1      21.281168   20.779745   23.528294 C.3        1 MOL1        -0.1684
       2    H1      20.931114   21.814766   23.415595 H          1 MOL1         0.0833
       3    H2      22.179980   20.838034   24.157309 H          1 MOL1         0.0833
       4    C2      21.719256   20.234580   22.145873 C.3        1 MOL1        -0.1684
       5    H3      22.539924   20.872048   21.789580 H          1 MOL1         0.0833
       6    H4      22.169062   19.240886   22.252870 H          1 MOL1         0.0833
       7    C3      20.633306   20.223721   21.040947 C.3        1 MOL1        -0.1684
       8    H5      21.120074   19.925373   20.102279 H          1 MOL1         0.0833
       9    H6      20.272358   21.248030   20.876624 H          1 MOL1         0.0833
      10    C4      19.415020   19.289624   21.261215 C.3        1 MOL1        -0.1760
      11    H7      18.683671   19.771380   21.918160 H          1 MOL1         0.0833
      12    H8      18.902008   19.200108   20.294043 H          1 MOL1         0.0833
      13    C5      19.760920   17.873257   21.789261 C.3        1 MOL1         0.1219
      14    H9      20.816060   17.649086   21.583600 H          1 MOL1         0.0790
      15    C6      19.480810   17.670804   23.299708 C.3        1 MOL1        -0.1760
      16    H10     18.434227   17.923312   23.514460 H          1 MOL1         0.0833
      17    H11     19.579151   16.598578   23.516260 H          1 MOL1         0.0833
      18    C7      20.402343   18.430899   24.291703 C.3        1 MOL1        -0.1684
      19    H12     21.454502   18.164295   24.128374 H          1 MOL1         0.0833
      20    H13     20.165709   18.059279   25.298117 H          1 MOL1         0.0833
      21    C8      20.212186   19.969784   24.306555 C.3        1 MOL1        -0.1684
      22    H14     20.248821   20.308289   25.351123 H          1 MOL1         0.0833
      23    H15     19.204273   20.236520   23.969268 H          1 MOL1         0.0833
      24    O1      18.966296   16.929286   21.082397 O.3        1 MOL1        -0.5508
      25    H16     18.033131   17.146727   21.284545 H          1 MOL1         0.3780
@<TRIPOS>BOND
    1     1     2    1
    2     1     3    1
    3     1     4    1
    4     4     5    1
    5     4     6    1
    6     4     7    1
    7     7     8    1
    8     7     9    1
    9     7    10    1
   10    10    11    1
   11    10    12    1
   12    10    13    1
   13    13    14    1
   14    13    15    1
   15    15    16    1
   16    15    17    1
   17    15    18    1
   18    18    19    1
   19    18    20    1
   20     1    21    1
   21    18    21    1
   22    21    22    1
   23    21    23    1
   24    13    24    1
   25    24    25    1
@<TRIPOS>SUBSTRUCTURE
       1 MOL1            1 RESIDUE      1      MOL     
@<SCITEGIC>MOL_PROPERTY
VConf Rank
SciTegic.value.IntegerValue
125

@<SCITEGIC>MOL_PROPERTY
Conf_Id
SciTegic.value.IntegerValue
140

@<SCITEGIC>MOL_PROPERTY
Delta U+W
SciTegic.value.DoubleValue
-1.702

@<SCITEGIC>MOL_PROPERTY
U+W
SciTegic.value.DoubleValue
9.211

@<SCITEGIC>MOL_PROPERTY
Grad RMS
SciTegic.value.DoubleValue
0.000000

@<SCITEGIC>MOL_PROPERTY
U
SciTegic.value.DoubleValue
11.181

@<SCITEGIC>MOL_PROPERTY
W
SciTegic.value.DoubleValue
-1.969

@<SCITEGIC>MOL_PROPERTY
W(PB)
SciTegic.value.DoubleValue
-4.093

@<SCITEGIC>MOL_PROPERTY
W(SA)
SciTegic.value.DoubleValue
2.124

@<SCITEGIC>MOL_PROPERTY
Valence
SciTegic.value.DoubleValue
16.954

@<SCITEGIC>MOL_PROPERTY
Coulomb
SciTegic.value.DoubleValue
-8.661

@<SCITEGIC>MOL_PROPERTY
VdW
SciTegic.value.DoubleValue
2.887

@<SCITEGIC>MOL_PROPERTY
VdW6
SciTegic.value.DoubleValue
-12.561

@<SCITEGIC>MOL_PROPERTY
VdW12
SciTegic.value.DoubleValue
15.448

@<SCITEGIC>MOL_PROPERTY
Bond
SciTegic.value.DoubleValue
0.433

@<SCITEGIC>MOL_PROPERTY
Angle
SciTegic.value.DoubleValue
5.120

@<SCITEGIC>MOL_PROPERTY
Pdih
SciTegic.value.DoubleValue
11.401

@<SCITEGIC>MOL_PROPERTY
Idih
SciTegic.value.DoubleValue
0.000

@<SCITEGIC>MOL_PROPERTY
Tether
SciTegic.value.DoubleValue
0.000

@<TRIPOS>MOLECULE
guest-s17_confgen4.mol2 : confsearch ligand conformer 126
          25          25           1
SMALL
USER_CHARGES
 
@<TRIPOS>ATOM
       1    C1      22.022579   19.639662   21.643932 C.3        1 MOL1        -0.1684
       2    H1      22.455925   18.940873   20.915638 H          1 MOL1         0.0833
       3    H2      22.702107   20.502586   21.666808 H          1 MOL1         0.0833
       4    C2      22.047745   18.981769   23.047851 C.3        1 MOL1        -0.1684
       5    H3      21.771531   17.923302   22.983379 H          1 MOL1         0.0833
       6    H4      23.095012   18.970710   23.379755 H          1 MOL1         0.0833
       7    C3      21.205496   19.699537   24.134118 C.3        1 MOL1        -0.1684
       8    H5      21.079532   20.763885   23.897279 H          1 MOL1         0.0833
       9    H6      21.784972   19.680487   25.067289 H          1 MOL1         0.0833
      10    C4      19.834715   19.036645   24.438332 C.3        1 MOL1        -0.1760
      11    H7      19.995630   17.986089   24.713385 H          1 MOL1         0.0833
      12    H8      19.428105   19.520891   25.336335 H          1 MOL1         0.0833
      13    C5      18.755728   19.120193   23.329415 C.3        1 MOL1         0.1219
      14    H9      18.619346   20.169406   23.035433 H          1 MOL1         0.0790
      15    C6      19.063159   18.261751   22.075169 C.3        1 MOL1        -0.1760
      16    H10     19.759797   17.456031   22.328248 H          1 MOL1         0.0833
      17    H11     18.147270   17.746073   21.756043 H          1 MOL1         0.0833
      18    C7      19.585090   19.054721   20.848769 C.3        1 MOL1        -0.1684
      19    H12     18.724376   19.547676   20.376308 H          1 MOL1         0.0833
      20    H13     19.968685   18.345842   20.102549 H          1 MOL1         0.0833
      21    C8      20.654582   20.142638   21.118756 C.3        1 MOL1        -0.1684
      22    H14     20.254447   20.919624   21.780109 H          1 MOL1         0.0833
      23    H15     20.840952   20.659214   20.167326 H          1 MOL1         0.0833
      24    O1      17.534052   18.660632   23.893747 O.3        1 MOL1        -0.5508
      25    H16     17.681911   17.727376   24.150874 H          1 MOL1         0.3780
@<TRIPOS>BOND
    1     1     2    1
    2     1     3    1
    3     1     4    1
    4     4     5    1
    5     4     6    1
    6     4     7    1
    7     7     8    1
    8     7     9    1
    9     7    10    1
   10    10    11    1
   11    10    12    1
   12    10    13    1
   13    13    14    1
   14    13    15    1
   15    15    16    1
   16    15    17    1
   17    15    18    1
   18    18    19    1
   19    18    20    1
   20     1    21    1
   21    18    21    1
   22    21    22    1
   23    21    23    1
   24    13    24    1
   25    24    25    1
@<TRIPOS>SUBSTRUCTURE
       1 MOL1            1 RESIDUE      1      MOL     
@<SCITEGIC>MOL_PROPERTY
VConf Rank
SciTegic.value.IntegerValue
126

@<SCITEGIC>MOL_PROPERTY
Conf_Id
SciTegic.value.IntegerValue
68

@<SCITEGIC>MOL_PROPERTY
Delta U+W
SciTegic.value.DoubleValue
-1.765

@<SCITEGIC>MOL_PROPERTY
U+W
SciTegic.value.DoubleValue
9.148

@<SCITEGIC>MOL_PROPERTY
Grad RMS
SciTegic.value.DoubleValue
0.000000

@<SCITEGIC>MOL_PROPERTY
U
SciTegic.value.DoubleValue
11.181

@<SCITEGIC>MOL_PROPERTY
W
SciTegic.value.DoubleValue
-2.032

@<SCITEGIC>MOL_PROPERTY
W(PB)
SciTegic.value.DoubleValue
-4.147

@<SCITEGIC>MOL_PROPERTY
W(SA)
SciTegic.value.DoubleValue
2.114

@<SCITEGIC>MOL_PROPERTY
Valence
SciTegic.value.DoubleValue
16.955

@<SCITEGIC>MOL_PROPERTY
Coulomb
SciTegic.value.DoubleValue
-8.661

@<SCITEGIC>MOL_PROPERTY
VdW
SciTegic.value.DoubleValue
2.887

@<SCITEGIC>MOL_PROPERTY
VdW6
SciTegic.value.DoubleValue
-12.561

@<SCITEGIC>MOL_PROPERTY
VdW12
SciTegic.value.DoubleValue
15.448

@<SCITEGIC>MOL_PROPERTY
Bond
SciTegic.value.DoubleValue
0.433

@<SCITEGIC>MOL_PROPERTY
Angle
SciTegic.value.DoubleValue
5.121

@<SCITEGIC>MOL_PROPERTY
Pdih
SciTegic.value.DoubleValue
11.402

@<SCITEGIC>MOL_PROPERTY
Idih
SciTegic.value.DoubleValue
0.000

@<SCITEGIC>MOL_PROPERTY
Tether
SciTegic.value.DoubleValue
0.000

@<TRIPOS>MOLECULE
guest-s17_confgen4.mol2 : confsearch ligand conformer 127
          25          25           1
SMALL
USER_CHARGES
 
@<TRIPOS>ATOM
       1    C1      19.732772   18.811762   24.415252 C.3        1 MOL1        -0.1684
       2    H1      19.536053   18.527230   25.458046 H          1 MOL1         0.0833
       3    H2      18.761510   19.152627   24.039283 H          1 MOL1         0.0833
       4    C2      20.199612   17.545503   23.651084 C.3        1 MOL1        -0.1684
       5    H3      21.294945   17.481984   23.622370 H          1 MOL1         0.0833
       6    H4      19.878076   16.671248   24.233588 H          1 MOL1         0.0833
       7    C3      19.601487   17.385972   22.228622 C.3        1 MOL1        -0.1684
       8    H5      18.504716   17.404972   22.290310 H          1 MOL1         0.0833
       9    H6      19.858584   16.380092   21.869541 H          1 MOL1         0.0833
      10    C4      20.072375   18.404567   21.156575 C.3        1 MOL1        -0.1760
      11    H7      21.164348   18.378625   21.059215 H          1 MOL1         0.0833
      12    H8      19.688333   18.047633   20.191318 H          1 MOL1         0.0833
      13    C5      19.570419   19.854296   21.382880 C.3        1 MOL1         0.1219
      14    H9      18.701837   19.831473   22.051154 H          1 MOL1         0.0790
      15    C6      20.629921   20.825010   21.960126 C.3        1 MOL1        -0.1760
      16    H10     21.311113   21.118745   21.150637 H          1 MOL1         0.0833
      17    H11     20.121470   21.745929   22.273927 H          1 MOL1         0.0833
      18    C7      21.501577   20.306018   23.132698 C.3        1 MOL1        -0.1684
      19    H12     22.239787   21.086605   23.361725 H          1 MOL1         0.0833
      20    H13     22.099920   19.444867   22.813771 H          1 MOL1         0.0833
      21    C8      20.750111   19.981796   24.448114 C.3        1 MOL1        -0.1684
      22    H14     20.241636   20.886263   24.808638 H          1 MOL1         0.0833
      23    H15     21.507352   19.745155   25.208104 H          1 MOL1         0.0833
      24    O1      19.139767   20.384384   20.135391 O.3        1 MOL1        -0.5508
      25    H16     19.922878   20.380377   19.547506 H          1 MOL1         0.3780
@<TRIPOS>BOND
    1     1     2    1
    2     1     3    1
    3     1     4    1
    4     4     5    1
    5     4     6    1
    6     4     7    1
    7     7     8    1
    8     7     9    1
    9     7    10    1
   10    10    11    1
   11    10    12    1
   12    10    13    1
   13    13    14    1
   14    13    15    1
   15    15    16    1
   16    15    17    1
   17    15    18    1
   18    18    19    1
   19    18    20    1
   20     1    21    1
   21    18    21    1
   22    21    22    1
   23    21    23    1
   24    13    24    1
   25    24    25    1
@<TRIPOS>SUBSTRUCTURE
       1 MOL1            1 RESIDUE      1      MOL     
@<SCITEGIC>MOL_PROPERTY
VConf Rank
SciTegic.value.IntegerValue
127

@<SCITEGIC>MOL_PROPERTY
Conf_Id
SciTegic.value.IntegerValue
165

@<SCITEGIC>MOL_PROPERTY
Delta U+W
SciTegic.value.DoubleValue
-1.999

@<SCITEGIC>MOL_PROPERTY
U+W
SciTegic.value.DoubleValue
8.915

@<SCITEGIC>MOL_PROPERTY
Grad RMS
SciTegic.value.DoubleValue
0.000000

@<SCITEGIC>MOL_PROPERTY
U
SciTegic.value.DoubleValue
10.935

@<SCITEGIC>MOL_PROPERTY
W
SciTegic.value.DoubleValue
-2.020

@<SCITEGIC>MOL_PROPERTY
W(PB)
SciTegic.value.DoubleValue
-4.135

@<SCITEGIC>MOL_PROPERTY
W(SA)
SciTegic.value.DoubleValue
2.115

@<SCITEGIC>MOL_PROPERTY
Valence
SciTegic.value.DoubleValue
16.757

@<SCITEGIC>MOL_PROPERTY
Coulomb
SciTegic.value.DoubleValue
-8.731

@<SCITEGIC>MOL_PROPERTY
VdW
SciTegic.value.DoubleValue
2.908

@<SCITEGIC>MOL_PROPERTY
VdW6
SciTegic.value.DoubleValue
-12.597

@<SCITEGIC>MOL_PROPERTY
VdW12
SciTegic.value.DoubleValue
15.506

@<SCITEGIC>MOL_PROPERTY
Bond
SciTegic.value.DoubleValue
0.434

@<SCITEGIC>MOL_PROPERTY
Angle
SciTegic.value.DoubleValue
5.069

@<SCITEGIC>MOL_PROPERTY
Pdih
SciTegic.value.DoubleValue
11.254

@<SCITEGIC>MOL_PROPERTY
Idih
SciTegic.value.DoubleValue
0.000

@<SCITEGIC>MOL_PROPERTY
Tether
SciTegic.value.DoubleValue
0.000

@<TRIPOS>MOLECULE
guest-s17_confgen4.mol2 : confsearch ligand conformer 128
          25          25           1
SMALL
USER_CHARGES
 
@<TRIPOS>ATOM
       1    C1      20.017514   17.949199   21.327540 C.3        1 MOL1        -0.1684
       2    H1      19.849992   17.281504   20.471267 H          1 MOL1         0.0833
       3    H2      20.120589   17.272180   22.183007 H          1 MOL1         0.0833
       4    C2      18.748135   18.828483   21.472414 C.3        1 MOL1        -0.1684
       5    H3      18.435782   19.132856   20.464049 H          1 MOL1         0.0833
       6    H4      17.928251   18.209860   21.861853 H          1 MOL1         0.0833
       7    C3      18.869651   20.115708   22.326009 C.3        1 MOL1        -0.1684
       8    H5      17.917935   20.657331   22.238937 H          1 MOL1         0.0833
       9    H6      19.613509   20.792693   21.890510 H          1 MOL1         0.0833
      10    C4      19.145536   19.907548   23.837495 C.3        1 MOL1        -0.1760
      11    H7      19.095699   20.893289   24.319516 H          1 MOL1         0.0833
      12    H8      18.326837   19.317662   24.269334 H          1 MOL1         0.0833
      13    C5      20.491001   19.246832   24.226002 C.3        1 MOL1         0.1219
      14    H9      20.423857   18.165161   24.060653 H          1 MOL1         0.0790
      15    C6      21.724714   19.796839   23.464670 C.3        1 MOL1        -0.1760
      16    H10     21.528660   20.804667   23.080007 H          1 MOL1         0.0833
      17    H11     22.547997   19.919855   24.181331 H          1 MOL1         0.0833
      18    C7      22.247036   18.874325   22.331031 C.3        1 MOL1        -0.1684
      19    H12     22.466594   17.880384   22.744386 H          1 MOL1         0.0833
      20    H13     23.213710   19.273209   21.994571 H          1 MOL1         0.0833
      21    C8      21.338984   18.723191   21.082244 C.3        1 MOL1        -0.1684
      22    H14     21.915341   18.163152   20.333125 H          1 MOL1         0.0833
      23    H15     21.145391   19.700216   20.621210 H          1 MOL1         0.0833
      24    O1      20.685734   19.464233   25.618959 O.3        1 MOL1        -0.5508
      25    H16     19.915090   19.068211   26.076903 H          1 MOL1         0.3780
@<TRIPOS>BOND
    1     1     2    1
    2     1     3    1
    3     1     4    1
    4     4     5    1
    5     4     6    1
    6     4     7    1
    7     7     8    1
    8     7     9    1
    9     7    10    1
   10    10    11    1
   11    10    12    1
   12    10    13    1
   13    13    14    1
   14    13    15    1
   15    15    16    1
   16    15    17    1
   17    15    18    1
   18    18    19    1
   19    18    20    1
   20     1    21    1
   21    18    21    1
   22    21    22    1
   23    21    23    1
   24    13    24    1
   25    24    25    1
@<TRIPOS>SUBSTRUCTURE
       1 MOL1            1 RESIDUE      1      MOL     
@<SCITEGIC>MOL_PROPERTY
VConf Rank
SciTegic.value.IntegerValue
128

@<SCITEGIC>MOL_PROPERTY
Conf_Id
SciTegic.value.IntegerValue
133

@<SCITEGIC>MOL_PROPERTY
Delta U+W
SciTegic.value.DoubleValue
-2.139

@<SCITEGIC>MOL_PROPERTY
U+W
SciTegic.value.DoubleValue
8.774

@<SCITEGIC>MOL_PROPERTY
Grad RMS
SciTegic.value.DoubleValue
0.000000

@<SCITEGIC>MOL_PROPERTY
U
SciTegic.value.DoubleValue
10.905

@<SCITEGIC>MOL_PROPERTY
W
SciTegic.value.DoubleValue
-2.131

@<SCITEGIC>MOL_PROPERTY
W(PB)
SciTegic.value.DoubleValue
-4.281

@<SCITEGIC>MOL_PROPERTY
W(SA)
SciTegic.value.DoubleValue
2.150

@<SCITEGIC>MOL_PROPERTY
Valence
SciTegic.value.DoubleValue
16.378

@<SCITEGIC>MOL_PROPERTY
Coulomb
SciTegic.value.DoubleValue
-8.448

@<SCITEGIC>MOL_PROPERTY
VdW
SciTegic.value.DoubleValue
2.976

@<SCITEGIC>MOL_PROPERTY
VdW6
SciTegic.value.DoubleValue
-12.570

@<SCITEGIC>MOL_PROPERTY
VdW12
SciTegic.value.DoubleValue
15.545

@<SCITEGIC>MOL_PROPERTY
Bond
SciTegic.value.DoubleValue
0.439

@<SCITEGIC>MOL_PROPERTY
Angle
SciTegic.value.DoubleValue
5.049

@<SCITEGIC>MOL_PROPERTY
Pdih
SciTegic.value.DoubleValue
10.889

@<SCITEGIC>MOL_PROPERTY
Idih
SciTegic.value.DoubleValue
0.000

@<SCITEGIC>MOL_PROPERTY
Tether
SciTegic.value.DoubleValue
0.000

@<TRIPOS>MOLECULE
guest-s17_confgen4.mol2 : confsearch ligand conformer 129
          25          25           1
SMALL
USER_CHARGES
 
@<TRIPOS>ATOM
       1    C1      21.434183   20.455164   21.905931 C.3        1 MOL1        -0.1684
       2    H1      22.071729   21.178304   21.378969 H          1 MOL1         0.0833
       3    H2      21.953280   20.276937   22.854391 H          1 MOL1         0.0833
       4    C2      21.381040   19.155797   21.060743 C.3        1 MOL1        -0.1684
       5    H3      20.499633   19.145063   20.406819 H          1 MOL1         0.0833
       6    H4      22.242322   19.170145   20.378836 H          1 MOL1         0.0833
       7    C3      21.474569   17.841485   21.879711 C.3        1 MOL1        -0.1684
       8    H5      22.389474   17.855346   22.487778 H          1 MOL1         0.0833
       9    H6      21.605960   17.014042   21.169185 H          1 MOL1         0.0833
      10    C4      20.262244   17.497430   22.785738 C.3        1 MOL1        -0.1760
      11    H7      19.341497   17.447332   22.192582 H          1 MOL1         0.0833
      12    H8      20.419680   16.475186   23.155553 H          1 MOL1         0.0833
      13    C5      20.082480   18.437188   24.005870 C.3        1 MOL1         0.1219
      14    H9      21.029854   18.953550   24.200057 H          1 MOL1         0.0790
      15    C6      18.951927   19.484204   23.853041 C.3        1 MOL1        -0.1760
      16    H10     17.990635   18.976265   24.009345 H          1 MOL1         0.0833
      17    H11     19.041480   20.218803   24.663634 H          1 MOL1         0.0833
      18    C7      18.863776   20.238398   22.501210 C.3        1 MOL1        -0.1684
      19    H12     17.971401   20.877751   22.541113 H          1 MOL1         0.0833
      20    H13     18.664319   19.536587   21.683303 H          1 MOL1         0.0833
      21    C8      20.067803   21.147557   22.148943 C.3        1 MOL1        -0.1684
      22    H14     20.188386   21.910347   22.930084 H          1 MOL1         0.0833
      23    H15     19.805433   21.698600   21.235423 H          1 MOL1         0.0833
      24    O1      19.776307   17.643163   25.146612 O.3        1 MOL1        -0.5508
      25    H16     19.712959   18.256270   25.908533 H          1 MOL1         0.3780
@<TRIPOS>BOND
    1     1     2    1
    2     1     3    1
    3     1     4    1
    4     4     5    1
    5     4     6    1
    6     4     7    1
    7     7     8    1
    8     7     9    1
    9     7    10    1
   10    10    11    1
   11    10    12    1
   12    10    13    1
   13    13    14    1
   14    13    15    1
   15    15    16    1
   16    15    17    1
   17    15    18    1
   18    18    19    1
   19    18    20    1
   20     1    21    1
   21    18    21    1
   22    21    22    1
   23    21    23    1
   24    13    24    1
   25    24    25    1
@<TRIPOS>SUBSTRUCTURE
       1 MOL1            1 RESIDUE      1      MOL     
@<SCITEGIC>MOL_PROPERTY
VConf Rank
SciTegic.value.IntegerValue
129

@<SCITEGIC>MOL_PROPERTY
Conf_Id
SciTegic.value.IntegerValue
95

@<SCITEGIC>MOL_PROPERTY
Delta U+W
SciTegic.value.DoubleValue
-2.190

@<SCITEGIC>MOL_PROPERTY
U+W
SciTegic.value.DoubleValue
8.723

@<SCITEGIC>MOL_PROPERTY
Grad RMS
SciTegic.value.DoubleValue
0.000000

@<SCITEGIC>MOL_PROPERTY
U
SciTegic.value.DoubleValue
10.905

@<SCITEGIC>MOL_PROPERTY
W
SciTegic.value.DoubleValue
-2.182

@<SCITEGIC>MOL_PROPERTY
W(PB)
SciTegic.value.DoubleValue
-4.296

@<SCITEGIC>MOL_PROPERTY
W(SA)
SciTegic.value.DoubleValue
2.114

@<SCITEGIC>MOL_PROPERTY
Valence
SciTegic.value.DoubleValue
16.377

@<SCITEGIC>MOL_PROPERTY
Coulomb
SciTegic.value.DoubleValue
-8.448

@<SCITEGIC>MOL_PROPERTY
VdW
SciTegic.value.DoubleValue
2.976

@<SCITEGIC>MOL_PROPERTY
VdW6
SciTegic.value.DoubleValue
-12.570

@<SCITEGIC>MOL_PROPERTY
VdW12
SciTegic.value.DoubleValue
15.546

@<SCITEGIC>MOL_PROPERTY
Bond
SciTegic.value.DoubleValue
0.439

@<SCITEGIC>MOL_PROPERTY
Angle
SciTegic.value.DoubleValue
5.049

@<SCITEGIC>MOL_PROPERTY
Pdih
SciTegic.value.DoubleValue
10.889

@<SCITEGIC>MOL_PROPERTY
Idih
SciTegic.value.DoubleValue
0.000

@<SCITEGIC>MOL_PROPERTY
Tether
SciTegic.value.DoubleValue
0.000

@<TRIPOS>MOLECULE
guest-s17_confgen4.mol2 : confsearch ligand conformer 130
          25          25           1
SMALL
USER_CHARGES
 
@<TRIPOS>ATOM
       1    C1      20.111545   20.864761   21.996812 C.3        1 MOL1        -0.1684
       2    H1      20.117250   21.873768   21.562332 H          1 MOL1         0.0833
       3    H2      19.252791   20.885362   22.675305 H          1 MOL1         0.0833
       4    C2      21.442852   20.702149   22.787632 C.3        1 MOL1        -0.1684
       5    H3      22.219018   21.253685   22.239621 H          1 MOL1         0.0833
       6    H4      21.348060   21.214958   23.754334 H          1 MOL1         0.0833
       7    C3      21.987541   19.268257   23.019500 C.3        1 MOL1        -0.1684
       8    H5      22.979675   19.360308   23.482117 H          1 MOL1         0.0833
       9    H6      22.198639   18.801044   22.052454 H          1 MOL1         0.0833
      10    C4      21.146188   18.318241   23.922892 C.3        1 MOL1        -0.1760
      11    H7      21.430703   17.279924   23.707670 H          1 MOL1         0.0833
      12    H8      21.456926   18.502402   24.959612 H          1 MOL1         0.0833
      13    C5      19.601893   18.439947   23.877784 C.3        1 MOL1         0.1219
      14    H9      19.334946   19.469071   24.139432 H          1 MOL1         0.0790
      15    C6      18.902242   18.043647   22.545858 C.3        1 MOL1        -0.1760
      16    H10     18.730759   16.958945   22.563990 H          1 MOL1         0.0833
      17    H11     17.904235   18.499803   22.532026 H          1 MOL1         0.0833
      18    C7      19.621345   18.363808   21.207424 C.3        1 MOL1        -0.1684
      19    H12     19.029148   17.916538   20.397507 H          1 MOL1         0.0833
      20    H13     20.567603   17.815284   21.165134 H          1 MOL1         0.0833
      21    C8      19.833467   19.862901   20.845166 C.3        1 MOL1        -0.1684
      22    H14     18.925492   20.208684   20.332445 H          1 MOL1         0.0833
      23    H15     20.636513   19.937835   20.099548 H          1 MOL1         0.0833
      24    O1      19.079109   17.596092   24.897205 O.3        1 MOL1        -0.5508
      25    H16     19.475142   17.894534   25.742277 H          1 MOL1         0.3780
@<TRIPOS>BOND
    1     1     2    1
    2     1     3    1
    3     1     4    1
    4     4     5    1
    5     4     6    1
    6     4     7    1
    7     7     8    1
    8     7     9    1
    9     7    10    1
   10    10    11    1
   11    10    12    1
   12    10    13    1
   13    13    14    1
   14    13    15    1
   15    15    16    1
   16    15    17    1
   17    15    18    1
   18    18    19    1
   19    18    20    1
   20     1    21    1
   21    18    21    1
   22    21    22    1
   23    21    23    1
   24    13    24    1
   25    24    25    1
@<TRIPOS>SUBSTRUCTURE
       1 MOL1            1 RESIDUE      1      MOL     
@<SCITEGIC>MOL_PROPERTY
VConf Rank
SciTegic.value.IntegerValue
130

@<SCITEGIC>MOL_PROPERTY
Conf_Id
SciTegic.value.IntegerValue
161

@<SCITEGIC>MOL_PROPERTY
Delta U+W
SciTegic.value.DoubleValue
2.120

@<SCITEGIC>MOL_PROPERTY
U+W
SciTegic.value.DoubleValue
13.033

@<SCITEGIC>MOL_PROPERTY
Grad RMS
SciTegic.value.DoubleValue
0.000000

@<SCITEGIC>MOL_PROPERTY
U
SciTegic.value.DoubleValue
15.076

@<SCITEGIC>MOL_PROPERTY
W
SciTegic.value.DoubleValue
-2.043

@<SCITEGIC>MOL_PROPERTY
W(PB)
SciTegic.value.DoubleValue
-4.186

@<SCITEGIC>MOL_PROPERTY
W(SA)
SciTegic.value.DoubleValue
2.143

@<SCITEGIC>MOL_PROPERTY
Valence
SciTegic.value.DoubleValue
18.884

@<SCITEGIC>MOL_PROPERTY
Coulomb
SciTegic.value.DoubleValue
-8.074

@<SCITEGIC>MOL_PROPERTY
VdW
SciTegic.value.DoubleValue
4.266

@<SCITEGIC>MOL_PROPERTY
VdW6
SciTegic.value.DoubleValue
-13.486

@<SCITEGIC>MOL_PROPERTY
VdW12
SciTegic.value.DoubleValue
17.752

@<SCITEGIC>MOL_PROPERTY
Bond
SciTegic.value.DoubleValue
0.713

@<SCITEGIC>MOL_PROPERTY
Angle
SciTegic.value.DoubleValue
8.955

@<SCITEGIC>MOL_PROPERTY
Pdih
SciTegic.value.DoubleValue
9.215

@<SCITEGIC>MOL_PROPERTY
Idih
SciTegic.value.DoubleValue
0.000

@<SCITEGIC>MOL_PROPERTY
Tether
SciTegic.value.DoubleValue
0.000

@<TRIPOS>MOLECULE
guest-s17_confgen4.mol2 : confsearch ligand conformer 131
          25          25           1
SMALL
USER_CHARGES
 
@<TRIPOS>ATOM
       1    C1      20.095527   19.587554   24.562652 C.3        1 MOL1        -0.1684
       2    H1      19.740295   19.676380   25.598465 H          1 MOL1         0.0833
       3    H2      20.962117   20.258405   24.505947 H          1 MOL1         0.0833
       4    C2      18.971304   20.096115   23.626081 C.3        1 MOL1        -0.1684
       5    H3      18.265552   19.288672   23.389147 H          1 MOL1         0.0833
       6    H4      18.389187   20.831781   24.198013 H          1 MOL1         0.0833
       7    C3      19.458829   20.813198   22.336336 C.3        1 MOL1        -0.1684
       8    H5      20.354897   21.417038   22.533122 H          1 MOL1         0.0833
       9    H6      18.677649   21.534779   22.060147 H          1 MOL1         0.0833
      10    C4      19.673709   19.892482   21.107279 C.3        1 MOL1        -0.1760
      11    H7      18.937828   19.079263   21.118258 H          1 MOL1         0.0833
      12    H8      19.436750   20.476167   20.207948 H          1 MOL1         0.0833
      13    C5      21.107752   19.339690   20.907850 C.3        1 MOL1         0.1219
      14    H9      21.753657   20.177412   20.608181 H          1 MOL1         0.0790
      15    C6      21.762716   18.666274   22.136026 C.3        1 MOL1        -0.1760
      16    H10     22.657774   18.127902   21.796748 H          1 MOL1         0.0833
      17    H11     22.149009   19.443508   22.804193 H          1 MOL1         0.0833
      18    C7      20.846304   17.678401   22.906434 C.3        1 MOL1        -0.1684
      19    H12     21.336359   16.695874   22.941306 H          1 MOL1         0.0833
      20    H13     19.907226   17.505696   22.368471 H          1 MOL1         0.0833
      21    C8      20.531662   18.112568   24.358047 C.3        1 MOL1        -0.1684
      22    H14     21.417455   17.928424   24.981163 H          1 MOL1         0.0833
      23    H15     19.746956   17.452433   24.752051 H          1 MOL1         0.0833
      24    O1      21.068817   18.391294   19.850782 O.3        1 MOL1        -0.5508
      25    H16     20.603611   17.608744   20.209958 H          1 MOL1         0.3780
@<TRIPOS>BOND
    1     1     2    1
    2     1     3    1
    3     1     4    1
    4     4     5    1
    5     4     6    1
    6     4     7    1
    7     7     8    1
    8     7     9    1
    9     7    10    1
   10    10    11    1
   11    10    12    1
   12    10    13    1
   13    13    14    1
   14    13    15    1
   15    15    16    1
   16    15    17    1
   17    15    18    1
   18    18    19    1
   19    18    20    1
   20     1    21    1
   21    18    21    1
   22    21    22    1
   23    21    23    1
   24    13    24    1
   25    24    25    1
@<TRIPOS>SUBSTRUCTURE
       1 MOL1            1 RESIDUE      1      MOL     
@<SCITEGIC>MOL_PROPERTY
VConf Rank
SciTegic.value.IntegerValue
131

@<SCITEGIC>MOL_PROPERTY
Conf_Id
SciTegic.value.IntegerValue
164

@<SCITEGIC>MOL_PROPERTY
Delta U+W
SciTegic.value.DoubleValue
0.008

@<SCITEGIC>MOL_PROPERTY
U+W
SciTegic.value.DoubleValue
10.922

@<SCITEGIC>MOL_PROPERTY
Grad RMS
SciTegic.value.DoubleValue
0.000000

@<SCITEGIC>MOL_PROPERTY
U
SciTegic.value.DoubleValue
12.433

@<SCITEGIC>MOL_PROPERTY
W
SciTegic.value.DoubleValue
-1.511

@<SCITEGIC>MOL_PROPERTY
W(PB)
SciTegic.value.DoubleValue
-3.669

@<SCITEGIC>MOL_PROPERTY
W(SA)
SciTegic.value.DoubleValue
2.157

@<SCITEGIC>MOL_PROPERTY
Valence
SciTegic.value.DoubleValue
19.007

@<SCITEGIC>MOL_PROPERTY
Coulomb
SciTegic.value.DoubleValue
-9.373

@<SCITEGIC>MOL_PROPERTY
VdW
SciTegic.value.DoubleValue
2.799

@<SCITEGIC>MOL_PROPERTY
VdW6
SciTegic.value.DoubleValue
-12.597

@<SCITEGIC>MOL_PROPERTY
VdW12
SciTegic.value.DoubleValue
15.396

@<SCITEGIC>MOL_PROPERTY
Bond
SciTegic.value.DoubleValue
0.425

@<SCITEGIC>MOL_PROPERTY
Angle
SciTegic.value.DoubleValue
4.784

@<SCITEGIC>MOL_PROPERTY
Pdih
SciTegic.value.DoubleValue
13.799

@<SCITEGIC>MOL_PROPERTY
Idih
SciTegic.value.DoubleValue
0.000

@<SCITEGIC>MOL_PROPERTY
Tether
SciTegic.value.DoubleValue
0.000

@<TRIPOS>MOLECULE
guest-s17_confgen4.mol2 : confsearch ligand conformer 132
          25          25           1
SMALL
USER_CHARGES
 
@<TRIPOS>ATOM
       1    C1      19.731197   20.934541   22.679962 C.3        1 MOL1        -0.1684
       2    H1      19.319521   20.517231   21.754058 H          1 MOL1         0.0833
       3    H2      19.375413   21.973679   22.696789 H          1 MOL1         0.0833
       4    C2      21.278153   20.979324   22.611835 C.3        1 MOL1        -0.1684
       5    H3      21.551433   21.613169   21.757165 H          1 MOL1         0.0833
       6    H4      21.665689   21.495948   23.500329 H          1 MOL1         0.0833
       7    C3      22.018160   19.626468   22.453933 C.3        1 MOL1        -0.1684
       8    H5      22.141843   19.139334   23.427825 H          1 MOL1         0.0833
       9    H6      23.042593   19.853713   22.128509 H          1 MOL1         0.0833
      10    C4      21.391014   18.643693   21.429424 C.3        1 MOL1        -0.1760
      11    H7      20.800955   19.182970   20.678565 H          1 MOL1         0.0833
      12    H8      22.217341   18.182018   20.872398 H          1 MOL1         0.0833
      13    C5      20.566117   17.490138   22.053387 C.3        1 MOL1         0.1219
      14    H9      21.194768   16.984640   22.800293 H          1 MOL1         0.0790
      15    C6      19.230318   17.882785   22.733054 C.3        1 MOL1        -0.1760
      16    H10     18.569187   18.397024   22.025068 H          1 MOL1         0.0833
      17    H11     18.712840   16.947871   22.986810 H          1 MOL1         0.0833
      18    C7      19.380161   18.697491   24.045526 C.3        1 MOL1        -0.1684
      19    H12     20.357912   18.511111   24.504143 H          1 MOL1         0.0833
      20    H13     18.656220   18.309060   24.774935 H          1 MOL1         0.0833
      21    C8      19.122500   20.220205   23.912412 C.3        1 MOL1        -0.1684
      22    H14     19.465132   20.721018   24.827998 H          1 MOL1         0.0833
      23    H15     18.035397   20.374991   23.878503 H          1 MOL1         0.0833
      24    O1      20.266559   16.565246   21.017029 O.3        1 MOL1        -0.5508
      25    H16     19.708218   17.045139   20.371473 H          1 MOL1         0.3780
@<TRIPOS>BOND
    1     1     2    1
    2     1     3    1
    3     1     4    1
    4     4     5    1
    5     4     6    1
    6     4     7    1
    7     7     8    1
    8     7     9    1
    9     7    10    1
   10    10    11    1
   11    10    12    1
   12    10    13    1
   13    13    14    1
   14    13    15    1
   15    15    16    1
   16    15    17    1
   17    15    18    1
   18    18    19    1
   19    18    20    1
   20     1    21    1
   21    18    21    1
   22    21    22    1
   23    21    23    1
   24    13    24    1
   25    24    25    1
@<TRIPOS>SUBSTRUCTURE
       1 MOL1            1 RESIDUE      1      MOL     
@<SCITEGIC>MOL_PROPERTY
VConf Rank
SciTegic.value.IntegerValue
132

@<SCITEGIC>MOL_PROPERTY
Conf_Id
SciTegic.value.IntegerValue
15

@<SCITEGIC>MOL_PROPERTY
Delta U+W
SciTegic.value.DoubleValue
-1.271

@<SCITEGIC>MOL_PROPERTY
U+W
SciTegic.value.DoubleValue
9.643

@<SCITEGIC>MOL_PROPERTY
Grad RMS
SciTegic.value.DoubleValue
0.000000

@<SCITEGIC>MOL_PROPERTY
U
SciTegic.value.DoubleValue
11.413

@<SCITEGIC>MOL_PROPERTY
W
SciTegic.value.DoubleValue
-1.770

@<SCITEGIC>MOL_PROPERTY
W(PB)
SciTegic.value.DoubleValue
-3.908

@<SCITEGIC>MOL_PROPERTY
W(SA)
SciTegic.value.DoubleValue
2.138

@<SCITEGIC>MOL_PROPERTY
Valence
SciTegic.value.DoubleValue
17.496

@<SCITEGIC>MOL_PROPERTY
Coulomb
SciTegic.value.DoubleValue
-8.736

@<SCITEGIC>MOL_PROPERTY
VdW
SciTegic.value.DoubleValue
2.653

@<SCITEGIC>MOL_PROPERTY
VdW6
SciTegic.value.DoubleValue
-12.485

@<SCITEGIC>MOL_PROPERTY
VdW12
SciTegic.value.DoubleValue
15.138

@<SCITEGIC>MOL_PROPERTY
Bond
SciTegic.value.DoubleValue
0.414

@<SCITEGIC>MOL_PROPERTY
Angle
SciTegic.value.DoubleValue
5.295

@<SCITEGIC>MOL_PROPERTY
Pdih
SciTegic.value.DoubleValue
11.787

@<SCITEGIC>MOL_PROPERTY
Idih
SciTegic.value.DoubleValue
0.000

@<SCITEGIC>MOL_PROPERTY
Tether
SciTegic.value.DoubleValue
0.000

@<TRIPOS>MOLECULE
guest-s17_confgen4.mol2 : confsearch ligand conformer 133
          25          25           1
SMALL
USER_CHARGES
 
@<TRIPOS>ATOM
       1    C1      20.332632   19.219816   20.725061 C.3        1 MOL1        -0.1684
       2    H1      20.147297   19.130308   19.645885 H          1 MOL1         0.0833
       3    H2      21.424925   19.186680   20.824870 H          1 MOL1         0.0833
       4    C2      19.784793   20.602792   21.165602 C.3        1 MOL1        -0.1684
       5    H3      20.402284   21.379776   20.694619 H          1 MOL1         0.0833
       6    H4      18.775148   20.733016   20.752766 H          1 MOL1         0.0833
       7    C3      19.724829   20.872733   22.688385 C.3        1 MOL1        -0.1684
       8    H5      18.849284   20.370208   23.115774 H          1 MOL1         0.0833
       9    H6      19.533641   21.944206   22.837314 H          1 MOL1         0.0833
      10    C4      21.018221   20.486465   23.452182 C.3        1 MOL1        -0.1760
      11    H7      21.823304   20.231612   22.754126 H          1 MOL1         0.0833
      12    H8      21.381062   21.372028   23.990068 H          1 MOL1         0.0833
      13    C5      20.836664   19.353749   24.488648 C.3        1 MOL1         0.1219
      14    H9      20.297371   19.774362   25.349506 H          1 MOL1         0.0790
      15    C6      20.044748   18.105703   24.019896 C.3        1 MOL1        -0.1760
      16    H10     20.155698   17.343185   24.802578 H          1 MOL1         0.0833
      17    H11     18.970819   18.326936   24.004244 H          1 MOL1         0.0833
      18    C7      20.468367   17.470586   22.668521 C.3        1 MOL1        -0.1684
      19    H12     20.257298   16.395037   22.744589 H          1 MOL1         0.0833
      20    H13     21.553526   17.541598   22.519524 H          1 MOL1         0.0833
      21    C8      19.699769   17.990231   21.422325 C.3        1 MOL1        -0.1684
      22    H14     18.642614   18.174904   21.655789 H          1 MOL1         0.0833
      23    H15     19.696499   17.173639   20.687244 H          1 MOL1         0.0833
      24    O1      22.124525   18.934950   24.918101 O.3        1 MOL1        -0.5508
      25    H16     22.529321   18.484027   24.150017 H          1 MOL1         0.3780
@<TRIPOS>BOND
    1     1     2    1
    2     1     3    1
    3     1     4    1
    4     4     5    1
    5     4     6    1
    6     4     7    1
    7     7     8    1
    8     7     9    1
    9     7    10    1
   10    10    11    1
   11    10    12    1
   12    10    13    1
   13    13    14    1
   14    13    15    1
   15    15    16    1
   16    15    17    1
   17    15    18    1
   18    18    19    1
   19    18    20    1
   20     1    21    1
   21    18    21    1
   22    21    22    1
   23    21    23    1
   24    13    24    1
   25    24    25    1
@<TRIPOS>SUBSTRUCTURE
       1 MOL1            1 RESIDUE      1      MOL     
@<SCITEGIC>MOL_PROPERTY
VConf Rank
SciTegic.value.IntegerValue
133

@<SCITEGIC>MOL_PROPERTY
Conf_Id
SciTegic.value.IntegerValue
115

@<SCITEGIC>MOL_PROPERTY
Delta U+W
SciTegic.value.DoubleValue
0.038

@<SCITEGIC>MOL_PROPERTY
U+W
SciTegic.value.DoubleValue
10.952

@<SCITEGIC>MOL_PROPERTY
Grad RMS
SciTegic.value.DoubleValue
0.000000

@<SCITEGIC>MOL_PROPERTY
U
SciTegic.value.DoubleValue
12.526

@<SCITEGIC>MOL_PROPERTY
W
SciTegic.value.DoubleValue
-1.575

@<SCITEGIC>MOL_PROPERTY
W(PB)
SciTegic.value.DoubleValue
-3.698

@<SCITEGIC>MOL_PROPERTY
W(SA)
SciTegic.value.DoubleValue
2.123

@<SCITEGIC>MOL_PROPERTY
Valence
SciTegic.value.DoubleValue
19.016

@<SCITEGIC>MOL_PROPERTY
Coulomb
SciTegic.value.DoubleValue
-9.226

@<SCITEGIC>MOL_PROPERTY
VdW
SciTegic.value.DoubleValue
2.737

@<SCITEGIC>MOL_PROPERTY
VdW6
SciTegic.value.DoubleValue
-12.612

@<SCITEGIC>MOL_PROPERTY
VdW12
SciTegic.value.DoubleValue
15.349

@<SCITEGIC>MOL_PROPERTY
Bond
SciTegic.value.DoubleValue
0.421

@<SCITEGIC>MOL_PROPERTY
Angle
SciTegic.value.DoubleValue
4.883

@<SCITEGIC>MOL_PROPERTY
Pdih
SciTegic.value.DoubleValue
13.711

@<SCITEGIC>MOL_PROPERTY
Idih
SciTegic.value.DoubleValue
0.000

@<SCITEGIC>MOL_PROPERTY
Tether
SciTegic.value.DoubleValue
0.000

@<TRIPOS>MOLECULE
guest-s17_confgen4.mol2 : confsearch ligand conformer 134
          25          25           1
SMALL
USER_CHARGES
 
@<TRIPOS>ATOM
       1    C1      19.733803   17.368403   23.480305 C.3        1 MOL1        -0.1684
       2    H1      19.315718   16.354471   23.416022 H          1 MOL1         0.0833
       3    H2      20.200470   17.431738   24.472619 H          1 MOL1         0.0833
       4    C2      18.551684   18.360908   23.385100 C.3        1 MOL1        -0.1684
       5    H3      18.009733   18.212526   22.441243 H          1 MOL1         0.0833
       6    H4      17.838598   18.099354   24.178886 H          1 MOL1         0.0833
       7    C3      18.928698   19.850722   23.556010 C.3        1 MOL1        -0.1684
       8    H5      19.662675   19.968007   24.364403 H          1 MOL1         0.0833
       9    H6      18.029363   20.379867   23.900054 H          1 MOL1         0.0833
      10    C4      19.405907   20.542792   22.250923 C.3        1 MOL1        -0.1760
      11    H7      19.175933   19.932286   21.368765 H          1 MOL1         0.0833
      12    H8      18.815184   21.461282   22.132673 H          1 MOL1         0.0833
      13    C5      20.900293   20.936163   22.245981 C.3        1 MOL1         0.1219
      14    H9      21.188293   21.252551   23.258713 H          1 MOL1         0.0790
      15    C6      21.859015   19.819119   21.777477 C.3        1 MOL1        -0.1760
      16    H10     21.624532   19.533615   20.743506 H          1 MOL1         0.0833
      17    H11     22.871499   20.242700   21.748025 H          1 MOL1         0.0833
      18    C7      21.905365   18.561917   22.679676 C.3        1 MOL1        -0.1684
      19    H12     21.900711   18.850833   23.739175 H          1 MOL1         0.0833
      20    H13     22.877564   18.077216   22.514981 H          1 MOL1         0.0833
      21    C8      20.806170   17.510830   22.374737 C.3        1 MOL1        -0.1684
      22    H14     21.302981   16.535968   22.274599 H          1 MOL1         0.0833
      23    H15     20.331470   17.695650   21.401943 H          1 MOL1         0.0833
      24    O1      21.062569   22.037640   21.360507 O.3        1 MOL1        -0.5508
      25    H16     22.003611   22.306200   21.411975 H          1 MOL1         0.3780
@<TRIPOS>BOND
    1     1     2    1
    2     1     3    1
    3     1     4    1
    4     4     5    1
    5     4     6    1
    6     4     7    1
    7     7     8    1
    8     7     9    1
    9     7    10    1
   10    10    11    1
   11    10    12    1
   12    10    13    1
   13    13    14    1
   14    13    15    1
   15    15    16    1
   16    15    17    1
   17    15    18    1
   18    18    19    1
   19    18    20    1
   20     1    21    1
   21    18    21    1
   22    21    22    1
   23    21    23    1
   24    13    24    1
   25    24    25    1
@<TRIPOS>SUBSTRUCTURE
       1 MOL1            1 RESIDUE      1      MOL     
@<SCITEGIC>MOL_PROPERTY
VConf Rank
SciTegic.value.IntegerValue
134

@<SCITEGIC>MOL_PROPERTY
Conf_Id
SciTegic.value.IntegerValue
30

@<SCITEGIC>MOL_PROPERTY
Delta U+W
SciTegic.value.DoubleValue
0.000

@<SCITEGIC>MOL_PROPERTY
U+W
SciTegic.value.DoubleValue
10.913

@<SCITEGIC>MOL_PROPERTY
Grad RMS
SciTegic.value.DoubleValue
0.000000

@<SCITEGIC>MOL_PROPERTY
U
SciTegic.value.DoubleValue
13.140

@<SCITEGIC>MOL_PROPERTY
W
SciTegic.value.DoubleValue
-2.227

@<SCITEGIC>MOL_PROPERTY
W(PB)
SciTegic.value.DoubleValue
-4.367

@<SCITEGIC>MOL_PROPERTY
W(SA)
SciTegic.value.DoubleValue
2.140

@<SCITEGIC>MOL_PROPERTY
Valence
SciTegic.value.DoubleValue
19.155

@<SCITEGIC>MOL_PROPERTY
Coulomb
SciTegic.value.DoubleValue
-8.157

@<SCITEGIC>MOL_PROPERTY
VdW
SciTegic.value.DoubleValue
2.142

@<SCITEGIC>MOL_PROPERTY
VdW6
SciTegic.value.DoubleValue
-11.576

@<SCITEGIC>MOL_PROPERTY
VdW12
SciTegic.value.DoubleValue
13.718

@<SCITEGIC>MOL_PROPERTY
Bond
SciTegic.value.DoubleValue
0.294

@<SCITEGIC>MOL_PROPERTY
Angle
SciTegic.value.DoubleValue
3.547

@<SCITEGIC>MOL_PROPERTY
Pdih
SciTegic.value.DoubleValue
15.314

@<SCITEGIC>MOL_PROPERTY
Idih
SciTegic.value.DoubleValue
0.000

@<SCITEGIC>MOL_PROPERTY
Tether
SciTegic.value.DoubleValue
0.000

@<TRIPOS>MOLECULE
guest-s17_confgen4.mol2 : confsearch ligand conformer 135
          25          25           1
SMALL
USER_CHARGES
 
@<TRIPOS>ATOM
       1    C1      21.419169   20.218735   24.191400 C.3        1 MOL1        -0.1684
       2    H1      21.667688   19.945019   25.225893 H          1 MOL1         0.0833
       3    H2      21.829645   21.227052   24.044499 H          1 MOL1         0.0833
       4    C2      19.878153   20.298923   24.061307 C.3        1 MOL1        -0.1684
       5    H3      19.491488   20.829723   24.941995 H          1 MOL1         0.0833
       6    H4      19.613134   20.940650   23.213070 H          1 MOL1         0.0833
       7    C3      19.171101   18.923356   23.962844 C.3        1 MOL1        -0.1684
       8    H5      18.417600   18.856187   24.759343 H          1 MOL1         0.0833
       9    H6      19.870865   18.105469   24.170279 H          1 MOL1         0.0833
      10    C4      18.461478   18.672851   22.608135 C.3        1 MOL1        -0.1760
      11    H7      18.159812   17.617926   22.564644 H          1 MOL1         0.0833
      12    H8      17.529972   19.253526   22.591450 H          1 MOL1         0.0833
      13    C5      19.256958   19.024089   21.325941 C.3        1 MOL1         0.1219
      14    H9      19.336808   20.115799   21.237742 H          1 MOL1         0.0790
      15    C6      20.678716   18.416076   21.247070 C.3        1 MOL1        -0.1760
      16    H10     20.710262   17.450881   21.768563 H          1 MOL1         0.0833
      17    H11     20.892984   18.184464   20.195195 H          1 MOL1         0.0833
      18    C7      21.819561   19.350315   21.740446 C.3        1 MOL1        -0.1684
      19    H12     21.625156   20.395544   21.464539 H          1 MOL1         0.0833
      20    H13     22.725555   19.066773   21.187259 H          1 MOL1         0.0833
      21    C8      22.158430   19.233579   23.247211 C.3        1 MOL1        -0.1684
      22    H14     23.234002   19.423224   23.366577 H          1 MOL1         0.0833
      23    H15     22.019061   18.198317   23.583571 H          1 MOL1         0.0833
      24    O1      18.501793   18.545883   20.219025 O.3        1 MOL1        -0.5508
      25    H16     18.969244   18.840939   19.409775 H          1 MOL1         0.3780
@<TRIPOS>BOND
    1     1     2    1
    2     1     3    1
    3     1     4    1
    4     4     5    1
    5     4     6    1
    6     4     7    1
    7     7     8    1
    8     7     9    1
    9     7    10    1
   10    10    11    1
   11    10    12    1
   12    10    13    1
   13    13    14    1
   14    13    15    1
   15    15    16    1
   16    15    17    1
   17    15    18    1
   18    18    19    1
   19    18    20    1
   20     1    21    1
   21    18    21    1
   22    21    22    1
   23    21    23    1
   24    13    24    1
   25    24    25    1
@<TRIPOS>SUBSTRUCTURE
       1 MOL1            1 RESIDUE      1      MOL     
@<SCITEGIC>MOL_PROPERTY
VConf Rank
SciTegic.value.IntegerValue
135

@<SCITEGIC>MOL_PROPERTY
Conf_Id
SciTegic.value.IntegerValue
162

@<SCITEGIC>MOL_PROPERTY
Delta U+W
SciTegic.value.DoubleValue
0.219

@<SCITEGIC>MOL_PROPERTY
U+W
SciTegic.value.DoubleValue
11.132

@<SCITEGIC>MOL_PROPERTY
Grad RMS
SciTegic.value.DoubleValue
0.000000

@<SCITEGIC>MOL_PROPERTY
U
SciTegic.value.DoubleValue
13.296

@<SCITEGIC>MOL_PROPERTY
W
SciTegic.value.DoubleValue
-2.164

@<SCITEGIC>MOL_PROPERTY
W(PB)
SciTegic.value.DoubleValue
-4.311

@<SCITEGIC>MOL_PROPERTY
W(SA)
SciTegic.value.DoubleValue
2.148

@<SCITEGIC>MOL_PROPERTY
Valence
SciTegic.value.DoubleValue
18.607

@<SCITEGIC>MOL_PROPERTY
Coulomb
SciTegic.value.DoubleValue
-8.339

@<SCITEGIC>MOL_PROPERTY
VdW
SciTegic.value.DoubleValue
3.028

@<SCITEGIC>MOL_PROPERTY
VdW6
SciTegic.value.DoubleValue
-12.271

@<SCITEGIC>MOL_PROPERTY
VdW12
SciTegic.value.DoubleValue
15.299

@<SCITEGIC>MOL_PROPERTY
Bond
SciTegic.value.DoubleValue
0.423

@<SCITEGIC>MOL_PROPERTY
Angle
SciTegic.value.DoubleValue
4.488

@<SCITEGIC>MOL_PROPERTY
Pdih
SciTegic.value.DoubleValue
13.696

@<SCITEGIC>MOL_PROPERTY
Idih
SciTegic.value.DoubleValue
0.000

@<SCITEGIC>MOL_PROPERTY
Tether
SciTegic.value.DoubleValue
0.000

@<TRIPOS>MOLECULE
guest-s17_confgen4.mol2 : confsearch ligand conformer 136
          25          25           1
SMALL
USER_CHARGES
 
@<TRIPOS>ATOM
       1    C1      21.057659   17.947411   24.035576 C.3        1 MOL1        -0.1684
       2    H1      20.138270   18.123111   24.608331 H          1 MOL1         0.0833
       3    H2      21.608034   17.193218   24.614580 H          1 MOL1         0.0833
       4    C2      20.711887   17.332641   22.656373 C.3        1 MOL1        -0.1684
       5    H3      21.538629   17.475436   21.947614 H          1 MOL1         0.0833
       6    H4      20.638094   16.246083   22.801574 H          1 MOL1         0.0833
       7    C3      19.360993   17.797591   22.044432 C.3        1 MOL1        -0.1684
       8    H5      18.596184   17.925681   22.822138 H          1 MOL1         0.0833
       9    H6      18.998470   16.974284   21.413659 H          1 MOL1         0.0833
      10    C4      19.442598   19.053832   21.138680 C.3        1 MOL1        -0.1760
      11    H7      20.401029   19.069068   20.605319 H          1 MOL1         0.0833
      12    H8      18.683394   18.950217   20.352495 H          1 MOL1         0.0833
      13    C5      19.180910   20.417003   21.827600 C.3        1 MOL1         0.1219
      14    H9      18.111852   20.466751   22.080051 H          1 MOL1         0.0790
      15    C6      19.973611   20.690850   23.127864 C.3        1 MOL1        -0.1760
      16    H10     19.859959   21.750784   23.389821 H          1 MOL1         0.0833
      17    H11     19.497132   20.153309   23.954661 H          1 MOL1         0.0833
      18    C7      21.486680   20.356324   23.049189 C.3        1 MOL1        -0.1684
      19    H12     22.061334   21.260630   23.290777 H          1 MOL1         0.0833
      20    H13     21.779382   20.105837   22.022694 H          1 MOL1         0.0833
      21    C8      21.936451   19.226068   24.006274 C.3        1 MOL1        -0.1684
      22    H14     21.987698   19.628598   25.027098 H          1 MOL1         0.0833
      23    H15     22.965324   18.943742   23.744693 H          1 MOL1         0.0833
      24    O1      19.481563   21.443057   20.889026 O.3        1 MOL1        -0.5508
      25    H16     19.313575   22.295793   21.340400 H          1 MOL1         0.3780
@<TRIPOS>BOND
    1     1     2    1
    2     1     3    1
    3     1     4    1
    4     4     5    1
    5     4     6    1
    6     4     7    1
    7     7     8    1
    8     7     9    1
    9     7    10    1
   10    10    11    1
   11    10    12    1
   12    10    13    1
   13    13    14    1
   14    13    15    1
   15    15    16    1
   16    15    17    1
   17    15    18    1
   18    18    19    1
   19    18    20    1
   20     1    21    1
   21    18    21    1
   22    21    22    1
   23    21    23    1
   24    13    24    1
   25    24    25    1
@<TRIPOS>SUBSTRUCTURE
       1 MOL1            1 RESIDUE      1      MOL     
@<SCITEGIC>MOL_PROPERTY
VConf Rank
SciTegic.value.IntegerValue
136

@<SCITEGIC>MOL_PROPERTY
Conf_Id
SciTegic.value.IntegerValue
155

@<SCITEGIC>MOL_PROPERTY
Delta U+W
SciTegic.value.DoubleValue
0.339

@<SCITEGIC>MOL_PROPERTY
U+W
SciTegic.value.DoubleValue
11.252

@<SCITEGIC>MOL_PROPERTY
Grad RMS
SciTegic.value.DoubleValue
0.000000

@<SCITEGIC>MOL_PROPERTY
U
SciTegic.value.DoubleValue
13.420

@<SCITEGIC>MOL_PROPERTY
W
SciTegic.value.DoubleValue
-2.167

@<SCITEGIC>MOL_PROPERTY
W(PB)
SciTegic.value.DoubleValue
-4.325

@<SCITEGIC>MOL_PROPERTY
W(SA)
SciTegic.value.DoubleValue
2.157

@<SCITEGIC>MOL_PROPERTY
Valence
SciTegic.value.DoubleValue
18.609

@<SCITEGIC>MOL_PROPERTY
Coulomb
SciTegic.value.DoubleValue
-8.052

@<SCITEGIC>MOL_PROPERTY
VdW
SciTegic.value.DoubleValue
2.863

@<SCITEGIC>MOL_PROPERTY
VdW6
SciTegic.value.DoubleValue
-12.524

@<SCITEGIC>MOL_PROPERTY
VdW12
SciTegic.value.DoubleValue
15.387

@<SCITEGIC>MOL_PROPERTY
Bond
SciTegic.value.DoubleValue
0.430

@<SCITEGIC>MOL_PROPERTY
Angle
SciTegic.value.DoubleValue
4.724

@<SCITEGIC>MOL_PROPERTY
Pdih
SciTegic.value.DoubleValue
13.455

@<SCITEGIC>MOL_PROPERTY
Idih
SciTegic.value.DoubleValue
0.000

@<SCITEGIC>MOL_PROPERTY
Tether
SciTegic.value.DoubleValue
0.000

@<TRIPOS>MOLECULE
guest-s17_confgen4.mol2 : confsearch ligand conformer 137
          25          25           1
SMALL
USER_CHARGES
 
@<TRIPOS>ATOM
       1    C1      21.599978   18.227951   23.893210 C.3        1 MOL1        -0.1684
       2    H1      21.473588   17.136960   23.883021 H          1 MOL1         0.0833
       3    H2      22.423607   18.420220   24.594246 H          1 MOL1         0.0833
       4    C2      22.078596   18.700053   22.495045 C.3        1 MOL1        -0.1684
       5    H3      22.316993   19.767588   22.535977 H          1 MOL1         0.0833
       6    H4      23.050720   18.227149   22.299974 H          1 MOL1         0.0833
       7    C3      21.163594   18.383561   21.276104 C.3        1 MOL1        -0.1684
       8    H5      21.421419   17.375465   20.924221 H          1 MOL1         0.0833
       9    H6      21.424923   19.058783   20.449968 H          1 MOL1         0.0833
      10    C4      19.625290   18.410707   21.487742 C.3        1 MOL1        -0.1760
      11    H7      19.161113   18.028234   20.569291 H          1 MOL1         0.0833
      12    H8      19.352098   17.660446   22.234888 H          1 MOL1         0.0833
      13    C5      18.958626   19.776745   21.825091 C.3        1 MOL1         0.1219
      14    H9      18.008833   19.568247   22.338112 H          1 MOL1         0.0790
      15    C6      19.761849   20.773920   22.697453 C.3        1 MOL1        -0.1760
      16    H10     20.683936   21.043713   22.174493 H          1 MOL1         0.0833
      17    H11     19.196780   21.714873   22.727941 H          1 MOL1         0.0833
      18    C7      20.058482   20.375067   24.174352 C.3        1 MOL1        -0.1684
      19    H12     19.194977   20.685314   24.778456 H          1 MOL1         0.0833
      20    H13     20.902598   20.974395   24.541227 H          1 MOL1         0.0833
      21    C8      20.318734   18.879034   24.491909 C.3        1 MOL1        -0.1684
      22    H14     19.429428   18.293629   24.238112 H          1 MOL1         0.0833
      23    H15     20.387426   18.779502   25.583813 H          1 MOL1         0.0833
      24    O1      18.673351   20.437737   20.597129 O.3        1 MOL1        -0.5508
      25    H16     18.121785   19.825581   20.067713 H          1 MOL1         0.3780
@<TRIPOS>BOND
    1     1     2    1
    2     1     3    1
    3     1     4    1
    4     4     5    1
    5     4     6    1
    6     4     7    1
    7     7     8    1
    8     7     9    1
    9     7    10    1
   10    10    11    1
   11    10    12    1
   12    10    13    1
   13    13    14    1
   14    13    15    1
   15    15    16    1
   16    15    17    1
   17    15    18    1
   18    18    19    1
   19    18    20    1
   20     1    21    1
   21    18    21    1
   22    21    22    1
   23    21    23    1
   24    13    24    1
   25    24    25    1
@<TRIPOS>SUBSTRUCTURE
       1 MOL1            1 RESIDUE      1      MOL     
@<SCITEGIC>MOL_PROPERTY
VConf Rank
SciTegic.value.IntegerValue
137

@<SCITEGIC>MOL_PROPERTY
Conf_Id
SciTegic.value.IntegerValue
146

@<SCITEGIC>MOL_PROPERTY
Delta U+W
SciTegic.value.DoubleValue
2.553

@<SCITEGIC>MOL_PROPERTY
U+W
SciTegic.value.DoubleValue
13.466

@<SCITEGIC>MOL_PROPERTY
Grad RMS
SciTegic.value.DoubleValue
0.000000

@<SCITEGIC>MOL_PROPERTY
U
SciTegic.value.DoubleValue
15.643

@<SCITEGIC>MOL_PROPERTY
W
SciTegic.value.DoubleValue
-2.176

@<SCITEGIC>MOL_PROPERTY
W(PB)
SciTegic.value.DoubleValue
-4.307

@<SCITEGIC>MOL_PROPERTY
W(SA)
SciTegic.value.DoubleValue
2.131

@<SCITEGIC>MOL_PROPERTY
Valence
SciTegic.value.DoubleValue
18.916

@<SCITEGIC>MOL_PROPERTY
Coulomb
SciTegic.value.DoubleValue
-7.506

@<SCITEGIC>MOL_PROPERTY
VdW
SciTegic.value.DoubleValue
4.232

@<SCITEGIC>MOL_PROPERTY
VdW6
SciTegic.value.DoubleValue
-13.632

@<SCITEGIC>MOL_PROPERTY
VdW12
SciTegic.value.DoubleValue
17.864

@<SCITEGIC>MOL_PROPERTY
Bond
SciTegic.value.DoubleValue
0.735

@<SCITEGIC>MOL_PROPERTY
Angle
SciTegic.value.DoubleValue
9.140

@<SCITEGIC>MOL_PROPERTY
Pdih
SciTegic.value.DoubleValue
9.042

@<SCITEGIC>MOL_PROPERTY
Idih
SciTegic.value.DoubleValue
0.000

@<SCITEGIC>MOL_PROPERTY
Tether
SciTegic.value.DoubleValue
0.000

@<TRIPOS>MOLECULE
guest-s17_confgen4.mol2 : confsearch ligand conformer 138
          25          25           1
SMALL
USER_CHARGES
 
@<TRIPOS>ATOM
       1    C1      19.448641   18.365314   24.322383 C.3        1 MOL1        -0.1684
       2    H1      18.995478   17.365220   24.291424 H          1 MOL1         0.0833
       3    H2      19.322197   18.715861   25.355844 H          1 MOL1         0.0833
       4    C2      18.641696   19.320845   23.408085 C.3        1 MOL1        -0.1684
       5    H3      17.616518   19.359173   23.800950 H          1 MOL1         0.0833
       6    H4      19.013139   20.347197   23.506970 H          1 MOL1         0.0833
       7    C3      18.546779   18.918300   21.914991 C.3        1 MOL1        -0.1684
       8    H5      17.854953   19.618526   21.427097 H          1 MOL1         0.0833
       9    H6      18.075436   17.929450   21.834650 H          1 MOL1         0.0833
      10    C4      19.868061   18.913805   21.102651 C.3        1 MOL1        -0.1760
      11    H7      20.416772   17.982363   21.274122 H          1 MOL1         0.0833
      12    H8      19.593233   18.878332   20.039756 H          1 MOL1         0.0833
      13    C5      20.794343   20.133244   21.345646 C.3        1 MOL1         0.1219
      14    H9      20.210963   20.959232   21.774197 H          1 MOL1         0.0790
      15    C6      22.009048   19.834187   22.260424 C.3        1 MOL1        -0.1760
      16    H10     22.571645   18.986655   21.847031 H          1 MOL1         0.0833
      17    H11     22.689892   20.694079   22.211651 H          1 MOL1         0.0833
      18    C7      21.709211   19.567889   23.760687 C.3        1 MOL1        -0.1684
      19    H12     21.180585   20.418706   24.209534 H          1 MOL1         0.0833
      20    H13     22.677272   19.526794   24.278520 H          1 MOL1         0.0833
      21    C8      20.969720   18.236065   24.050311 C.3        1 MOL1        -0.1684
      22    H14     21.419634   17.783091   24.944420 H          1 MOL1         0.0833
      23    H15     21.159077   17.509235   23.252385 H          1 MOL1         0.0833
      24    O1      21.306548   20.556905   20.087272 O.3        1 MOL1        -0.5508
      25    H16     21.840255   21.361426   20.254973 H          1 MOL1         0.3780
@<TRIPOS>BOND
    1     1     2    1
    2     1     3    1
    3     1     4    1
    4     4     5    1
    5     4     6    1
    6     4     7    1
    7     7     8    1
    8     7     9    1
    9     7    10    1
   10    10    11    1
   11    10    12    1
   12    10    13    1
   13    13    14    1
   14    13    15    1
   15    15    16    1
   16    15    17    1
   17    15    18    1
   18    18    19    1
   19    18    20    1
   20     1    21    1
   21    18    21    1
   22    21    22    1
   23    21    23    1
   24    13    24    1
   25    24    25    1
@<TRIPOS>SUBSTRUCTURE
       1 MOL1            1 RESIDUE      1      MOL     
@<SCITEGIC>MOL_PROPERTY
VConf Rank
SciTegic.value.IntegerValue
138

@<SCITEGIC>MOL_PROPERTY
Conf_Id
SciTegic.value.IntegerValue
62

@<SCITEGIC>MOL_PROPERTY
Delta U+W
SciTegic.value.DoubleValue
-1.779

@<SCITEGIC>MOL_PROPERTY
U+W
SciTegic.value.DoubleValue
9.134

@<SCITEGIC>MOL_PROPERTY
Grad RMS
SciTegic.value.DoubleValue
0.000000

@<SCITEGIC>MOL_PROPERTY
U
SciTegic.value.DoubleValue
11.364

@<SCITEGIC>MOL_PROPERTY
W
SciTegic.value.DoubleValue
-2.230

@<SCITEGIC>MOL_PROPERTY
W(PB)
SciTegic.value.DoubleValue
-4.359

@<SCITEGIC>MOL_PROPERTY
W(SA)
SciTegic.value.DoubleValue
2.129

@<SCITEGIC>MOL_PROPERTY
Valence
SciTegic.value.DoubleValue
16.582

@<SCITEGIC>MOL_PROPERTY
Coulomb
SciTegic.value.DoubleValue
-8.150

@<SCITEGIC>MOL_PROPERTY
VdW
SciTegic.value.DoubleValue
2.933

@<SCITEGIC>MOL_PROPERTY
VdW6
SciTegic.value.DoubleValue
-12.531

@<SCITEGIC>MOL_PROPERTY
VdW12
SciTegic.value.DoubleValue
15.464

@<SCITEGIC>MOL_PROPERTY
Bond
SciTegic.value.DoubleValue
0.439

@<SCITEGIC>MOL_PROPERTY
Angle
SciTegic.value.DoubleValue
5.099

@<SCITEGIC>MOL_PROPERTY
Pdih
SciTegic.value.DoubleValue
11.044

@<SCITEGIC>MOL_PROPERTY
Idih
SciTegic.value.DoubleValue
0.000

@<SCITEGIC>MOL_PROPERTY
Tether
SciTegic.value.DoubleValue
0.000

@<TRIPOS>MOLECULE
guest-s17_confgen4.mol2 : confsearch ligand conformer 139
          25          25           1
SMALL
USER_CHARGES
 
@<TRIPOS>ATOM
       1    C1      20.909379   20.978404   22.532662 C.3        1 MOL1        -0.1684
       2    H1      21.694901   20.503233   23.131237 H          1 MOL1         0.0833
       3    H2      21.213176   22.031793   22.463966 H          1 MOL1         0.0833
       4    C2      19.556733   20.937890   23.286560 C.3        1 MOL1        -0.1684
       5    H3      19.691409   21.479216   24.232983 H          1 MOL1         0.0833
       6    H4      18.808890   21.510113   22.721063 H          1 MOL1         0.0833
       7    C3      18.974718   19.540210   23.618929 C.3        1 MOL1        -0.1684
       8    H5      18.432438   19.134455   22.757367 H          1 MOL1         0.0833
       9    H6      18.201776   19.685663   24.386020 H          1 MOL1         0.0833
      10    C4      20.000120   18.505031   24.153970 C.3        1 MOL1        -0.1760
      11    H7      20.864219   19.004531   24.609034 H          1 MOL1         0.0833
      12    H8      19.514212   17.962233   24.975315 H          1 MOL1         0.0833
      13    C5      20.465896   17.451980   23.116893 C.3        1 MOL1         0.1219
      14    H9      19.573794   16.981035   22.679462 H          1 MOL1         0.0790
      15    C6      21.352661   17.972096   21.957999 C.3        1 MOL1        -0.1760
      16    H10     22.255869   18.454017   22.351391 H          1 MOL1         0.0833
      17    H11     21.711650   17.090904   21.409878 H          1 MOL1         0.0833
      18    C7      20.626996   18.888879   20.936976 C.3        1 MOL1        -0.1684
      19    H12     19.548746   18.693227   20.943536 H          1 MOL1         0.0833
      20    H13     20.951934   18.602108   19.927458 H          1 MOL1         0.0833
      21    C8      20.906277   20.405609   21.093351 C.3        1 MOL1        -0.1684
      22    H14     20.186445   20.965684   20.481271 H          1 MOL1         0.0833
      23    H15     21.892406   20.612048   20.655384 H          1 MOL1         0.0833
      24    O1      21.210525   16.460548   23.813325 O.3        1 MOL1        -0.5508
      25    H16     20.617023   16.090821   24.499769 H          1 MOL1         0.3780
@<TRIPOS>BOND
    1     1     2    1
    2     1     3    1
    3     1     4    1
    4     4     5    1
    5     4     6    1
    6     4     7    1
    7     7     8    1
    8     7     9    1
    9     7    10    1
   10    10    11    1
   11    10    12    1
   12    10    13    1
   13    13    14    1
   14    13    15    1
   15    15    16    1
   16    15    17    1
   17    15    18    1
   18    18    19    1
   19    18    20    1
   20     1    21    1
   21    18    21    1
   22    21    22    1
   23    21    23    1
   24    13    24    1
   25    24    25    1
@<TRIPOS>SUBSTRUCTURE
       1 MOL1            1 RESIDUE      1      MOL     
@<SCITEGIC>MOL_PROPERTY
VConf Rank
SciTegic.value.IntegerValue
139

@<SCITEGIC>MOL_PROPERTY
Conf_Id
SciTegic.value.IntegerValue
121

@<SCITEGIC>MOL_PROPERTY
Delta U+W
SciTegic.value.DoubleValue
-1.283

@<SCITEGIC>MOL_PROPERTY
U+W
SciTegic.value.DoubleValue
9.630

@<SCITEGIC>MOL_PROPERTY
Grad RMS
SciTegic.value.DoubleValue
0.000000

@<SCITEGIC>MOL_PROPERTY
U
SciTegic.value.DoubleValue
11.876

@<SCITEGIC>MOL_PROPERTY
W
SciTegic.value.DoubleValue
-2.246

@<SCITEGIC>MOL_PROPERTY
W(PB)
SciTegic.value.DoubleValue
-4.376

@<SCITEGIC>MOL_PROPERTY
W(SA)
SciTegic.value.DoubleValue
2.130

@<SCITEGIC>MOL_PROPERTY
Valence
SciTegic.value.DoubleValue
17.153

@<SCITEGIC>MOL_PROPERTY
Coulomb
SciTegic.value.DoubleValue
-7.966

@<SCITEGIC>MOL_PROPERTY
VdW
SciTegic.value.DoubleValue
2.689

@<SCITEGIC>MOL_PROPERTY
VdW6
SciTegic.value.DoubleValue
-12.458

@<SCITEGIC>MOL_PROPERTY
VdW12
SciTegic.value.DoubleValue
15.147

@<SCITEGIC>MOL_PROPERTY
Bond
SciTegic.value.DoubleValue
0.421

@<SCITEGIC>MOL_PROPERTY
Angle
SciTegic.value.DoubleValue
5.258

@<SCITEGIC>MOL_PROPERTY
Pdih
SciTegic.value.DoubleValue
11.475

@<SCITEGIC>MOL_PROPERTY
Idih
SciTegic.value.DoubleValue
0.000

@<SCITEGIC>MOL_PROPERTY
Tether
SciTegic.value.DoubleValue
0.000

@<TRIPOS>MOLECULE
guest-s17_confgen4.mol2 : confsearch ligand conformer 140
          25          25           1
SMALL
USER_CHARGES
 
@<TRIPOS>ATOM
       1    C1      19.945512   19.559812   20.871187 C.3        1 MOL1        -0.1684
       2    H1      21.024318   19.366819   20.878652 H          1 MOL1         0.0833
       3    H2      19.700626   19.720093   19.812423 H          1 MOL1         0.0833
       4    C2      19.627429   20.877179   21.621578 C.3        1 MOL1        -0.1684
       5    H3      20.159976   21.686884   21.104225 H          1 MOL1         0.0833
       6    H4      18.559003   21.107841   21.513208 H          1 MOL1         0.0833
       7    C3      20.007026   20.944589   23.123007 C.3        1 MOL1        -0.1684
       8    H5      19.225331   20.485539   23.738775 H          1 MOL1         0.0833
       9    H6      19.997404   22.004397   23.412249 H          1 MOL1         0.0833
      10    C4      21.398140   20.357095   23.482485 C.3        1 MOL1        -0.1760
      11    H7      22.070385   20.371473   22.616074 H          1 MOL1         0.0833
      12    H8      21.859132   21.031663   24.216143 H          1 MOL1         0.0833
      13    C5      21.367846   18.946920   24.123113 C.3        1 MOL1         0.1219
      14    H9      20.682392   18.976771   24.982323 H          1 MOL1         0.0790
      15    C6      20.937853   17.779599   23.199069 C.3        1 MOL1        -0.1760
      16    H10     21.595104   17.721035   22.322803 H          1 MOL1         0.0833
      17    H11     21.108009   16.845990   23.751124 H          1 MOL1         0.0833
      18    C7      19.444337   17.796493   22.776657 C.3        1 MOL1        -0.1684
      19    H12     18.845402   18.356928   23.503419 H          1 MOL1         0.0833
      20    H13     19.058910   16.769455   22.837173 H          1 MOL1         0.0833
      21    C8      19.168753   18.303472   21.337997 C.3        1 MOL1        -0.1684
      22    H14     18.090740   18.479714   21.222577 H          1 MOL1         0.0833
      23    H15     19.412587   17.488811   20.642467 H          1 MOL1         0.0833
      24    O1      22.679135   18.663273   24.594801 O.3        1 MOL1        -0.5508
      25    H16     22.633214   17.800729   25.057466 H          1 MOL1         0.3780
@<TRIPOS>BOND
    1     1     2    1
    2     1     3    1
    3     1     4    1
    4     4     5    1
    5     4     6    1
    6     4     7    1
    7     7     8    1
    8     7     9    1
    9     7    10    1
   10    10    11    1
   11    10    12    1
   12    10    13    1
   13    13    14    1
   14    13    15    1
   15    15    16    1
   16    15    17    1
   17    15    18    1
   18    18    19    1
   19    18    20    1
   20     1    21    1
   21    18    21    1
   22    21    22    1
   23    21    23    1
   24    13    24    1
   25    24    25    1
@<TRIPOS>SUBSTRUCTURE
       1 MOL1            1 RESIDUE      1      MOL     
@<SCITEGIC>MOL_PROPERTY
VConf Rank
SciTegic.value.IntegerValue
140

@<SCITEGIC>MOL_PROPERTY
Conf_Id
SciTegic.value.IntegerValue
24

@<SCITEGIC>MOL_PROPERTY
Delta U+W
SciTegic.value.DoubleValue
-1.236

@<SCITEGIC>MOL_PROPERTY
U+W
SciTegic.value.DoubleValue
9.678

@<SCITEGIC>MOL_PROPERTY
Grad RMS
SciTegic.value.DoubleValue
0.000000

@<SCITEGIC>MOL_PROPERTY
U
SciTegic.value.DoubleValue
11.876

@<SCITEGIC>MOL_PROPERTY
W
SciTegic.value.DoubleValue
-2.199

@<SCITEGIC>MOL_PROPERTY
W(PB)
SciTegic.value.DoubleValue
-4.335

@<SCITEGIC>MOL_PROPERTY
W(SA)
SciTegic.value.DoubleValue
2.137

@<SCITEGIC>MOL_PROPERTY
Valence
SciTegic.value.DoubleValue
17.153

@<SCITEGIC>MOL_PROPERTY
Coulomb
SciTegic.value.DoubleValue
-7.966

@<SCITEGIC>MOL_PROPERTY
VdW
SciTegic.value.DoubleValue
2.689

@<SCITEGIC>MOL_PROPERTY
VdW6
SciTegic.value.DoubleValue
-12.458

@<SCITEGIC>MOL_PROPERTY
VdW12
SciTegic.value.DoubleValue
15.147

@<SCITEGIC>MOL_PROPERTY
Bond
SciTegic.value.DoubleValue
0.421

@<SCITEGIC>MOL_PROPERTY
Angle
SciTegic.value.DoubleValue
5.258

@<SCITEGIC>MOL_PROPERTY
Pdih
SciTegic.value.DoubleValue
11.475

@<SCITEGIC>MOL_PROPERTY
Idih
SciTegic.value.DoubleValue
0.000

@<SCITEGIC>MOL_PROPERTY
Tether
SciTegic.value.DoubleValue
0.000

@<TRIPOS>MOLECULE
guest-s17_confgen4.mol2 : confsearch ligand conformer 141
          25          25           1
SMALL
USER_CHARGES
 
@<TRIPOS>ATOM
       1    C1      21.800185   20.503403   23.364682 C.3        1 MOL1        -0.1684
       2    H1      22.040889   20.616904   24.430495 H          1 MOL1         0.0833
       3    H2      22.443107   21.221025   22.836928 H          1 MOL1         0.0833
       4    C2      22.203294   19.075973   22.908452 C.3        1 MOL1        -0.1684
       5    H3      22.287930   19.029065   21.815324 H          1 MOL1         0.0833
       6    H4      23.223810   18.899556   23.275180 H          1 MOL1         0.0833
       7    C3      21.307620   17.920620   23.419908 C.3        1 MOL1        -0.1684
       8    H5      20.934256   18.134517   24.430504 H          1 MOL1         0.0833
       9    H6      21.955203   17.039796   23.529394 H          1 MOL1         0.0833
      10    C4      20.148297   17.512289   22.467456 C.3        1 MOL1        -0.1760
      11    H7      20.460246   17.587681   21.417940 H          1 MOL1         0.0833
      12    H8      19.960423   16.444155   22.642795 H          1 MOL1         0.0833
      13    C5      18.817360   18.269984   22.694573 C.3        1 MOL1         0.1219
      14    H9      18.760691   18.566742   23.750224 H          1 MOL1         0.0790
      15    C6      18.602073   19.516961   21.799862 C.3        1 MOL1        -0.1760
      16    H10     18.395821   19.195591   20.770517 H          1 MOL1         0.0833
      17    H11     17.690723   20.021607   22.146843 H          1 MOL1         0.0833
      18    C7      19.750293   20.556531   21.760798 C.3        1 MOL1        -0.1684
      19    H12     19.365719   21.471214   21.289399 H          1 MOL1         0.0833
      20    H13     20.542354   20.207430   21.088148 H          1 MOL1         0.0833
      21    C8      20.323429   20.918627   23.154266 C.3        1 MOL1        -0.1684
      22    H14     19.705264   20.499566   23.956710 H          1 MOL1         0.0833
      23    H15     20.254802   22.006602   23.290180 H          1 MOL1         0.0833
      24    O1      17.743434   17.374920   22.435241 O.3        1 MOL1        -0.5508
      25    H16     17.825642   17.108167   21.496594 H          1 MOL1         0.3780
@<TRIPOS>BOND
    1     1     2    1
    2     1     3    1
    3     1     4    1
    4     4     5    1
    5     4     6    1
    6     4     7    1
    7     7     8    1
    8     7     9    1
    9     7    10    1
   10    10    11    1
   11    10    12    1
   12    10    13    1
   13    13    14    1
   14    13    15    1
   15    15    16    1
   16    15    17    1
   17    15    18    1
   18    18    19    1
   19    18    20    1
   20     1    21    1
   21    18    21    1
   22    21    22    1
   23    21    23    1
   24    13    24    1
   25    24    25    1
@<TRIPOS>SUBSTRUCTURE
       1 MOL1            1 RESIDUE      1      MOL     
@<SCITEGIC>MOL_PROPERTY
VConf Rank
SciTegic.value.IntegerValue
141

@<SCITEGIC>MOL_PROPERTY
Conf_Id
SciTegic.value.IntegerValue
167

@<SCITEGIC>MOL_PROPERTY
Delta U+W
SciTegic.value.DoubleValue
0.388

@<SCITEGIC>MOL_PROPERTY
U+W
SciTegic.value.DoubleValue
11.301

@<SCITEGIC>MOL_PROPERTY
Grad RMS
SciTegic.value.DoubleValue
0.000000

@<SCITEGIC>MOL_PROPERTY
U
SciTegic.value.DoubleValue
13.202

@<SCITEGIC>MOL_PROPERTY
W
SciTegic.value.DoubleValue
-1.901

@<SCITEGIC>MOL_PROPERTY
W(PB)
SciTegic.value.DoubleValue
-4.065

@<SCITEGIC>MOL_PROPERTY
W(SA)
SciTegic.value.DoubleValue
2.163

@<SCITEGIC>MOL_PROPERTY
Valence
SciTegic.value.DoubleValue
18.957

@<SCITEGIC>MOL_PROPERTY
Coulomb
SciTegic.value.DoubleValue
-8.753

@<SCITEGIC>MOL_PROPERTY
VdW
SciTegic.value.DoubleValue
2.998

@<SCITEGIC>MOL_PROPERTY
VdW6
SciTegic.value.DoubleValue
-12.294

@<SCITEGIC>MOL_PROPERTY
VdW12
SciTegic.value.DoubleValue
15.292

@<SCITEGIC>MOL_PROPERTY
Bond
SciTegic.value.DoubleValue
0.419

@<SCITEGIC>MOL_PROPERTY
Angle
SciTegic.value.DoubleValue
4.543

@<SCITEGIC>MOL_PROPERTY
Pdih
SciTegic.value.DoubleValue
13.996

@<SCITEGIC>MOL_PROPERTY
Idih
SciTegic.value.DoubleValue
0.000

@<SCITEGIC>MOL_PROPERTY
Tether
SciTegic.value.DoubleValue
0.000

@<TRIPOS>MOLECULE
guest-s17_confgen4.mol2 : confsearch ligand conformer 142
          25          25           1
SMALL
USER_CHARGES
 
@<TRIPOS>ATOM
       1    C1      21.611145   20.583329   21.791634 C.3        1 MOL1        -0.1684
       2    H1      21.511110   21.664087   21.960326 H          1 MOL1         0.0833
       3    H2      22.496428   20.464435   21.152058 H          1 MOL1         0.0833
       4    C2      20.380369   20.084089   20.990850 C.3        1 MOL1        -0.1684
       5    H3      19.463221   20.560868   21.354615 H          1 MOL1         0.0833
       6    H4      20.492115   20.456835   19.963422 H          1 MOL1         0.0833
       7    C3      20.205396   18.544517   20.928033 C.3        1 MOL1        -0.1684
       8    H5      21.167348   18.032344   21.058790 H          1 MOL1         0.0833
       9    H6      19.881432   18.290372   19.909524 H          1 MOL1         0.0833
      10    C4      19.138536   17.969306   21.899213 C.3        1 MOL1        -0.1760
      11    H7      18.176693   18.467863   21.721615 H          1 MOL1         0.0833
      12    H8      18.980373   16.916557   21.629971 H          1 MOL1         0.0833
      13    C5      19.468366   18.022272   23.411766 C.3        1 MOL1         0.1219
      14    H9      20.446060   17.552170   23.582866 H          1 MOL1         0.0790
      15    C6      19.461167   19.452246   24.011640 C.3        1 MOL1        -0.1760
      16    H10     18.861781   20.120365   23.385041 H          1 MOL1         0.0833
      17    H11     18.937223   19.441984   24.976689 H          1 MOL1         0.0833
      18    C7      20.863596   20.065759   24.259753 C.3        1 MOL1        -0.1684
      19    H12     21.271879   19.615810   25.175065 H          1 MOL1         0.0833
      20    H13     20.750605   21.136131   24.479045 H          1 MOL1         0.0833
      21    C8      21.917366   19.881816   23.138770 C.3        1 MOL1        -0.1684
      22    H14     22.124764   18.818102   22.975533 H          1 MOL1         0.0833
      23    H15     22.864974   20.293464   23.512141 H          1 MOL1         0.0833
      24    O1      18.481813   17.251250   24.087340 O.3        1 MOL1        -0.5508
      25    H16     18.738249   17.233872   25.033097 H          1 MOL1         0.3780
@<TRIPOS>BOND
    1     1     2    1
    2     1     3    1
    3     1     4    1
    4     4     5    1
    5     4     6    1
    6     4     7    1
    7     7     8    1
    8     7     9    1
    9     7    10    1
   10    10    11    1
   11    10    12    1
   12    10    13    1
   13    13    14    1
   14    13    15    1
   15    15    16    1
   16    15    17    1
   17    15    18    1
   18    18    19    1
   19    18    20    1
   20     1    21    1
   21    18    21    1
   22    21    22    1
   23    21    23    1
   24    13    24    1
   25    24    25    1
@<TRIPOS>SUBSTRUCTURE
       1 MOL1            1 RESIDUE      1      MOL     
@<SCITEGIC>MOL_PROPERTY
VConf Rank
SciTegic.value.IntegerValue
142

@<SCITEGIC>MOL_PROPERTY
Conf_Id
SciTegic.value.IntegerValue
60

@<SCITEGIC>MOL_PROPERTY
Delta U+W
SciTegic.value.DoubleValue
-1.838

@<SCITEGIC>MOL_PROPERTY
U+W
SciTegic.value.DoubleValue
9.075

@<SCITEGIC>MOL_PROPERTY
Grad RMS
SciTegic.value.DoubleValue
0.000000

@<SCITEGIC>MOL_PROPERTY
U
SciTegic.value.DoubleValue
11.150

@<SCITEGIC>MOL_PROPERTY
W
SciTegic.value.DoubleValue
-2.074

@<SCITEGIC>MOL_PROPERTY
W(PB)
SciTegic.value.DoubleValue
-4.196

@<SCITEGIC>MOL_PROPERTY
W(SA)
SciTegic.value.DoubleValue
2.121

@<SCITEGIC>MOL_PROPERTY
Valence
SciTegic.value.DoubleValue
16.582

@<SCITEGIC>MOL_PROPERTY
Coulomb
SciTegic.value.DoubleValue
-8.361

@<SCITEGIC>MOL_PROPERTY
VdW
SciTegic.value.DoubleValue
2.928

@<SCITEGIC>MOL_PROPERTY
VdW6
SciTegic.value.DoubleValue
-12.539

@<SCITEGIC>MOL_PROPERTY
VdW12
SciTegic.value.DoubleValue
15.467

@<SCITEGIC>MOL_PROPERTY
Bond
SciTegic.value.DoubleValue
0.441

@<SCITEGIC>MOL_PROPERTY
Angle
SciTegic.value.DoubleValue
5.093

@<SCITEGIC>MOL_PROPERTY
Pdih
SciTegic.value.DoubleValue
11.049

@<SCITEGIC>MOL_PROPERTY
Idih
SciTegic.value.DoubleValue
0.000

@<SCITEGIC>MOL_PROPERTY
Tether
SciTegic.value.DoubleValue
0.000

@<TRIPOS>MOLECULE
guest-s17_confgen4.mol2 : confsearch ligand conformer 143
          25          25           1
SMALL
USER_CHARGES
 
@<TRIPOS>ATOM
       1    C1      20.752122   19.460278   24.655198 C.3        1 MOL1        -0.1684
       2    H1      21.772849   19.338349   25.042178 H          1 MOL1         0.0833
       3    H2      20.130977   19.699418   25.529217 H          1 MOL1         0.0833
       4    C2      20.253881   18.105767   24.091530 C.3        1 MOL1        -0.1684
       5    H3      20.257879   17.386416   24.921795 H          1 MOL1         0.0833
       6    H4      19.200853   18.180226   23.797020 H          1 MOL1         0.0833
       7    C3      21.097627   17.490358   22.946875 C.3        1 MOL1        -0.1684
       8    H5      20.692503   16.490891   22.737389 H          1 MOL1         0.0833
       9    H6      22.124567   17.327103   23.300842 H          1 MOL1         0.0833
      10    C4      21.144963   18.275238   21.610282 C.3        1 MOL1        -0.1760
      11    H7      21.880550   19.083522   21.672430 H          1 MOL1         0.0833
      12    H8      21.551930   17.595248   20.850063 H          1 MOL1         0.0833
      13    C5      19.780116   18.832050   21.128745 C.3        1 MOL1         0.1219
      14    H9      18.962379   18.291913   21.624439 H          1 MOL1         0.0790
      15    C6      19.598847   20.352331   21.363890 C.3        1 MOL1        -0.1760
      16    H10     20.433116   20.892020   20.897014 H          1 MOL1         0.0833
      17    H11     18.699726   20.668351   20.818457 H          1 MOL1         0.0833
      18    C7      19.440506   20.820448   22.836317 C.3        1 MOL1        -0.1684
      19    H12     18.585520   20.323841   23.312921 H          1 MOL1         0.0833
      20    H13     19.173307   21.885640   22.806706 H          1 MOL1         0.0833
      21    C8      20.718760   20.684598   23.703761 C.3        1 MOL1        -0.1684
      22    H14     20.801906   21.582385   24.331533 H          1 MOL1         0.0833
      23    H15     21.615266   20.709354   23.074105 H          1 MOL1         0.0833
      24    O1      19.675966   18.605021   19.728112 O.3        1 MOL1        -0.5508
      25    H16     19.722598   17.634922   19.596775 H          1 MOL1         0.3780
@<TRIPOS>BOND
    1     1     2    1
    2     1     3    1
    3     1     4    1
    4     4     5    1
    5     4     6    1
    6     4     7    1
    7     7     8    1
    8     7     9    1
    9     7    10    1
   10    10    11    1
   11    10    12    1
   12    10    13    1
   13    13    14    1
   14    13    15    1
   15    15    16    1
   16    15    17    1
   17    15    18    1
   18    18    19    1
   19    18    20    1
   20     1    21    1
   21    18    21    1
   22    21    22    1
   23    21    23    1
   24    13    24    1
   25    24    25    1
@<TRIPOS>SUBSTRUCTURE
       1 MOL1            1 RESIDUE      1      MOL     
@<SCITEGIC>MOL_PROPERTY
VConf Rank
SciTegic.value.IntegerValue
143

@<SCITEGIC>MOL_PROPERTY
Conf_Id
SciTegic.value.IntegerValue
129

@<SCITEGIC>MOL_PROPERTY
Delta U+W
SciTegic.value.DoubleValue
-1.846

@<SCITEGIC>MOL_PROPERTY
U+W
SciTegic.value.DoubleValue
9.067

@<SCITEGIC>MOL_PROPERTY
Grad RMS
SciTegic.value.DoubleValue
0.000000

@<SCITEGIC>MOL_PROPERTY
U
SciTegic.value.DoubleValue
11.150

@<SCITEGIC>MOL_PROPERTY
W
SciTegic.value.DoubleValue
-2.083

@<SCITEGIC>MOL_PROPERTY
W(PB)
SciTegic.value.DoubleValue
-4.217

@<SCITEGIC>MOL_PROPERTY
W(SA)
SciTegic.value.DoubleValue
2.134

@<SCITEGIC>MOL_PROPERTY
Valence
SciTegic.value.DoubleValue
16.583

@<SCITEGIC>MOL_PROPERTY
Coulomb
SciTegic.value.DoubleValue
-8.361

@<SCITEGIC>MOL_PROPERTY
VdW
SciTegic.value.DoubleValue
2.928

@<SCITEGIC>MOL_PROPERTY
VdW6
SciTegic.value.DoubleValue
-12.539

@<SCITEGIC>MOL_PROPERTY
VdW12
SciTegic.value.DoubleValue
15.467

@<SCITEGIC>MOL_PROPERTY
Bond
SciTegic.value.DoubleValue
0.441

@<SCITEGIC>MOL_PROPERTY
Angle
SciTegic.value.DoubleValue
5.093

@<SCITEGIC>MOL_PROPERTY
Pdih
SciTegic.value.DoubleValue
11.049

@<SCITEGIC>MOL_PROPERTY
Idih
SciTegic.value.DoubleValue
0.000

@<SCITEGIC>MOL_PROPERTY
Tether
SciTegic.value.DoubleValue
0.000

@<TRIPOS>MOLECULE
guest-s17_confgen4.mol2 : confsearch ligand conformer 144
          25          25           1
SMALL
USER_CHARGES
 
@<TRIPOS>ATOM
       1    C1      20.597497   20.938306   21.562982 C.3        1 MOL1        -0.1684
       2    H1      19.779455   21.429063   21.018491 H          1 MOL1         0.0833
       3    H2      21.486734   21.557652   21.382458 H          1 MOL1         0.0833
       4    C2      20.867761   19.547827   20.935496 C.3        1 MOL1        -0.1684
       5    H3      21.159121   19.713694   19.889359 H          1 MOL1         0.0833
       6    H4      21.748256   19.085952   21.396583 H          1 MOL1         0.0833
       7    C3      19.675526   18.558485   20.928787 C.3        1 MOL1        -0.1684
       8    H5      19.983520   17.673916   20.354567 H          1 MOL1         0.0833
       9    H6      18.840093   19.000571   20.369226 H          1 MOL1         0.0833
      10    C4      19.157194   18.072265   22.307263 C.3        1 MOL1        -0.1760
      11    H7      18.483258   18.817684   22.741659 H          1 MOL1         0.0833
      12    H8      18.519011   17.198350   22.118554 H          1 MOL1         0.0833
      13    C5      20.261772   17.688123   23.325554 C.3        1 MOL1         0.1219
      14    H9      21.201078   17.485815   22.793909 H          1 MOL1         0.0790
      15    C6      20.514869   18.752910   24.422399 C.3        1 MOL1        -0.1760
      16    H10     19.571543   18.980041   24.935976 H          1 MOL1         0.0833
      17    H11     21.166406   18.300630   25.182122 H          1 MOL1         0.0833
      18    C7      21.181477   20.080412   23.970302 C.3        1 MOL1        -0.1684
      19    H12     22.149547   19.886629   23.490632 H          1 MOL1         0.0833
      20    H13     21.421409   20.645268   24.881529 H          1 MOL1         0.0833
      21    C8      20.289609   20.985961   23.081990 C.3        1 MOL1        -0.1684
      22    H14     20.429015   22.026298   23.406512 H          1 MOL1         0.0833
      23    H15     19.228917   20.782821   23.267640 H          1 MOL1         0.0833
      24    O1      19.863475   16.491619   23.982747 O.3        1 MOL1        -0.5508
      25    H16     19.028825   16.698123   24.451424 H          1 MOL1         0.3780
@<TRIPOS>BOND
    1     1     2    1
    2     1     3    1
    3     1     4    1
    4     4     5    1
    5     4     6    1
    6     4     7    1
    7     7     8    1
    8     7     9    1
    9     7    10    1
   10    10    11    1
   11    10    12    1
   12    10    13    1
   13    13    14    1
   14    13    15    1
   15    15    16    1
   16    15    17    1
   17    15    18    1
   18    18    19    1
   19    18    20    1
   20     1    21    1
   21    18    21    1
   22    21    22    1
   23    21    23    1
   24    13    24    1
   25    24    25    1
@<TRIPOS>SUBSTRUCTURE
       1 MOL1            1 RESIDUE      1      MOL     
@<SCITEGIC>MOL_PROPERTY
VConf Rank
SciTegic.value.IntegerValue
144

@<SCITEGIC>MOL_PROPERTY
Conf_Id
SciTegic.value.IntegerValue
140

@<SCITEGIC>MOL_PROPERTY
Delta U+W
SciTegic.value.DoubleValue
-1.702

@<SCITEGIC>MOL_PROPERTY
U+W
SciTegic.value.DoubleValue
9.211

@<SCITEGIC>MOL_PROPERTY
Grad RMS
SciTegic.value.DoubleValue
0.000000

@<SCITEGIC>MOL_PROPERTY
U
SciTegic.value.DoubleValue
11.181

@<SCITEGIC>MOL_PROPERTY
W
SciTegic.value.DoubleValue
-1.969

@<SCITEGIC>MOL_PROPERTY
W(PB)
SciTegic.value.DoubleValue
-4.093

@<SCITEGIC>MOL_PROPERTY
W(SA)
SciTegic.value.DoubleValue
2.124

@<SCITEGIC>MOL_PROPERTY
Valence
SciTegic.value.DoubleValue
16.954

@<SCITEGIC>MOL_PROPERTY
Coulomb
SciTegic.value.DoubleValue
-8.661

@<SCITEGIC>MOL_PROPERTY
VdW
SciTegic.value.DoubleValue
2.887

@<SCITEGIC>MOL_PROPERTY
VdW6
SciTegic.value.DoubleValue
-12.561

@<SCITEGIC>MOL_PROPERTY
VdW12
SciTegic.value.DoubleValue
15.448

@<SCITEGIC>MOL_PROPERTY
Bond
SciTegic.value.DoubleValue
0.433

@<SCITEGIC>MOL_PROPERTY
Angle
SciTegic.value.DoubleValue
5.120

@<SCITEGIC>MOL_PROPERTY
Pdih
SciTegic.value.DoubleValue
11.401

@<SCITEGIC>MOL_PROPERTY
Idih
SciTegic.value.DoubleValue
0.000

@<SCITEGIC>MOL_PROPERTY
Tether
SciTegic.value.DoubleValue
0.000

@<TRIPOS>MOLECULE
guest-s17_confgen4.mol2 : confsearch ligand conformer 145
          25          25           1
SMALL
USER_CHARGES
 
@<TRIPOS>ATOM
       1    C1      18.590758   19.211714   21.464944 C.3        1 MOL1        -0.1684
       2    H1      18.635837   18.915018   20.408323 H          1 MOL1         0.0833
       3    H2      17.544488   19.491267   21.649575 H          1 MOL1         0.0833
       4    C2      19.460843   20.478984   21.668480 C.3        1 MOL1        -0.1684
       5    H3      20.393661   20.402650   21.098544 H          1 MOL1         0.0833
       6    H4      18.924078   21.316618   21.202322 H          1 MOL1         0.0833
       7    C3      19.753091   20.855380   23.144104 C.3        1 MOL1        -0.1684
       8    H5      18.975781   20.464194   23.813101 H          1 MOL1         0.0833
       9    H6      19.678697   21.948340   23.226978 H          1 MOL1         0.0833
      10    C4      21.166412   20.457776   23.649524 C.3        1 MOL1        -0.1760
      11    H7      21.923054   20.897981   22.987007 H          1 MOL1         0.0833
      12    H8      21.311866   20.936228   24.627359 H          1 MOL1         0.0833
      13    C5      21.448084   18.943693   23.820124 C.3        1 MOL1         0.1219
      14    H9      20.672079   18.500865   24.458553 H          1 MOL1         0.0790
      15    C6      21.538559   18.158074   22.486262 C.3        1 MOL1        -0.1760
      16    H10     21.780923   18.836548   21.661961 H          1 MOL1         0.0833
      17    H11     22.388179   17.463344   22.532213 H          1 MOL1         0.0833
      18    C7      20.285105   17.315225   22.134506 C.3        1 MOL1        -0.1684
      19    H12     20.311769   16.402403   22.745323 H          1 MOL1         0.0833
      20    H13     20.362917   16.978182   21.091987 H          1 MOL1         0.0833
      21    C8      18.904691   17.983131   22.355023 C.3        1 MOL1        -0.1684
      22    H14     18.762499   18.232217   23.412822 H          1 MOL1         0.0833
      23    H15     18.138574   17.224398   22.144797 H          1 MOL1         0.0833
      24    O1      22.694000   18.819501   24.494238 O.3        1 MOL1        -0.5508
      25    H16     23.366795   19.223885   23.908778 H          1 MOL1         0.3780
@<TRIPOS>BOND
    1     1     2    1
    2     1     3    1
    3     1     4    1
    4     4     5    1
    5     4     6    1
    6     4     7    1
    7     7     8    1
    8     7     9    1
    9     7    10    1
   10    10    11    1
   11    10    12    1
   12    10    13    1
   13    13    14    1
   14    13    15    1
   15    15    16    1
   16    15    17    1
   17    15    18    1
   18    18    19    1
   19    18    20    1
   20     1    21    1
   21    18    21    1
   22    21    22    1
   23    21    23    1
   24    13    24    1
   25    24    25    1
@<TRIPOS>SUBSTRUCTURE
       1 MOL1            1 RESIDUE      1      MOL     
@<SCITEGIC>MOL_PROPERTY
VConf Rank
SciTegic.value.IntegerValue
145

@<SCITEGIC>MOL_PROPERTY
Conf_Id
SciTegic.value.IntegerValue
68

@<SCITEGIC>MOL_PROPERTY
Delta U+W
SciTegic.value.DoubleValue
-1.765

@<SCITEGIC>MOL_PROPERTY
U+W
SciTegic.value.DoubleValue
9.148

@<SCITEGIC>MOL_PROPERTY
Grad RMS
SciTegic.value.DoubleValue
0.000000

@<SCITEGIC>MOL_PROPERTY
U
SciTegic.value.DoubleValue
11.181

@<SCITEGIC>MOL_PROPERTY
W
SciTegic.value.DoubleValue
-2.032

@<SCITEGIC>MOL_PROPERTY
W(PB)
SciTegic.value.DoubleValue
-4.147

@<SCITEGIC>MOL_PROPERTY
W(SA)
SciTegic.value.DoubleValue
2.114

@<SCITEGIC>MOL_PROPERTY
Valence
SciTegic.value.DoubleValue
16.955

@<SCITEGIC>MOL_PROPERTY
Coulomb
SciTegic.value.DoubleValue
-8.661

@<SCITEGIC>MOL_PROPERTY
VdW
SciTegic.value.DoubleValue
2.887

@<SCITEGIC>MOL_PROPERTY
VdW6
SciTegic.value.DoubleValue
-12.561

@<SCITEGIC>MOL_PROPERTY
VdW12
SciTegic.value.DoubleValue
15.448

@<SCITEGIC>MOL_PROPERTY
Bond
SciTegic.value.DoubleValue
0.433

@<SCITEGIC>MOL_PROPERTY
Angle
SciTegic.value.DoubleValue
5.121

@<SCITEGIC>MOL_PROPERTY
Pdih
SciTegic.value.DoubleValue
11.402

@<SCITEGIC>MOL_PROPERTY
Idih
SciTegic.value.DoubleValue
0.000

@<SCITEGIC>MOL_PROPERTY
Tether
SciTegic.value.DoubleValue
0.000

@<TRIPOS>MOLECULE
guest-s17_confgen4.mol2 : confsearch ligand conformer 146
          25          25           1
SMALL
USER_CHARGES
 
@<TRIPOS>ATOM
       1    C1      21.817682   20.108540   22.261576 C.3        1 MOL1        -0.1684
       2    H1      22.781820   20.620642   22.138019 H          1 MOL1         0.0833
       3    H2      21.201609   20.487972   21.438547 H          1 MOL1         0.0833
       4    C2      21.220691   20.530648   23.629322 C.3        1 MOL1        -0.1684
       5    H3      21.471548   19.803262   24.412007 H          1 MOL1         0.0833
       6    H4      21.719136   21.461130   23.933912 H          1 MOL1         0.0833
       7    C3      19.696386   20.818475   23.613448 C.3        1 MOL1        -0.1684
       8    H5      19.477897   21.583353   22.855623 H          1 MOL1         0.0833
       9    H6      19.433164   21.275483   24.577135 H          1 MOL1         0.0833
      10    C4      18.759558   19.600224   23.397183 C.3        1 MOL1        -0.1760
      11    H7      18.942460   18.837466   24.163540 H          1 MOL1         0.0833
      12    H8      17.735411   19.952793   23.580019 H          1 MOL1         0.0833
      13    C5      18.823971   18.984096   21.975520 C.3        1 MOL1         0.1219
      14    H9      19.250762   19.721257   21.285601 H          1 MOL1         0.0790
      15    C6      19.632341   17.667083   21.875239 C.3        1 MOL1        -0.1760
      16    H10     19.016395   16.849134   22.271656 H          1 MOL1         0.0833
      17    H11     19.789706   17.437249   20.813403 H          1 MOL1         0.0833
      18    C7      20.997025   17.616171   22.609480 C.3        1 MOL1        -0.1684
      19    H12     21.390802   16.596821   22.497283 H          1 MOL1         0.0833
      20    H13     20.856343   17.740755   23.689293 H          1 MOL1         0.0833
      21    C8      22.085083   18.590335   22.092495 C.3        1 MOL1        -0.1684
      22    H14     22.287943   18.379864   21.033658 H          1 MOL1         0.0833
      23    H15     23.016411   18.353564   22.625004 H          1 MOL1         0.0833
      24    O1      17.498317   18.705949   21.541975 O.3        1 MOL1        -0.5508
      25    H16     17.128136   18.060866   22.178938 H          1 MOL1         0.3780
@<TRIPOS>BOND
    1     1     2    1
    2     1     3    1
    3     1     4    1
    4     4     5    1
    5     4     6    1
    6     4     7    1
    7     7     8    1
    8     7     9    1
    9     7    10    1
   10    10    11    1
   11    10    12    1
   12    10    13    1
   13    13    14    1
   14    13    15    1
   15    15    16    1
   16    15    17    1
   17    15    18    1
   18    18    19    1
   19    18    20    1
   20     1    21    1
   21    18    21    1
   22    21    22    1
   23    21    23    1
   24    13    24    1
   25    24    25    1
@<TRIPOS>SUBSTRUCTURE
       1 MOL1            1 RESIDUE      1      MOL     
@<SCITEGIC>MOL_PROPERTY
VConf Rank
SciTegic.value.IntegerValue
146

@<SCITEGIC>MOL_PROPERTY
Conf_Id
SciTegic.value.IntegerValue
165

@<SCITEGIC>MOL_PROPERTY
Delta U+W
SciTegic.value.DoubleValue
-1.999

@<SCITEGIC>MOL_PROPERTY
U+W
SciTegic.value.DoubleValue
8.915

@<SCITEGIC>MOL_PROPERTY
Grad RMS
SciTegic.value.DoubleValue
0.000000

@<SCITEGIC>MOL_PROPERTY
U
SciTegic.value.DoubleValue
10.935

@<SCITEGIC>MOL_PROPERTY
W
SciTegic.value.DoubleValue
-2.020

@<SCITEGIC>MOL_PROPERTY
W(PB)
SciTegic.value.DoubleValue
-4.135

@<SCITEGIC>MOL_PROPERTY
W(SA)
SciTegic.value.DoubleValue
2.115

@<SCITEGIC>MOL_PROPERTY
Valence
SciTegic.value.DoubleValue
16.757

@<SCITEGIC>MOL_PROPERTY
Coulomb
SciTegic.value.DoubleValue
-8.731

@<SCITEGIC>MOL_PROPERTY
VdW
SciTegic.value.DoubleValue
2.908

@<SCITEGIC>MOL_PROPERTY
VdW6
SciTegic.value.DoubleValue
-12.597

@<SCITEGIC>MOL_PROPERTY
VdW12
SciTegic.value.DoubleValue
15.506

@<SCITEGIC>MOL_PROPERTY
Bond
SciTegic.value.DoubleValue
0.434

@<SCITEGIC>MOL_PROPERTY
Angle
SciTegic.value.DoubleValue
5.069

@<SCITEGIC>MOL_PROPERTY
Pdih
SciTegic.value.DoubleValue
11.254

@<SCITEGIC>MOL_PROPERTY
Idih
SciTegic.value.DoubleValue
0.000

@<SCITEGIC>MOL_PROPERTY
Tether
SciTegic.value.DoubleValue
0.000

@<TRIPOS>MOLECULE
guest-s17_confgen4.mol2 : confsearch ligand conformer 147
          25          25           1
SMALL
USER_CHARGES
 
@<TRIPOS>ATOM
       1    C1      20.259013   18.326190   24.283665 C.3        1 MOL1        -0.1684
       2    H1      20.317014   17.835522   25.264973 H          1 MOL1         0.0833
       3    H2      19.189020   18.333836   24.047321 H          1 MOL1         0.0833
       4    C2      21.036518   17.432269   23.282744 C.3        1 MOL1        -0.1684
       5    H3      21.952410   17.089097   23.783124 H          1 MOL1         0.0833
       6    H4      20.449961   16.524894   23.084779 H          1 MOL1         0.0833
       7    C3      21.458608   18.074003   21.937249 C.3        1 MOL1        -0.1684
       8    H5      22.075361   17.338560   21.402984 H          1 MOL1         0.0833
       9    H6      22.130546   18.921719   22.113798 H          1 MOL1         0.0833
      10    C4      20.304709   18.485879   20.987036 C.3        1 MOL1        -0.1760
      11    H7      20.758588   18.818431   20.043682 H          1 MOL1         0.0833
      12    H8      19.713111   17.594772   20.740749 H          1 MOL1         0.0833
      13    C5      19.345447   19.596926   21.480141 C.3        1 MOL1         0.1219
      14    H9      18.637573   19.170231   22.200353 H          1 MOL1         0.0790
      15    C6      20.048861   20.817311   22.128257 C.3        1 MOL1        -0.1760
      16    H10     21.088521   20.894372   21.788718 H          1 MOL1         0.0833
      17    H11     19.561219   21.732008   21.764847 H          1 MOL1         0.0833
      18    C7      19.979062   20.853806   23.678349 C.3        1 MOL1        -0.1684
      19    H12     18.928184   20.807307   23.995335 H          1 MOL1         0.0833
      20    H13     20.341999   21.837541   24.005938 H          1 MOL1         0.0833
      21    C8      20.793875   19.773846   24.437714 C.3        1 MOL1        -0.1684
      22    H14     20.749008   20.030474   25.505019 H          1 MOL1         0.0833
      23    H15     21.857830   19.832504   24.174717 H          1 MOL1         0.0833
      24    O1      18.602642   20.049218   20.353559 O.3        1 MOL1        -0.5508
      25    H16     18.134460   19.267874   19.991971 H          1 MOL1         0.3780
@<TRIPOS>BOND
    1     1     2    1
    2     1     3    1
    3     1     4    1
    4     4     5    1
    5     4     6    1
    6     4     7    1
    7     7     8    1
    8     7     9    1
    9     7    10    1
   10    10    11    1
   11    10    12    1
   12    10    13    1
   13    13    14    1
   14    13    15    1
   15    15    16    1
   16    15    17    1
   17    15    18    1
   18    18    19    1
   19    18    20    1
   20     1    21    1
   21    18    21    1
   22    21    22    1
   23    21    23    1
   24    13    24    1
   25    24    25    1
@<TRIPOS>SUBSTRUCTURE
       1 MOL1            1 RESIDUE      1      MOL     
@<SCITEGIC>MOL_PROPERTY
VConf Rank
SciTegic.value.IntegerValue
147

@<SCITEGIC>MOL_PROPERTY
Conf_Id
SciTegic.value.IntegerValue
133

@<SCITEGIC>MOL_PROPERTY
Delta U+W
SciTegic.value.DoubleValue
-2.139

@<SCITEGIC>MOL_PROPERTY
U+W
SciTegic.value.DoubleValue
8.774

@<SCITEGIC>MOL_PROPERTY
Grad RMS
SciTegic.value.DoubleValue
0.000000

@<SCITEGIC>MOL_PROPERTY
U
SciTegic.value.DoubleValue
10.905

@<SCITEGIC>MOL_PROPERTY
W
SciTegic.value.DoubleValue
-2.131

@<SCITEGIC>MOL_PROPERTY
W(PB)
SciTegic.value.DoubleValue
-4.281

@<SCITEGIC>MOL_PROPERTY
W(SA)
SciTegic.value.DoubleValue
2.150

@<SCITEGIC>MOL_PROPERTY
Valence
SciTegic.value.DoubleValue
16.378

@<SCITEGIC>MOL_PROPERTY
Coulomb
SciTegic.value.DoubleValue
-8.448

@<SCITEGIC>MOL_PROPERTY
VdW
SciTegic.value.DoubleValue
2.976

@<SCITEGIC>MOL_PROPERTY
VdW6
SciTegic.value.DoubleValue
-12.570

@<SCITEGIC>MOL_PROPERTY
VdW12
SciTegic.value.DoubleValue
15.545

@<SCITEGIC>MOL_PROPERTY
Bond
SciTegic.value.DoubleValue
0.439

@<SCITEGIC>MOL_PROPERTY
Angle
SciTegic.value.DoubleValue
5.049

@<SCITEGIC>MOL_PROPERTY
Pdih
SciTegic.value.DoubleValue
10.889

@<SCITEGIC>MOL_PROPERTY
Idih
SciTegic.value.DoubleValue
0.000

@<SCITEGIC>MOL_PROPERTY
Tether
SciTegic.value.DoubleValue
0.000

@<TRIPOS>MOLECULE
guest-s17_confgen4.mol2 : confsearch ligand conformer 148
          25          25           1
SMALL
USER_CHARGES
 
@<TRIPOS>ATOM
       1    C1      22.034706   19.616500   23.076035 C.3        1 MOL1        -0.1684
       2    H1      23.101353   19.762331   23.295313 H          1 MOL1         0.0833
       3    H2      21.544785   20.490233   23.520300 H          1 MOL1         0.0833
       4    C2      21.572565   18.314759   23.781312 C.3        1 MOL1        -0.1684
       5    H3      21.619219   17.456879   23.098322 H          1 MOL1         0.0833
       6    H4      22.302171   18.090610   24.571530 H          1 MOL1         0.0833
       7    C3      20.181095   18.401143   24.461917 C.3        1 MOL1        -0.1684
       8    H5      20.175975   19.235914   25.176142 H          1 MOL1         0.0833
       9    H6      20.049047   17.494488   25.067981 H          1 MOL1         0.0833
      10    C4      18.952141   18.523467   23.521864 C.3        1 MOL1        -0.1760
      11    H7      18.920247   17.681784   22.819958 H          1 MOL1         0.0833
      12    H8      18.057627   18.406737   24.148562 H          1 MOL1         0.0833
      13    C5      18.849147   19.874767   22.768497 C.3        1 MOL1         0.1219
      14    H9      19.460340   20.620568   23.290111 H          1 MOL1         0.0790
      15    C6      19.272503   19.817795   21.280119 C.3        1 MOL1        -0.1760
      16    H10     18.457247   19.353127   20.709192 H          1 MOL1         0.0833
      17    H11     19.361332   20.843853   20.900604 H          1 MOL1         0.0833
      18    C7      20.573833   19.044954   20.943543 C.3        1 MOL1        -0.1684
      19    H12     20.679274   19.042772   19.850119 H          1 MOL1         0.0833
      20    H13     20.472017   17.987516   21.213266 H          1 MOL1         0.0833
      21    C8      21.883215   19.627150   21.532534 C.3        1 MOL1        -0.1684
      22    H14     22.021133   20.653999   21.167667 H          1 MOL1         0.0833
      23    H15     22.716971   19.049015   21.111088 H          1 MOL1         0.0833
      24    O1      17.495803   20.313239   22.809899 O.3        1 MOL1        -0.5508
      25    H16     17.468621   21.187314   22.367530 H          1 MOL1         0.3780
@<TRIPOS>BOND
    1     1     2    1
    2     1     3    1
    3     1     4    1
    4     4     5    1
    5     4     6    1
    6     4     7    1
    7     7     8    1
    8     7     9    1
    9     7    10    1
   10    10    11    1
   11    10    12    1
   12    10    13    1
   13    13    14    1
   14    13    15    1
   15    15    16    1
   16    15    17    1
   17    15    18    1
   18    18    19    1
   19    18    20    1
   20     1    21    1
   21    18    21    1
   22    21    22    1
   23    21    23    1
   24    13    24    1
   25    24    25    1
@<TRIPOS>SUBSTRUCTURE
       1 MOL1            1 RESIDUE      1      MOL     
@<SCITEGIC>MOL_PROPERTY
VConf Rank
SciTegic.value.IntegerValue
148

@<SCITEGIC>MOL_PROPERTY
Conf_Id
SciTegic.value.IntegerValue
95

@<SCITEGIC>MOL_PROPERTY
Delta U+W
SciTegic.value.DoubleValue
-2.190

@<SCITEGIC>MOL_PROPERTY
U+W
SciTegic.value.DoubleValue
8.723

@<SCITEGIC>MOL_PROPERTY
Grad RMS
SciTegic.value.DoubleValue
0.000000

@<SCITEGIC>MOL_PROPERTY
U
SciTegic.value.DoubleValue
10.905

@<SCITEGIC>MOL_PROPERTY
W
SciTegic.value.DoubleValue
-2.182

@<SCITEGIC>MOL_PROPERTY
W(PB)
SciTegic.value.DoubleValue
-4.296

@<SCITEGIC>MOL_PROPERTY
W(SA)
SciTegic.value.DoubleValue
2.114

@<SCITEGIC>MOL_PROPERTY
Valence
SciTegic.value.DoubleValue
16.377

@<SCITEGIC>MOL_PROPERTY
Coulomb
SciTegic.value.DoubleValue
-8.448

@<SCITEGIC>MOL_PROPERTY
VdW
SciTegic.value.DoubleValue
2.976

@<SCITEGIC>MOL_PROPERTY
VdW6
SciTegic.value.DoubleValue
-12.570

@<SCITEGIC>MOL_PROPERTY
VdW12
SciTegic.value.DoubleValue
15.546

@<SCITEGIC>MOL_PROPERTY
Bond
SciTegic.value.DoubleValue
0.439

@<SCITEGIC>MOL_PROPERTY
Angle
SciTegic.value.DoubleValue
5.049

@<SCITEGIC>MOL_PROPERTY
Pdih
SciTegic.value.DoubleValue
10.889

@<SCITEGIC>MOL_PROPERTY
Idih
SciTegic.value.DoubleValue
0.000

@<SCITEGIC>MOL_PROPERTY
Tether
SciTegic.value.DoubleValue
0.000

@<TRIPOS>MOLECULE
guest-s17_confgen4.mol2 : confsearch ligand conformer 149
          25          25           1
SMALL
USER_CHARGES
 
@<TRIPOS>ATOM
       1    C1      20.852176   20.404252   23.887713 C.3        1 MOL1        -0.1684
       2    H1      21.296027   21.090414   24.621934 H          1 MOL1         0.0833
       3    H2      19.775812   20.522618   24.047913 H          1 MOL1         0.0833
       4    C2      21.317538   18.967841   24.267686 C.3        1 MOL1        -0.1684
       5    H3      22.339364   19.048256   24.663092 H          1 MOL1         0.0833
       6    H4      20.707771   18.605875   25.106516 H          1 MOL1         0.0833
       7    C3      21.348925   17.888551   23.153844 C.3        1 MOL1        -0.1684
       8    H5      21.811024   16.986610   23.577854 H          1 MOL1         0.0833
       9    H6      22.053431   18.194365   22.373986 H          1 MOL1         0.0833
      10    C4      19.986654   17.457893   22.533141 C.3        1 MOL1        -0.1760
      11    H7      20.172788   16.996547   21.554424 H          1 MOL1         0.0833
      12    H8      19.583825   16.657141   23.167008 H          1 MOL1         0.0833
      13    C5      18.876451   18.528998   22.385233 C.3        1 MOL1         0.1219
      14    H9      18.672239   18.945106   23.377184 H          1 MOL1         0.0790
      15    C6      19.143157   19.686485   21.380403 C.3        1 MOL1        -0.1760
      16    H10     18.830059   19.347551   20.383704 H          1 MOL1         0.0833
      17    H11     18.475996   20.520922   21.631201 H          1 MOL1         0.0833
      18    C7      20.592543   20.225132   21.238430 C.3        1 MOL1        -0.1684
      19    H12     20.596757   20.952988   20.415679 H          1 MOL1         0.0833
      20    H13     21.242179   19.423271   20.873653 H          1 MOL1         0.0833
      21    C8      21.222982   20.929171   22.475516 C.3        1 MOL1        -0.1684
      22    H14     20.925928   21.986185   22.438810 H          1 MOL1         0.0833
      23    H15     22.315851   20.928855   22.365596 H          1 MOL1         0.0833
      24    O1      17.695627   17.860796   21.956542 O.3        1 MOL1        -0.5508
      25    H16     17.497980   17.176125   22.629014 H          1 MOL1         0.3780
@<TRIPOS>BOND
    1     1     2    1
    2     1     3    1
    3     1     4    1
    4     4     5    1
    5     4     6    1
    6     4     7    1
    7     7     8    1
    8     7     9    1
    9     7    10    1
   10    10    11    1
   11    10    12    1
   12    10    13    1
   13    13    14    1
   14    13    15    1
   15    15    16    1
   16    15    17    1
   17    15    18    1
   18    18    19    1
   19    18    20    1
   20     1    21    1
   21    18    21    1
   22    21    22    1
   23    21    23    1
   24    13    24    1
   25    24    25    1
@<TRIPOS>SUBSTRUCTURE
       1 MOL1            1 RESIDUE      1      MOL     
@<SCITEGIC>MOL_PROPERTY
VConf Rank
SciTegic.value.IntegerValue
149

@<SCITEGIC>MOL_PROPERTY
Conf_Id
SciTegic.value.IntegerValue
161

@<SCITEGIC>MOL_PROPERTY
Delta U+W
SciTegic.value.DoubleValue
2.120

@<SCITEGIC>MOL_PROPERTY
U+W
SciTegic.value.DoubleValue
13.033

@<SCITEGIC>MOL_PROPERTY
Grad RMS
SciTegic.value.DoubleValue
0.000000

@<SCITEGIC>MOL_PROPERTY
U
SciTegic.value.DoubleValue
15.076

@<SCITEGIC>MOL_PROPERTY
W
SciTegic.value.DoubleValue
-2.043

@<SCITEGIC>MOL_PROPERTY
W(PB)
SciTegic.value.DoubleValue
-4.186

@<SCITEGIC>MOL_PROPERTY
W(SA)
SciTegic.value.DoubleValue
2.143

@<SCITEGIC>MOL_PROPERTY
Valence
SciTegic.value.DoubleValue
18.884

@<SCITEGIC>MOL_PROPERTY
Coulomb
SciTegic.value.DoubleValue
-8.074

@<SCITEGIC>MOL_PROPERTY
VdW
SciTegic.value.DoubleValue
4.266

@<SCITEGIC>MOL_PROPERTY
VdW6
SciTegic.value.DoubleValue
-13.486

@<SCITEGIC>MOL_PROPERTY
VdW12
SciTegic.value.DoubleValue
17.752

@<SCITEGIC>MOL_PROPERTY
Bond
SciTegic.value.DoubleValue
0.713

@<SCITEGIC>MOL_PROPERTY
Angle
SciTegic.value.DoubleValue
8.955

@<SCITEGIC>MOL_PROPERTY
Pdih
SciTegic.value.DoubleValue
9.215

@<SCITEGIC>MOL_PROPERTY
Idih
SciTegic.value.DoubleValue
0.000

@<SCITEGIC>MOL_PROPERTY
Tether
SciTegic.value.DoubleValue
0.000

@<TRIPOS>MOLECULE
guest-s17_confgen4.mol2 : confsearch ligand conformer 150
          25          25           1
SMALL
USER_CHARGES
 
@<TRIPOS>ATOM
       1    C1      19.183226   18.582161   24.134033 C.3        1 MOL1        -0.1684
       2    H1      18.573108   18.492714   25.043287 H          1 MOL1         0.0833
       3    H2      19.381468   17.547247   23.827620 H          1 MOL1         0.0833
       4    C2      20.510523   19.283818   24.515657 C.3        1 MOL1        -0.1684
       5    H3      20.400237   20.375813   24.476013 H          1 MOL1         0.0833
       6    H4      20.701972   19.049660   25.571918 H          1 MOL1         0.0833
       7    C3      21.759355   18.815511   23.717886 C.3        1 MOL1        -0.1684
       8    H5      21.720742   17.736072   23.518871 H          1 MOL1         0.0833
       9    H6      22.627742   18.958343   24.375689 H          1 MOL1         0.0833
      10    C4      22.048380   19.606014   22.415563 C.3        1 MOL1        -0.1760
      11    H7      21.759775   20.656119   22.545771 H          1 MOL1         0.0833
      12    H8      23.136911   19.627469   22.273179 H          1 MOL1         0.0833
      13    C5      21.445573   19.023018   21.112271 C.3        1 MOL1         0.1219
      14    H9      21.988806   18.097371   20.873838 H          1 MOL1         0.0790
      15    C6      19.938173   18.680104   21.144509 C.3        1 MOL1        -0.1760
      16    H10     19.603635   18.502120   20.113738 H          1 MOL1         0.0833
      17    H11     19.803337   17.715331   21.645302 H          1 MOL1         0.0833
      18    C7      19.033626   19.767522   21.783686 C.3        1 MOL1        -0.1684
      19    H12     18.269806   20.066059   21.052807 H          1 MOL1         0.0833
      20    H13     19.598868   20.683455   21.990245 H          1 MOL1         0.0833
      21    C8      18.313484   19.309007   23.074361 C.3        1 MOL1        -0.1684
      22    H14     17.484095   18.643692   22.798172 H          1 MOL1         0.0833
      23    H15     17.848342   20.188705   23.539715 H          1 MOL1         0.0833
      24    O1      21.663933   19.963002   20.069623 O.3        1 MOL1        -0.5508
      25    H16     21.057828   20.709730   20.250850 H          1 MOL1         0.3780
@<TRIPOS>BOND
    1     1     2    1
    2     1     3    1
    3     1     4    1
    4     4     5    1
    5     4     6    1
    6     4     7    1
    7     7     8    1
    8     7     9    1
    9     7    10    1
   10    10    11    1
   11    10    12    1
   12    10    13    1
   13    13    14    1
   14    13    15    1
   15    15    16    1
   16    15    17    1
   17    15    18    1
   18    18    19    1
   19    18    20    1
   20     1    21    1
   21    18    21    1
   22    21    22    1
   23    21    23    1
   24    13    24    1
   25    24    25    1
@<TRIPOS>SUBSTRUCTURE
       1 MOL1            1 RESIDUE      1      MOL     
@<SCITEGIC>MOL_PROPERTY
VConf Rank
SciTegic.value.IntegerValue
150

@<SCITEGIC>MOL_PROPERTY
Conf_Id
SciTegic.value.IntegerValue
164

@<SCITEGIC>MOL_PROPERTY
Delta U+W
SciTegic.value.DoubleValue
0.008

@<SCITEGIC>MOL_PROPERTY
U+W
SciTegic.value.DoubleValue
10.922

@<SCITEGIC>MOL_PROPERTY
Grad RMS
SciTegic.value.DoubleValue
0.000000

@<SCITEGIC>MOL_PROPERTY
U
SciTegic.value.DoubleValue
12.433

@<SCITEGIC>MOL_PROPERTY
W
SciTegic.value.DoubleValue
-1.511

@<SCITEGIC>MOL_PROPERTY
W(PB)
SciTegic.value.DoubleValue
-3.669

@<SCITEGIC>MOL_PROPERTY
W(SA)
SciTegic.value.DoubleValue
2.157

@<SCITEGIC>MOL_PROPERTY
Valence
SciTegic.value.DoubleValue
19.007

@<SCITEGIC>MOL_PROPERTY
Coulomb
SciTegic.value.DoubleValue
-9.373

@<SCITEGIC>MOL_PROPERTY
VdW
SciTegic.value.DoubleValue
2.799

@<SCITEGIC>MOL_PROPERTY
VdW6
SciTegic.value.DoubleValue
-12.597

@<SCITEGIC>MOL_PROPERTY
VdW12
SciTegic.value.DoubleValue
15.396

@<SCITEGIC>MOL_PROPERTY
Bond
SciTegic.value.DoubleValue
0.425

@<SCITEGIC>MOL_PROPERTY
Angle
SciTegic.value.DoubleValue
4.784

@<SCITEGIC>MOL_PROPERTY
Pdih
SciTegic.value.DoubleValue
13.799

@<SCITEGIC>MOL_PROPERTY
Idih
SciTegic.value.DoubleValue
0.000

@<SCITEGIC>MOL_PROPERTY
Tether
SciTegic.value.DoubleValue
0.000

@<TRIPOS>MOLECULE
guest-s17_confgen4.mol2 : confsearch ligand conformer 151
          25          25           1
SMALL
USER_CHARGES
 
@<TRIPOS>ATOM
       1    C1      18.630532   19.499877   22.006355 C.3        1 MOL1        -0.1684
       2    H1      18.535797   19.530892   23.097678 H          1 MOL1         0.0833
       3    H2      17.611439   19.674777   21.635501 H          1 MOL1         0.0833
       4    C2      19.052666   18.084120   21.540359 C.3        1 MOL1        -0.1684
       5    H3      18.274723   17.383085   21.872410 H          1 MOL1         0.0833
       6    H4      19.039100   18.044315   20.442753 H          1 MOL1         0.0833
       7    C3      20.417583   17.551234   22.046121 C.3        1 MOL1        -0.1684
       8    H5      21.234046   17.928015   21.419633 H          1 MOL1         0.0833
       9    H6      20.422882   16.465211   21.880205 H          1 MOL1         0.0833
      10    C4      20.716810   17.813743   23.546231 C.3        1 MOL1        -0.1760
      11    H7      19.788038   17.941018   24.115409 H          1 MOL1         0.0833
      12    H8      21.182317   16.904571   23.949900 H          1 MOL1         0.0833
      13    C5      21.695504   18.983023   23.820853 C.3        1 MOL1         0.1219
      14    H9      22.605290   18.814759   23.227071 H          1 MOL1         0.0790
      15    C6      21.174636   20.409178   23.512216 C.3        1 MOL1        -0.1760
      16    H10     20.260930   20.621822   24.080286 H          1 MOL1         0.0833
      17    H11     21.924890   21.114194   23.894721 H          1 MOL1         0.0833
      18    C7      20.976525   20.719999   22.004594 C.3        1 MOL1        -0.1684
      19    H12     21.612038   20.070879   21.391544 H          1 MOL1         0.0833
      20    H13     21.352248   21.734110   21.811162 H          1 MOL1         0.0833
      21    C8      19.509408   20.673489   21.506425 C.3        1 MOL1        -0.1684
      22    H14     19.505355   20.687624   20.408113 H          1 MOL1         0.0833
      23    H15     19.019701   21.606545   21.817062 H          1 MOL1         0.0833
      24    O1      22.042507   18.939857   25.198141 O.3        1 MOL1        -0.5508
      25    H16     21.213678   19.092472   25.696677 H          1 MOL1         0.3780
@<TRIPOS>BOND
    1     1     2    1
    2     1     3    1
    3     1     4    1
    4     4     5    1
    5     4     6    1
    6     4     7    1
    7     7     8    1
    8     7     9    1
    9     7    10    1
   10    10    11    1
   11    10    12    1
   12    10    13    1
   13    13    14    1
   14    13    15    1
   15    15    16    1
   16    15    17    1
   17    15    18    1
   18    18    19    1
   19    18    20    1
   20     1    21    1
   21    18    21    1
   22    21    22    1
   23    21    23    1
   24    13    24    1
   25    24    25    1
@<TRIPOS>SUBSTRUCTURE
       1 MOL1            1 RESIDUE      1      MOL     
@<SCITEGIC>MOL_PROPERTY
VConf Rank
SciTegic.value.IntegerValue
151

@<SCITEGIC>MOL_PROPERTY
Conf_Id
SciTegic.value.IntegerValue
15

@<SCITEGIC>MOL_PROPERTY
Delta U+W
SciTegic.value.DoubleValue
-1.271

@<SCITEGIC>MOL_PROPERTY
U+W
SciTegic.value.DoubleValue
9.643

@<SCITEGIC>MOL_PROPERTY
Grad RMS
SciTegic.value.DoubleValue
0.000000

@<SCITEGIC>MOL_PROPERTY
U
SciTegic.value.DoubleValue
11.413

@<SCITEGIC>MOL_PROPERTY
W
SciTegic.value.DoubleValue
-1.770

@<SCITEGIC>MOL_PROPERTY
W(PB)
SciTegic.value.DoubleValue
-3.908

@<SCITEGIC>MOL_PROPERTY
W(SA)
SciTegic.value.DoubleValue
2.138

@<SCITEGIC>MOL_PROPERTY
Valence
SciTegic.value.DoubleValue
17.496

@<SCITEGIC>MOL_PROPERTY
Coulomb
SciTegic.value.DoubleValue
-8.736

@<SCITEGIC>MOL_PROPERTY
VdW
SciTegic.value.DoubleValue
2.653

@<SCITEGIC>MOL_PROPERTY
VdW6
SciTegic.value.DoubleValue
-12.485

@<SCITEGIC>MOL_PROPERTY
VdW12
SciTegic.value.DoubleValue
15.138

@<SCITEGIC>MOL_PROPERTY
Bond
SciTegic.value.DoubleValue
0.414

@<SCITEGIC>MOL_PROPERTY
Angle
SciTegic.value.DoubleValue
5.295

@<SCITEGIC>MOL_PROPERTY
Pdih
SciTegic.value.DoubleValue
11.787

@<SCITEGIC>MOL_PROPERTY
Idih
SciTegic.value.DoubleValue
0.000

@<SCITEGIC>MOL_PROPERTY
Tether
SciTegic.value.DoubleValue
0.000

@<TRIPOS>MOLECULE
guest-s17_confgen4.mol2 : confsearch ligand conformer 152
          25          25           1
SMALL
USER_CHARGES
 
@<TRIPOS>ATOM
       1    C1      21.288872   19.159320   20.978026 C.3        1 MOL1        -0.1684
       2    H1      21.958308   18.997032   20.122164 H          1 MOL1         0.0833
       3    H2      20.869169   20.160649   20.818792 H          1 MOL1         0.0833
       4    C2      20.177067   18.080558   20.894440 C.3        1 MOL1        -0.1684
       5    H3      19.570061   18.285138   20.001963 H          1 MOL1         0.0833
       6    H4      20.644067   17.101696   20.719757 H          1 MOL1         0.0833
       7    C3      19.235614   17.957759   22.116700 C.3        1 MOL1        -0.1684
       8    H5      19.740727   17.400446   22.914217 H          1 MOL1         0.0833
       9    H6      18.384220   17.325981   21.829000 H          1 MOL1         0.0833
      10    C4      18.695281   19.314242   22.639623 C.3        1 MOL1        -0.1760
      11    H7      18.948097   20.127714   21.950610 H          1 MOL1         0.0833
      12    H8      17.598193   19.274334   22.638492 H          1 MOL1         0.0833
      13    C5      19.146908   19.674338   24.073719 C.3        1 MOL1         0.1219
      14    H9      18.586278   19.033583   24.769388 H          1 MOL1         0.0790
      15    C6      20.652540   19.487043   24.393833 C.3        1 MOL1        -0.1760
      16    H10     20.830039   19.942152   25.377553 H          1 MOL1         0.0833
      17    H11     20.875356   18.423412   24.540645 H          1 MOL1         0.0833
      18    C7      21.666355   20.101042   23.391723 C.3        1 MOL1        -0.1684
      19    H12     22.556319   20.379398   23.972777 H          1 MOL1         0.0833
      20    H13     21.289359   21.042942   22.972785 H          1 MOL1         0.0833
      21    C8      22.148059   19.144175   22.266491 C.3        1 MOL1        -0.1684
      22    H14     22.271053   18.119376   22.641785 H          1 MOL1         0.0833
      23    H15     23.157063   19.471818   21.980595 H          1 MOL1         0.0833
      24    O1      18.798925   21.029356   24.321189 O.3        1 MOL1        -0.5508
      25    H16     19.386710   21.565042   23.751369 H          1 MOL1         0.3780
@<TRIPOS>BOND
    1     1     2    1
    2     1     3    1
    3     1     4    1
    4     4     5    1
    5     4     6    1
    6     4     7    1
    7     7     8    1
    8     7     9    1
    9     7    10    1
   10    10    11    1
   11    10    12    1
   12    10    13    1
   13    13    14    1
   14    13    15    1
   15    15    16    1
   16    15    17    1
   17    15    18    1
   18    18    19    1
   19    18    20    1
   20     1    21    1
   21    18    21    1
   22    21    22    1
   23    21    23    1
   24    13    24    1
   25    24    25    1
@<TRIPOS>SUBSTRUCTURE
       1 MOL1            1 RESIDUE      1      MOL     
@<SCITEGIC>MOL_PROPERTY
VConf Rank
SciTegic.value.IntegerValue
152

@<SCITEGIC>MOL_PROPERTY
Conf_Id
SciTegic.value.IntegerValue
115

@<SCITEGIC>MOL_PROPERTY
Delta U+W
SciTegic.value.DoubleValue
0.038

@<SCITEGIC>MOL_PROPERTY
U+W
SciTegic.value.DoubleValue
10.952

@<SCITEGIC>MOL_PROPERTY
Grad RMS
SciTegic.value.DoubleValue
0.000000

@<SCITEGIC>MOL_PROPERTY
U
SciTegic.value.DoubleValue
12.526

@<SCITEGIC>MOL_PROPERTY
W
SciTegic.value.DoubleValue
-1.575

@<SCITEGIC>MOL_PROPERTY
W(PB)
SciTegic.value.DoubleValue
-3.698

@<SCITEGIC>MOL_PROPERTY
W(SA)
SciTegic.value.DoubleValue
2.123

@<SCITEGIC>MOL_PROPERTY
Valence
SciTegic.value.DoubleValue
19.016

@<SCITEGIC>MOL_PROPERTY
Coulomb
SciTegic.value.DoubleValue
-9.226

@<SCITEGIC>MOL_PROPERTY
VdW
SciTegic.value.DoubleValue
2.737

@<SCITEGIC>MOL_PROPERTY
VdW6
SciTegic.value.DoubleValue
-12.612

@<SCITEGIC>MOL_PROPERTY
VdW12
SciTegic.value.DoubleValue
15.349

@<SCITEGIC>MOL_PROPERTY
Bond
SciTegic.value.DoubleValue
0.421

@<SCITEGIC>MOL_PROPERTY
Angle
SciTegic.value.DoubleValue
4.883

@<SCITEGIC>MOL_PROPERTY
Pdih
SciTegic.value.DoubleValue
13.711

@<SCITEGIC>MOL_PROPERTY
Idih
SciTegic.value.DoubleValue
0.000

@<SCITEGIC>MOL_PROPERTY
Tether
SciTegic.value.DoubleValue
0.000

@<TRIPOS>MOLECULE
guest-s17_confgen4.mol2 : confsearch ligand conformer 153
          25          25           1
SMALL
USER_CHARGES
 
@<TRIPOS>ATOM
       1    C1      19.155523   19.852965   24.344149 C.3        1 MOL1        -0.1684
       2    H1      18.787223   19.751470   25.374217 H          1 MOL1         0.0833
       3    H2      18.848866   20.856547   24.019708 H          1 MOL1         0.0833
       4    C2      18.441642   18.778085   23.491775 C.3        1 MOL1        -0.1684
       5    H3      18.651850   17.777482   23.893271 H          1 MOL1         0.0833
       6    H4      17.360058   18.924813   23.616861 H          1 MOL1         0.0833
       7    C3      18.756176   18.823311   21.978527 C.3        1 MOL1        -0.1684
       8    H5      18.775118   19.862469   21.623886 H          1 MOL1         0.0833
       9    H6      17.914023   18.351678   21.453642 H          1 MOL1         0.0833
      10    C4      20.045356   18.060585   21.570846 C.3        1 MOL1        -0.1760
      11    H7      20.399718   17.413749   22.383151 H          1 MOL1         0.0833
      12    H8      19.777684   17.380152   20.751136 H          1 MOL1         0.0833
      13    C5      21.195381   18.967475   21.077951 C.3        1 MOL1         0.1219
      14    H9      20.767996   19.810687   20.516697 H          1 MOL1         0.0790
      15    C6      22.105542   19.519562   22.197433 C.3        1 MOL1        -0.1760
      16    H10     22.589771   18.690142   22.729574 H          1 MOL1         0.0833
      17    H11     22.917710   20.080855   21.717073 H          1 MOL1         0.0833
      18    C7      21.415501   20.469266   23.206678 C.3        1 MOL1        -0.1684
      19    H12     20.737435   21.156559   22.683337 H          1 MOL1         0.0833
      20    H13     22.197011   21.107361   23.641769 H          1 MOL1         0.0833
      21    C8      20.698494   19.750277   24.379265 C.3        1 MOL1        -0.1684
      22    H14     21.035938   20.225047   25.310891 H          1 MOL1         0.0833
      23    H15     21.010989   18.700604   24.459025 H          1 MOL1         0.0833
      24    O1      22.013402   18.203139   20.200294 O.3        1 MOL1        -0.5508
      25    H16     22.703436   18.808478   19.857144 H          1 MOL1         0.3780
@<TRIPOS>BOND
    1     1     2    1
    2     1     3    1
    3     1     4    1
    4     4     5    1
    5     4     6    1
    6     4     7    1
    7     7     8    1
    8     7     9    1
    9     7    10    1
   10    10    11    1
   11    10    12    1
   12    10    13    1
   13    13    14    1
   14    13    15    1
   15    15    16    1
   16    15    17    1
   17    15    18    1
   18    18    19    1
   19    18    20    1
   20     1    21    1
   21    18    21    1
   22    21    22    1
   23    21    23    1
   24    13    24    1
   25    24    25    1
@<TRIPOS>SUBSTRUCTURE
       1 MOL1            1 RESIDUE      1      MOL     
@<SCITEGIC>MOL_PROPERTY
VConf Rank
SciTegic.value.IntegerValue
153

@<SCITEGIC>MOL_PROPERTY
Conf_Id
SciTegic.value.IntegerValue
30

@<SCITEGIC>MOL_PROPERTY
Delta U+W
SciTegic.value.DoubleValue
0.000

@<SCITEGIC>MOL_PROPERTY
U+W
SciTegic.value.DoubleValue
10.913

@<SCITEGIC>MOL_PROPERTY
Grad RMS
SciTegic.value.DoubleValue
0.000000

@<SCITEGIC>MOL_PROPERTY
U
SciTegic.value.DoubleValue
13.140

@<SCITEGIC>MOL_PROPERTY
W
SciTegic.value.DoubleValue
-2.227

@<SCITEGIC>MOL_PROPERTY
W(PB)
SciTegic.value.DoubleValue
-4.367

@<SCITEGIC>MOL_PROPERTY
W(SA)
SciTegic.value.DoubleValue
2.140

@<SCITEGIC>MOL_PROPERTY
Valence
SciTegic.value.DoubleValue
19.155

@<SCITEGIC>MOL_PROPERTY
Coulomb
SciTegic.value.DoubleValue
-8.157

@<SCITEGIC>MOL_PROPERTY
VdW
SciTegic.value.DoubleValue
2.142

@<SCITEGIC>MOL_PROPERTY
VdW6
SciTegic.value.DoubleValue
-11.576

@<SCITEGIC>MOL_PROPERTY
VdW12
SciTegic.value.DoubleValue
13.718

@<SCITEGIC>MOL_PROPERTY
Bond
SciTegic.value.DoubleValue
0.294

@<SCITEGIC>MOL_PROPERTY
Angle
SciTegic.value.DoubleValue
3.547

@<SCITEGIC>MOL_PROPERTY
Pdih
SciTegic.value.DoubleValue
15.314

@<SCITEGIC>MOL_PROPERTY
Idih
SciTegic.value.DoubleValue
0.000

@<SCITEGIC>MOL_PROPERTY
Tether
SciTegic.value.DoubleValue
0.000

@<TRIPOS>MOLECULE
guest-s17_confgen4.mol2 : confsearch ligand conformer 154
          25          25           1
SMALL
USER_CHARGES
 
@<TRIPOS>ATOM
       1    C1      18.959795   17.783945   21.849201 C.3        1 MOL1        -0.1684
       2    H1      17.897380   17.564138   22.021869 H          1 MOL1         0.0833
       3    H2      19.313871   17.009916   21.154736 H          1 MOL1         0.0833
       4    C2      19.719562   17.618069   23.188352 C.3        1 MOL1        -0.1684
       5    H3      19.357624   16.700049   23.671166 H          1 MOL1         0.0833
       6    H4      20.780116   17.425977   22.988650 H          1 MOL1         0.0833
       7    C3      19.542558   18.799251   24.175915 C.3        1 MOL1        -0.1684
       8    H5      19.161805   18.408068   25.129167 H          1 MOL1         0.0833
       9    H6      18.766505   19.490601   23.827471 H          1 MOL1         0.0833
      10    C4      20.848150   19.582319   24.465381 C.3        1 MOL1        -0.1760
      11    H7      20.589066   20.497589   25.013940 H          1 MOL1         0.0833
      12    H8      21.466373   18.986076   25.149091 H          1 MOL1         0.0833
      13    C5      21.725221   19.956341   23.244304 C.3        1 MOL1         0.1219
      14    H9      22.196915   19.048030   22.846231 H          1 MOL1         0.0790
      15    C6      20.977651   20.671186   22.092161 C.3        1 MOL1        -0.1760
      16    H10     20.153239   21.276597   22.490124 H          1 MOL1         0.0833
      17    H11     21.668511   21.389496   21.630925 H          1 MOL1         0.0833
      18    C7      20.479585   19.736040   20.954100 C.3        1 MOL1        -0.1684
      19    H12     21.198394   18.928687   20.759380 H          1 MOL1         0.0833
      20    H13     20.459532   20.336286   20.034024 H          1 MOL1         0.0833
      21    C8      19.052768   19.166186   21.149701 C.3        1 MOL1        -0.1684
      22    H14     18.595862   19.053080   20.156972 H          1 MOL1         0.0833
      23    H15     18.422410   19.902536   21.664255 H          1 MOL1         0.0833
      24    O1      22.754636   20.818333   23.714933 O.3        1 MOL1        -0.5508
      25    H16     23.351105   20.986506   22.955726 H          1 MOL1         0.3780
@<TRIPOS>BOND
    1     1     2    1
    2     1     3    1
    3     1     4    1
    4     4     5    1
    5     4     6    1
    6     4     7    1
    7     7     8    1
    8     7     9    1
    9     7    10    1
   10    10    11    1
   11    10    12    1
   12    10    13    1
   13    13    14    1
   14    13    15    1
   15    15    16    1
   16    15    17    1
   17    15    18    1
   18    18    19    1
   19    18    20    1
   20     1    21    1
   21    18    21    1
   22    21    22    1
   23    21    23    1
   24    13    24    1
   25    24    25    1
@<TRIPOS>SUBSTRUCTURE
       1 MOL1            1 RESIDUE      1      MOL     
@<SCITEGIC>MOL_PROPERTY
VConf Rank
SciTegic.value.IntegerValue
154

@<SCITEGIC>MOL_PROPERTY
Conf_Id
SciTegic.value.IntegerValue
162

@<SCITEGIC>MOL_PROPERTY
Delta U+W
SciTegic.value.DoubleValue
0.219

@<SCITEGIC>MOL_PROPERTY
U+W
SciTegic.value.DoubleValue
11.132

@<SCITEGIC>MOL_PROPERTY
Grad RMS
SciTegic.value.DoubleValue
0.000000

@<SCITEGIC>MOL_PROPERTY
U
SciTegic.value.DoubleValue
13.296

@<SCITEGIC>MOL_PROPERTY
W
SciTegic.value.DoubleValue
-2.164

@<SCITEGIC>MOL_PROPERTY
W(PB)
SciTegic.value.DoubleValue
-4.311

@<SCITEGIC>MOL_PROPERTY
W(SA)
SciTegic.value.DoubleValue
2.148

@<SCITEGIC>MOL_PROPERTY
Valence
SciTegic.value.DoubleValue
18.607

@<SCITEGIC>MOL_PROPERTY
Coulomb
SciTegic.value.DoubleValue
-8.339

@<SCITEGIC>MOL_PROPERTY
VdW
SciTegic.value.DoubleValue
3.028

@<SCITEGIC>MOL_PROPERTY
VdW6
SciTegic.value.DoubleValue
-12.271

@<SCITEGIC>MOL_PROPERTY
VdW12
SciTegic.value.DoubleValue
15.299

@<SCITEGIC>MOL_PROPERTY
Bond
SciTegic.value.DoubleValue
0.423

@<SCITEGIC>MOL_PROPERTY
Angle
SciTegic.value.DoubleValue
4.488

@<SCITEGIC>MOL_PROPERTY
Pdih
SciTegic.value.DoubleValue
13.696

@<SCITEGIC>MOL_PROPERTY
Idih
SciTegic.value.DoubleValue
0.000

@<SCITEGIC>MOL_PROPERTY
Tether
SciTegic.value.DoubleValue
0.000

@<TRIPOS>MOLECULE
guest-s17_confgen4.mol2 : confsearch ligand conformer 155
          25          25           1
SMALL
USER_CHARGES
 
@<TRIPOS>ATOM
       1    C1      19.194937   20.158727   21.324762 C.3        1 MOL1        -0.1684
       2    H1      20.105441   20.633325   20.937551 H          1 MOL1         0.0833
       3    H2      18.392042   20.513351   20.664030 H          1 MOL1         0.0833
       4    C2      19.294954   18.620382   21.172474 C.3        1 MOL1        -0.1684
       5    H3      18.593138   18.115177   21.849567 H          1 MOL1         0.0833
       6    H4      18.946810   18.377437   20.159106 H          1 MOL1         0.0833
       7    C3      20.727654   18.033569   21.308793 C.3        1 MOL1        -0.1684
       8    H5      21.474875   18.702933   20.861826 H          1 MOL1         0.0833
       9    H6      20.755350   17.119656   20.699591 H          1 MOL1         0.0833
      10    C4      21.141681   17.626449   22.746855 C.3        1 MOL1        -0.1760
      11    H7      20.267544   17.258389   23.297956 H          1 MOL1         0.0833
      12    H8      21.812414   16.760735   22.670236 H          1 MOL1         0.0833
      13    C5      21.896327   18.697150   23.574765 C.3        1 MOL1         0.1219
      14    H9      22.900591   18.811238   23.141718 H          1 MOL1         0.0790
      15    C6      21.253981   20.103954   23.623216 C.3        1 MOL1        -0.1760
      16    H10     21.760740   20.693040   24.398570 H          1 MOL1         0.0833
      17    H11     21.480105   20.630410   22.689788 H          1 MOL1         0.0833
      18    C7      19.728748   20.112473   23.907936 C.3        1 MOL1        -0.1684
      19    H12     19.540181   20.718630   24.804248 H          1 MOL1         0.0833
      20    H13     19.373863   19.108812   24.170292 H          1 MOL1         0.0833
      21    C8      18.871143   20.678776   22.750527 C.3        1 MOL1        -0.1684
      22    H14     18.966243   21.773152   22.744554 H          1 MOL1         0.0833
      23    H15     17.815340   20.472072   22.972489 H          1 MOL1         0.0833
      24    O1      22.020400   18.209616   24.905560 O.3        1 MOL1        -0.5508
      25    H16     22.496211   18.897868   25.414512 H          1 MOL1         0.3780
@<TRIPOS>BOND
    1     1     2    1
    2     1     3    1
    3     1     4    1
    4     4     5    1
    5     4     6    1
    6     4     7    1
    7     7     8    1
    8     7     9    1
    9     7    10    1
   10    10    11    1
   11    10    12    1
   12    10    13    1
   13    13    14    1
   14    13    15    1
   15    15    16    1
   16    15    17    1
   17    15    18    1
   18    18    19    1
   19    18    20    1
   20     1    21    1
   21    18    21    1
   22    21    22    1
   23    21    23    1
   24    13    24    1
   25    24    25    1
@<TRIPOS>SUBSTRUCTURE
       1 MOL1            1 RESIDUE      1      MOL     
@<SCITEGIC>MOL_PROPERTY
VConf Rank
SciTegic.value.IntegerValue
155

@<SCITEGIC>MOL_PROPERTY
Conf_Id
SciTegic.value.IntegerValue
155

@<SCITEGIC>MOL_PROPERTY
Delta U+W
SciTegic.value.DoubleValue
0.339

@<SCITEGIC>MOL_PROPERTY
U+W
SciTegic.value.DoubleValue
11.252

@<SCITEGIC>MOL_PROPERTY
Grad RMS
SciTegic.value.DoubleValue
0.000000

@<SCITEGIC>MOL_PROPERTY
U
SciTegic.value.DoubleValue
13.420

@<SCITEGIC>MOL_PROPERTY
W
SciTegic.value.DoubleValue
-2.167

@<SCITEGIC>MOL_PROPERTY
W(PB)
SciTegic.value.DoubleValue
-4.325

@<SCITEGIC>MOL_PROPERTY
W(SA)
SciTegic.value.DoubleValue
2.157

@<SCITEGIC>MOL_PROPERTY
Valence
SciTegic.value.DoubleValue
18.609

@<SCITEGIC>MOL_PROPERTY
Coulomb
SciTegic.value.DoubleValue
-8.052

@<SCITEGIC>MOL_PROPERTY
VdW
SciTegic.value.DoubleValue
2.863

@<SCITEGIC>MOL_PROPERTY
VdW6
SciTegic.value.DoubleValue
-12.524

@<SCITEGIC>MOL_PROPERTY
VdW12
SciTegic.value.DoubleValue
15.387

@<SCITEGIC>MOL_PROPERTY
Bond
SciTegic.value.DoubleValue
0.430

@<SCITEGIC>MOL_PROPERTY
Angle
SciTegic.value.DoubleValue
4.724

@<SCITEGIC>MOL_PROPERTY
Pdih
SciTegic.value.DoubleValue
13.455

@<SCITEGIC>MOL_PROPERTY
Idih
SciTegic.value.DoubleValue
0.000

@<SCITEGIC>MOL_PROPERTY
Tether
SciTegic.value.DoubleValue
0.000

@<TRIPOS>MOLECULE
guest-s17_confgen4.mol2 : confsearch ligand conformer 156
          25          25           1
SMALL
USER_CHARGES
 
@<TRIPOS>ATOM
       1    C1      21.244311   19.020888   24.461585 C.3        1 MOL1        -0.1684
       2    H1      21.781104   19.915562   24.804733 H          1 MOL1         0.0833
       3    H2      21.369799   18.279599   25.262538 H          1 MOL1         0.0833
       4    C2      19.728030   19.337040   24.373496 C.3        1 MOL1        -0.1684
       5    H3      19.179655   18.417529   24.145628 H          1 MOL1         0.0833
       6    H4      19.384146   19.597444   25.383768 H          1 MOL1         0.0833
       7    C3      19.287316   20.492960   23.428596 C.3        1 MOL1        -0.1684
       8    H5      19.357364   21.429008   23.999087 H          1 MOL1         0.0833
       9    H6      18.221436   20.372417   23.191764 H          1 MOL1         0.0833
      10    C4      20.080317   20.704648   22.110172 C.3        1 MOL1        -0.1760
      11    H7      19.719811   21.637270   21.656797 H          1 MOL1         0.0833
      12    H8      21.122577   20.932158   22.350355 H          1 MOL1         0.0833
      13    C5      20.006801   19.588877   21.026679 C.3        1 MOL1         0.1219
      14    H9      20.900186   19.678787   20.392212 H          1 MOL1         0.0790
      15    C6      19.912820   18.120138   21.510943 C.3        1 MOL1        -0.1760
      16    H10     18.995408   17.993973   22.093143 H          1 MOL1         0.0833
      17    H11     19.746579   17.491200   20.626394 H          1 MOL1         0.0833
      18    C7      21.136697   17.522942   22.268429 C.3        1 MOL1        -0.1684
      19    H12     21.832120   17.132186   21.513093 H          1 MOL1         0.0833
      20    H13     20.805942   16.646945   22.842497 H          1 MOL1         0.0833
      21    C8      21.954891   18.460726   23.194608 C.3        1 MOL1        -0.1684
      22    H14     22.387447   19.271582   22.600147 H          1 MOL1         0.0833
      23    H15     22.834030   17.899910   23.540266 H          1 MOL1         0.0833
      24    O1      18.856578   19.834739   20.224979 O.3        1 MOL1        -0.5508
      25    H16     18.943361   20.746345   19.877579 H          1 MOL1         0.3780
@<TRIPOS>BOND
    1     1     2    1
    2     1     3    1
    3     1     4    1
    4     4     5    1
    5     4     6    1
    6     4     7    1
    7     7     8    1
    8     7     9    1
    9     7    10    1
   10    10    11    1
   11    10    12    1
   12    10    13    1
   13    13    14    1
   14    13    15    1
   15    15    16    1
   16    15    17    1
   17    15    18    1
   18    18    19    1
   19    18    20    1
   20     1    21    1
   21    18    21    1
   22    21    22    1
   23    21    23    1
   24    13    24    1
   25    24    25    1
@<TRIPOS>SUBSTRUCTURE
       1 MOL1            1 RESIDUE      1      MOL     
@<SCITEGIC>MOL_PROPERTY
VConf Rank
SciTegic.value.IntegerValue
156

@<SCITEGIC>MOL_PROPERTY
Conf_Id
SciTegic.value.IntegerValue
146

@<SCITEGIC>MOL_PROPERTY
Delta U+W
SciTegic.value.DoubleValue
2.553

@<SCITEGIC>MOL_PROPERTY
U+W
SciTegic.value.DoubleValue
13.466

@<SCITEGIC>MOL_PROPERTY
Grad RMS
SciTegic.value.DoubleValue
0.000000

@<SCITEGIC>MOL_PROPERTY
U
SciTegic.value.DoubleValue
15.643

@<SCITEGIC>MOL_PROPERTY
W
SciTegic.value.DoubleValue
-2.176

@<SCITEGIC>MOL_PROPERTY
W(PB)
SciTegic.value.DoubleValue
-4.307

@<SCITEGIC>MOL_PROPERTY
W(SA)
SciTegic.value.DoubleValue
2.131

@<SCITEGIC>MOL_PROPERTY
Valence
SciTegic.value.DoubleValue
18.916

@<SCITEGIC>MOL_PROPERTY
Coulomb
SciTegic.value.DoubleValue
-7.506

@<SCITEGIC>MOL_PROPERTY
VdW
SciTegic.value.DoubleValue
4.232

@<SCITEGIC>MOL_PROPERTY
VdW6
SciTegic.value.DoubleValue
-13.632

@<SCITEGIC>MOL_PROPERTY
VdW12
SciTegic.value.DoubleValue
17.864

@<SCITEGIC>MOL_PROPERTY
Bond
SciTegic.value.DoubleValue
0.735

@<SCITEGIC>MOL_PROPERTY
Angle
SciTegic.value.DoubleValue
9.140

@<SCITEGIC>MOL_PROPERTY
Pdih
SciTegic.value.DoubleValue
9.042

@<SCITEGIC>MOL_PROPERTY
Idih
SciTegic.value.DoubleValue
0.000

@<SCITEGIC>MOL_PROPERTY
Tether
SciTegic.value.DoubleValue
0.000

@<TRIPOS>MOLECULE
guest-s17_confgen4.mol2 : confsearch ligand conformer 157
          25          25           1
SMALL
USER_CHARGES
 
@<TRIPOS>ATOM
       1    C1      18.691328   19.104723   21.385369 C.3        1 MOL1        -0.1684
       2    H1      17.849549   18.424602   21.573382 H          1 MOL1         0.0833
       3    H2      18.452993   19.617604   20.443530 H          1 MOL1         0.0833
       4    C2      19.976773   18.273563   21.146737 C.3        1 MOL1        -0.1684
       5    H3      19.797815   17.642603   20.265451 H          1 MOL1         0.0833
       6    H4      20.805091   18.928392   20.853081 H          1 MOL1         0.0833
       7    C3      20.407829   17.336493   22.302797 C.3        1 MOL1        -0.1684
       8    H5      21.254461   16.735721   21.943259 H          1 MOL1         0.0833
       9    H6      19.601179   16.620333   22.509855 H          1 MOL1         0.0833
      10    C4      20.835819   18.011072   23.632259 C.3        1 MOL1        -0.1760
      11    H7      19.954960   18.269815   24.228253 H          1 MOL1         0.0833
      12    H8      21.355676   17.248722   24.228167 H          1 MOL1         0.0833
      13    C5      21.758361   19.247417   23.475919 C.3        1 MOL1         0.1219
      14    H9      22.237132   19.227048   22.487685 H          1 MOL1         0.0790
      15    C6      21.036596   20.605245   23.668590 C.3        1 MOL1        -0.1760
      16    H10     20.531387   20.609816   24.643507 H          1 MOL1         0.0833
      17    H11     21.801693   21.390423   23.727429 H          1 MOL1         0.0833
      18    C7      20.027414   21.026419   22.565971 C.3        1 MOL1        -0.1684
      19    H12     20.517261   21.068153   21.584591 H          1 MOL1         0.0833
      20    H13     19.730452   22.061851   22.782018 H          1 MOL1         0.0833
      21    C8      18.733523   20.173813   22.507722 C.3        1 MOL1        -0.1684
      22    H14     17.885314   20.851464   22.339289 H          1 MOL1         0.0833
      23    H15     18.528452   19.718319   23.483066 H          1 MOL1         0.0833
      24    O1      22.777904   19.166078   24.465497 O.3        1 MOL1        -0.5508
      25    H16     23.382136   19.922206   24.312546 H          1 MOL1         0.3780
@<TRIPOS>BOND
    1     1     2    1
    2     1     3    1
    3     1     4    1
    4     4     5    1
    5     4     6    1
    6     4     7    1
    7     7     8    1
    8     7     9    1
    9     7    10    1
   10    10    11    1
   11    10    12    1
   12    10    13    1
   13    13    14    1
   14    13    15    1
   15    15    16    1
   16    15    17    1
   17    15    18    1
   18    18    19    1
   19    18    20    1
   20     1    21    1
   21    18    21    1
   22    21    22    1
   23    21    23    1
   24    13    24    1
   25    24    25    1
@<TRIPOS>SUBSTRUCTURE
       1 MOL1            1 RESIDUE      1      MOL     
@<SCITEGIC>MOL_PROPERTY
VConf Rank
SciTegic.value.IntegerValue
157

@<SCITEGIC>MOL_PROPERTY
Conf_Id
SciTegic.value.IntegerValue
62

@<SCITEGIC>MOL_PROPERTY
Delta U+W
SciTegic.value.DoubleValue
-1.779

@<SCITEGIC>MOL_PROPERTY
U+W
SciTegic.value.DoubleValue
9.134

@<SCITEGIC>MOL_PROPERTY
Grad RMS
SciTegic.value.DoubleValue
0.000000

@<SCITEGIC>MOL_PROPERTY
U
SciTegic.value.DoubleValue
11.364

@<SCITEGIC>MOL_PROPERTY
W
SciTegic.value.DoubleValue
-2.230

@<SCITEGIC>MOL_PROPERTY
W(PB)
SciTegic.value.DoubleValue
-4.359

@<SCITEGIC>MOL_PROPERTY
W(SA)
SciTegic.value.DoubleValue
2.129

@<SCITEGIC>MOL_PROPERTY
Valence
SciTegic.value.DoubleValue
16.582

@<SCITEGIC>MOL_PROPERTY
Coulomb
SciTegic.value.DoubleValue
-8.150

@<SCITEGIC>MOL_PROPERTY
VdW
SciTegic.value.DoubleValue
2.933

@<SCITEGIC>MOL_PROPERTY
VdW6
SciTegic.value.DoubleValue
-12.531

@<SCITEGIC>MOL_PROPERTY
VdW12
SciTegic.value.DoubleValue
15.464

@<SCITEGIC>MOL_PROPERTY
Bond
SciTegic.value.DoubleValue
0.439

@<SCITEGIC>MOL_PROPERTY
Angle
SciTegic.value.DoubleValue
5.099

@<SCITEGIC>MOL_PROPERTY
Pdih
SciTegic.value.DoubleValue
11.044

@<SCITEGIC>MOL_PROPERTY
Idih
SciTegic.value.DoubleValue
0.000

@<SCITEGIC>MOL_PROPERTY
Tether
SciTegic.value.DoubleValue
0.000

@<TRIPOS>MOLECULE
guest-s17_confgen4.mol2 : confsearch ligand conformer 158
          25          25           1
SMALL
USER_CHARGES
 
@<TRIPOS>ATOM
       1    C1      19.170134   18.440540   21.452902 C.3        1 MOL1        -0.1684
       2    H1      18.675708   19.363341   21.777099 H          1 MOL1         0.0833
       3    H2      18.462532   17.979910   20.750221 H          1 MOL1         0.0833
       4    C2      19.332830   17.466788   22.646632 C.3        1 MOL1        -0.1684
       5    H3      18.327175   17.243642   23.028406 H          1 MOL1         0.0833
       6    H4      19.731299   16.510071   22.282748 H          1 MOL1         0.0833
       7    C3      20.196128   17.949956   23.839940 C.3        1 MOL1        -0.1684
       8    H5      21.259850   17.778789   23.639462 H          1 MOL1         0.0833
       9    H6      19.968143   17.293555   24.690931 H          1 MOL1         0.0833
      10    C4      19.954410   19.418200   24.281693 C.3        1 MOL1        -0.1760
      11    H7      18.954203   19.759191   23.987477 H          1 MOL1         0.0833
      12    H8      19.952771   19.430281   25.379506 H          1 MOL1         0.0833
      13    C5      21.032229   20.427141   23.810802 C.3        1 MOL1         0.1219
      14    H9      22.017451   20.046845   24.116896 H          1 MOL1         0.0790
      15    C6      21.081541   20.722835   22.290919 C.3        1 MOL1        -0.1760
      16    H10     20.113969   21.103022   21.941561 H          1 MOL1         0.0833
      17    H11     21.785638   21.553540   22.149543 H          1 MOL1         0.0833
      18    C7      21.572769   19.543923   21.408633 C.3        1 MOL1        -0.1684
      19    H12     22.191847   18.856414   21.996017 H          1 MOL1         0.0833
      20    H13     22.255565   19.946454   20.647905 H          1 MOL1         0.0833
      21    C8      20.459167   18.768812   20.658955 C.3        1 MOL1        -0.1684
      22    H14     20.882355   17.839807   20.253562 H          1 MOL1         0.0833
      23    H15     20.164028   19.366506   19.785722 H          1 MOL1         0.0833
      24    O1      20.790848   21.659327   24.478542 O.3        1 MOL1        -0.5508
      25    H16     20.829603   21.472843   25.439724 H          1 MOL1         0.3780
@<TRIPOS>BOND
    1     1     2    1
    2     1     3    1
    3     1     4    1
    4     4     5    1
    5     4     6    1
    6     4     7    1
    7     7     8    1
    8     7     9    1
    9     7    10    1
   10    10    11    1
   11    10    12    1
   12    10    13    1
   13    13    14    1
   14    13    15    1
   15    15    16    1
   16    15    17    1
   17    15    18    1
   18    18    19    1
   19    18    20    1
   20     1    21    1
   21    18    21    1
   22    21    22    1
   23    21    23    1
   24    13    24    1
   25    24    25    1
@<TRIPOS>SUBSTRUCTURE
       1 MOL1            1 RESIDUE      1      MOL     
@<SCITEGIC>MOL_PROPERTY
VConf Rank
SciTegic.value.IntegerValue
158

@<SCITEGIC>MOL_PROPERTY
Conf_Id
SciTegic.value.IntegerValue
121

@<SCITEGIC>MOL_PROPERTY
Delta U+W
SciTegic.value.DoubleValue
-1.283

@<SCITEGIC>MOL_PROPERTY
U+W
SciTegic.value.DoubleValue
9.630

@<SCITEGIC>MOL_PROPERTY
Grad RMS
SciTegic.value.DoubleValue
0.000000

@<SCITEGIC>MOL_PROPERTY
U
SciTegic.value.DoubleValue
11.876

@<SCITEGIC>MOL_PROPERTY
W
SciTegic.value.DoubleValue
-2.246

@<SCITEGIC>MOL_PROPERTY
W(PB)
SciTegic.value.DoubleValue
-4.376

@<SCITEGIC>MOL_PROPERTY
W(SA)
SciTegic.value.DoubleValue
2.130

@<SCITEGIC>MOL_PROPERTY
Valence
SciTegic.value.DoubleValue
17.153

@<SCITEGIC>MOL_PROPERTY
Coulomb
SciTegic.value.DoubleValue
-7.966

@<SCITEGIC>MOL_PROPERTY
VdW
SciTegic.value.DoubleValue
2.689

@<SCITEGIC>MOL_PROPERTY
VdW6
SciTegic.value.DoubleValue
-12.458

@<SCITEGIC>MOL_PROPERTY
VdW12
SciTegic.value.DoubleValue
15.147

@<SCITEGIC>MOL_PROPERTY
Bond
SciTegic.value.DoubleValue
0.421

@<SCITEGIC>MOL_PROPERTY
Angle
SciTegic.value.DoubleValue
5.258

@<SCITEGIC>MOL_PROPERTY
Pdih
SciTegic.value.DoubleValue
11.475

@<SCITEGIC>MOL_PROPERTY
Idih
SciTegic.value.DoubleValue
0.000

@<SCITEGIC>MOL_PROPERTY
Tether
SciTegic.value.DoubleValue
0.000

@<TRIPOS>MOLECULE
guest-s17_confgen4.mol2 : confsearch ligand conformer 159
          25          25           1
SMALL
USER_CHARGES
 
@<TRIPOS>ATOM
       1    C1      19.115957   20.487420   23.351034 C.3        1 MOL1        -0.1684
       2    H1      18.893397   19.559053   23.889296 H          1 MOL1         0.0833
       3    H2      18.408629   21.221083   23.760991 H          1 MOL1         0.0833
       4    C2      18.792750   20.328790   21.844350 C.3        1 MOL1        -0.1684
       5    H3      17.723600   20.090373   21.760929 H          1 MOL1         0.0833
       6    H4      18.921148   21.296907   21.341612 H          1 MOL1         0.0833
       7    C3      19.581337   19.247247   21.062481 C.3        1 MOL1        -0.1684
       8    H5      20.554526   19.636354   20.742413 H          1 MOL1         0.0833
       9    H6      19.037486   19.063683   20.125743 H          1 MOL1         0.0833
      10    C4      19.752548   17.890467   21.796925 C.3        1 MOL1        -0.1760
      11    H7      18.962650   17.741148   22.542950 H          1 MOL1         0.0833
      12    H8      19.602347   17.094962   21.055021 H          1 MOL1         0.0833
      13    C5      21.147726   17.659642   22.429470 C.3        1 MOL1         0.1219
      14    H9      21.906861   17.822008   21.650797 H          1 MOL1         0.0790
      15    C6      21.506097   18.545478   23.649409 C.3        1 MOL1        -0.1760
      16    H10     20.765306   18.417316   24.448193 H          1 MOL1         0.0833
      17    H11     22.448150   18.164195   24.064744 H          1 MOL1         0.0833
      18    C7      21.723127   20.047795   23.324987 C.3        1 MOL1        -0.1684
      19    H12     22.001787   20.177770   22.273108 H          1 MOL1         0.0833
      20    H13     22.600544   20.396900   23.886493 H          1 MOL1         0.0833
      21    C8      20.543036   20.982321   23.694801 C.3        1 MOL1        -0.1684
      22    H14     20.707730   21.964686   23.231846 H          1 MOL1         0.0833
      23    H15     20.578813   21.155301   24.779092 H          1 MOL1         0.0833
      24    O1      21.207550   16.302274   22.849465 O.3        1 MOL1        -0.5508
      25    H16     22.115461   16.149400   23.184843 H          1 MOL1         0.3780
@<TRIPOS>BOND
    1     1     2    1
    2     1     3    1
    3     1     4    1
    4     4     5    1
    5     4     6    1
    6     4     7    1
    7     7     8    1
    8     7     9    1
    9     7    10    1
   10    10    11    1
   11    10    12    1
   12    10    13    1
   13    13    14    1
   14    13    15    1
   15    15    16    1
   16    15    17    1
   17    15    18    1
   18    18    19    1
   19    18    20    1
   20     1    21    1
   21    18    21    1
   22    21    22    1
   23    21    23    1
   24    13    24    1
   25    24    25    1
@<TRIPOS>SUBSTRUCTURE
       1 MOL1            1 RESIDUE      1      MOL     
@<SCITEGIC>MOL_PROPERTY
VConf Rank
SciTegic.value.IntegerValue
159

@<SCITEGIC>MOL_PROPERTY
Conf_Id
SciTegic.value.IntegerValue
24

@<SCITEGIC>MOL_PROPERTY
Delta U+W
SciTegic.value.DoubleValue
-1.236

@<SCITEGIC>MOL_PROPERTY
U+W
SciTegic.value.DoubleValue
9.678

@<SCITEGIC>MOL_PROPERTY
Grad RMS
SciTegic.value.DoubleValue
0.000000

@<SCITEGIC>MOL_PROPERTY
U
SciTegic.value.DoubleValue
11.876

@<SCITEGIC>MOL_PROPERTY
W
SciTegic.value.DoubleValue
-2.199

@<SCITEGIC>MOL_PROPERTY
W(PB)
SciTegic.value.DoubleValue
-4.335

@<SCITEGIC>MOL_PROPERTY
W(SA)
SciTegic.value.DoubleValue
2.137

@<SCITEGIC>MOL_PROPERTY
Valence
SciTegic.value.DoubleValue
17.153

@<SCITEGIC>MOL_PROPERTY
Coulomb
SciTegic.value.DoubleValue
-7.966

@<SCITEGIC>MOL_PROPERTY
VdW
SciTegic.value.DoubleValue
2.689

@<SCITEGIC>MOL_PROPERTY
VdW6
SciTegic.value.DoubleValue
-12.458

@<SCITEGIC>MOL_PROPERTY
VdW12
SciTegic.value.DoubleValue
15.147

@<SCITEGIC>MOL_PROPERTY
Bond
SciTegic.value.DoubleValue
0.421

@<SCITEGIC>MOL_PROPERTY
Angle
SciTegic.value.DoubleValue
5.258

@<SCITEGIC>MOL_PROPERTY
Pdih
SciTegic.value.DoubleValue
11.475

@<SCITEGIC>MOL_PROPERTY
Idih
SciTegic.value.DoubleValue
0.000

@<SCITEGIC>MOL_PROPERTY
Tether
SciTegic.value.DoubleValue
0.000

@<TRIPOS>MOLECULE
guest-s17_confgen4.mol2 : confsearch ligand conformer 160
          25          25           1
SMALL
USER_CHARGES
 
@<TRIPOS>ATOM
       1    C1      20.373858   18.992232   24.782692 C.3        1 MOL1        -0.1684
       2    H1      21.060836   18.297165   25.284408 H          1 MOL1         0.0833
       3    H2      19.779691   19.452680   25.583821 H          1 MOL1         0.0833
       4    C2      21.203215   20.111968   24.099640 C.3        1 MOL1        -0.1684
       5    H3      20.570483   20.980557   23.877163 H          1 MOL1         0.0833
       6    H4      21.924129   20.475421   24.844791 H          1 MOL1         0.0833
       7    C3      21.994880   19.696215   22.835094 C.3        1 MOL1        -0.1684
       8    H5      22.357223   18.663117   22.923827 H          1 MOL1         0.0833
       9    H6      22.898856   20.320040   22.805561 H          1 MOL1         0.0833
      10    C4      21.250686   19.916741   21.487700 C.3        1 MOL1        -0.1760
      11    H7      20.644004   20.830665   21.521731 H          1 MOL1         0.0833
      12    H8      22.023759   20.104542   20.730047 H          1 MOL1         0.0833
      13    C5      20.398923   18.716637   21.006732 C.3        1 MOL1         0.1219
      14    H9      20.847323   17.792696   21.395249 H          1 MOL1         0.0790
      15    C6      18.901169   18.764512   21.402014 C.3        1 MOL1        -0.1760
      16    H10     18.391685   19.533620   20.806808 H          1 MOL1         0.0833
      17    H11     18.449379   17.807616   21.109001 H          1 MOL1         0.0833
      18    C7      18.579860   19.018114   22.896366 C.3        1 MOL1        -0.1684
      19    H12     17.517247   18.792185   23.059369 H          1 MOL1         0.0833
      20    H13     18.675418   20.087265   23.118795 H          1 MOL1         0.0833
      21    C8      19.425147   18.167964   23.878245 C.3        1 MOL1        -0.1684
      22    H14     19.999107   17.401794   23.344195 H          1 MOL1         0.0833
      23    H15     18.744175   17.601956   24.528464 H          1 MOL1         0.0833
      24    O1      20.458545   18.666490   19.587000 O.3        1 MOL1        -0.5508
      25    H16     20.073266   19.506733   19.263697 H          1 MOL1         0.3780
@<TRIPOS>BOND
    1     1     2    1
    2     1     3    1
    3     1     4    1
    4     4     5    1
    5     4     6    1
    6     4     7    1
    7     7     8    1
    8     7     9    1
    9     7    10    1
   10    10    11    1
   11    10    12    1
   12    10    13    1
   13    13    14    1
   14    13    15    1
   15    15    16    1
   16    15    17    1
   17    15    18    1
   18    18    19    1
   19    18    20    1
   20     1    21    1
   21    18    21    1
   22    21    22    1
   23    21    23    1
   24    13    24    1
   25    24    25    1
@<TRIPOS>SUBSTRUCTURE
       1 MOL1            1 RESIDUE      1      MOL     
@<SCITEGIC>MOL_PROPERTY
VConf Rank
SciTegic.value.IntegerValue
160

@<SCITEGIC>MOL_PROPERTY
Conf_Id
SciTegic.value.IntegerValue
167

@<SCITEGIC>MOL_PROPERTY
Delta U+W
SciTegic.value.DoubleValue
0.388

@<SCITEGIC>MOL_PROPERTY
U+W
SciTegic.value.DoubleValue
11.301

@<SCITEGIC>MOL_PROPERTY
Grad RMS
SciTegic.value.DoubleValue
0.000000

@<SCITEGIC>MOL_PROPERTY
U
SciTegic.value.DoubleValue
13.202

@<SCITEGIC>MOL_PROPERTY
W
SciTegic.value.DoubleValue
-1.901

@<SCITEGIC>MOL_PROPERTY
W(PB)
SciTegic.value.DoubleValue
-4.065

@<SCITEGIC>MOL_PROPERTY
W(SA)
SciTegic.value.DoubleValue
2.163

@<SCITEGIC>MOL_PROPERTY
Valence
SciTegic.value.DoubleValue
18.957

@<SCITEGIC>MOL_PROPERTY
Coulomb
SciTegic.value.DoubleValue
-8.753

@<SCITEGIC>MOL_PROPERTY
VdW
SciTegic.value.DoubleValue
2.998

@<SCITEGIC>MOL_PROPERTY
VdW6
SciTegic.value.DoubleValue
-12.294

@<SCITEGIC>MOL_PROPERTY
VdW12
SciTegic.value.DoubleValue
15.292

@<SCITEGIC>MOL_PROPERTY
Bond
SciTegic.value.DoubleValue
0.419

@<SCITEGIC>MOL_PROPERTY
Angle
SciTegic.value.DoubleValue
4.543

@<SCITEGIC>MOL_PROPERTY
Pdih
SciTegic.value.DoubleValue
13.996

@<SCITEGIC>MOL_PROPERTY
Idih
SciTegic.value.DoubleValue
0.000

@<SCITEGIC>MOL_PROPERTY
Tether
SciTegic.value.DoubleValue
0.000

@<TRIPOS>MOLECULE
guest-s17_confgen4.mol2 : confsearch ligand conformer 161
          25          25           1
SMALL
USER_CHARGES
 
@<TRIPOS>ATOM
       1    C1      21.429073   20.961902   22.813705 C.3        1 MOL1        -0.1684
       2    H1      22.496765   20.974997   22.556092 H          1 MOL1         0.0833
       3    H2      21.181544   21.992811   23.101585 H          1 MOL1         0.0833
       4    C2      21.224309   20.062119   24.060207 C.3        1 MOL1        -0.1684
       5    H3      21.845189   19.161666   23.993141 H          1 MOL1         0.0833
       6    H4      21.630090   20.609225   24.922211 H          1 MOL1         0.0833
       7    C3      19.753484   19.686680   24.377323 C.3        1 MOL1        -0.1684
       8    H5      19.059472   20.436215   23.975681 H          1 MOL1         0.0833
       9    H6      19.628145   19.735101   25.467667 H          1 MOL1         0.0833
      10    C4      19.335845   18.257119   23.936663 C.3        1 MOL1        -0.1760
      11    H7      20.019327   17.523217   24.383298 H          1 MOL1         0.0833
      12    H8      18.351157   18.050487   24.376525 H          1 MOL1         0.0833
      13    C5      19.233143   17.996634   22.413178 C.3        1 MOL1         0.1219
      14    H9      18.574891   18.751882   21.963223 H          1 MOL1         0.0790
      15    C6      20.599086   17.986327   21.679133 C.3        1 MOL1        -0.1760
      16    H10     21.406314   17.778942   22.388814 H          1 MOL1         0.0833
      17    H11     20.631172   17.142668   20.976885 H          1 MOL1         0.0833
      18    C7      20.916272   19.268859   20.867180 C.3        1 MOL1        -0.1684
      19    H12     20.341955   19.226867   19.931583 H          1 MOL1         0.0833
      20    H13     21.973217   19.249444   20.568779 H          1 MOL1         0.0833
      21    C8      20.601804   20.624899   21.547719 C.3        1 MOL1        -0.1684
      22    H14     19.529899   20.710439   21.759498 H          1 MOL1         0.0833
      23    H15     20.800859   21.413531   20.809303 H          1 MOL1         0.0833
      24    O1      18.626152   16.721347   22.241810 O.3        1 MOL1        -0.5508
      25    H16     18.502847   16.596466   21.277592 H          1 MOL1         0.3780
@<TRIPOS>BOND
    1     1     2    1
    2     1     3    1
    3     1     4    1
    4     4     5    1
    5     4     6    1
    6     4     7    1
    7     7     8    1
    8     7     9    1
    9     7    10    1
   10    10    11    1
   11    10    12    1
   12    10    13    1
   13    13    14    1
   14    13    15    1
   15    15    16    1
   16    15    17    1
   17    15    18    1
   18    18    19    1
   19    18    20    1
   20     1    21    1
   21    18    21    1
   22    21    22    1
   23    21    23    1
   24    13    24    1
   25    24    25    1
@<TRIPOS>SUBSTRUCTURE
       1 MOL1            1 RESIDUE      1      MOL     
@<SCITEGIC>MOL_PROPERTY
VConf Rank
SciTegic.value.IntegerValue
161

@<SCITEGIC>MOL_PROPERTY
Conf_Id
SciTegic.value.IntegerValue
60

@<SCITEGIC>MOL_PROPERTY
Delta U+W
SciTegic.value.DoubleValue
-1.838

@<SCITEGIC>MOL_PROPERTY
U+W
SciTegic.value.DoubleValue
9.075

@<SCITEGIC>MOL_PROPERTY
Grad RMS
SciTegic.value.DoubleValue
0.000000

@<SCITEGIC>MOL_PROPERTY
U
SciTegic.value.DoubleValue
11.150

@<SCITEGIC>MOL_PROPERTY
W
SciTegic.value.DoubleValue
-2.074

@<SCITEGIC>MOL_PROPERTY
W(PB)
SciTegic.value.DoubleValue
-4.196

@<SCITEGIC>MOL_PROPERTY
W(SA)
SciTegic.value.DoubleValue
2.121

@<SCITEGIC>MOL_PROPERTY
Valence
SciTegic.value.DoubleValue
16.582

@<SCITEGIC>MOL_PROPERTY
Coulomb
SciTegic.value.DoubleValue
-8.361

@<SCITEGIC>MOL_PROPERTY
VdW
SciTegic.value.DoubleValue
2.928

@<SCITEGIC>MOL_PROPERTY
VdW6
SciTegic.value.DoubleValue
-12.539

@<SCITEGIC>MOL_PROPERTY
VdW12
SciTegic.value.DoubleValue
15.467

@<SCITEGIC>MOL_PROPERTY
Bond
SciTegic.value.DoubleValue
0.441

@<SCITEGIC>MOL_PROPERTY
Angle
SciTegic.value.DoubleValue
5.093

@<SCITEGIC>MOL_PROPERTY
Pdih
SciTegic.value.DoubleValue
11.049

@<SCITEGIC>MOL_PROPERTY
Idih
SciTegic.value.DoubleValue
0.000

@<SCITEGIC>MOL_PROPERTY
Tether
SciTegic.value.DoubleValue
0.000

@<TRIPOS>MOLECULE
guest-s17_confgen4.mol2 : confsearch ligand conformer 162
          25          25           1
SMALL
USER_CHARGES
 
@<TRIPOS>ATOM
       1    C1      18.768614   20.319768   23.405916 C.3        1 MOL1        -0.1684
       2    H1      18.809549   20.747454   24.416813 H          1 MOL1         0.0833
       3    H2      17.788579   20.608429   23.002029 H          1 MOL1         0.0833
       4    C2      18.790333   18.773601   23.503693 C.3        1 MOL1        -0.1684
       5    H3      17.902904   18.471127   24.076232 H          1 MOL1         0.0833
       6    H4      18.644121   18.327454   22.513379 H          1 MOL1         0.0833
       7    C3      20.023518   18.150762   24.205259 C.3        1 MOL1        -0.1684
       8    H5      19.840389   17.071716   24.300487 H          1 MOL1         0.0833
       9    H6      20.087844   18.533593   25.232806 H          1 MOL1         0.0833
      10    C4      21.396622   18.341682   23.510351 C.3        1 MOL1        -0.1760
      11    H7      21.804699   19.330022   23.744724 H          1 MOL1         0.0833
      12    H8      22.097738   17.639585   23.980924 H          1 MOL1         0.0833
      13    C5      21.391311   18.117009   21.976005 C.3        1 MOL1         0.1219
      14    H9      20.508228   17.530478   21.689128 H          1 MOL1         0.0790
      15    C6      21.423058   19.424069   21.145349 C.3        1 MOL1        -0.1760
      16    H10     22.287015   20.027136   21.453785 H          1 MOL1         0.0833
      17    H11     21.612528   19.148853   20.099337 H          1 MOL1         0.0833
      18    C7      20.143273   20.303653   21.172358 C.3        1 MOL1        -0.1684
      19    H12     19.271207   19.732828   20.828220 H          1 MOL1         0.0833
      20    H13     20.282339   21.094447   20.422551 H          1 MOL1         0.0833
      21    C8      19.856689   20.994661   22.530748 C.3        1 MOL1        -0.1684
      22    H14     19.516140   22.019153   22.327086 H          1 MOL1         0.0833
      23    H15     20.784353   21.124685   23.099373 H          1 MOL1         0.0833
      24    O1      22.551207   17.368471   21.631771 O.3        1 MOL1        -0.5508
      25    H16     22.486456   16.515055   22.109269 H          1 MOL1         0.3780
@<TRIPOS>BOND
    1     1     2    1
    2     1     3    1
    3     1     4    1
    4     4     5    1
    5     4     6    1
    6     4     7    1
    7     7     8    1
    8     7     9    1
    9     7    10    1
   10    10    11    1
   11    10    12    1
   12    10    13    1
   13    13    14    1
   14    13    15    1
   15    15    16    1
   16    15    17    1
   17    15    18    1
   18    18    19    1
   19    18    20    1
   20     1    21    1
   21    18    21    1
   22    21    22    1
   23    21    23    1
   24    13    24    1
   25    24    25    1
@<TRIPOS>SUBSTRUCTURE
       1 MOL1            1 RESIDUE      1      MOL     
@<SCITEGIC>MOL_PROPERTY
VConf Rank
SciTegic.value.IntegerValue
162

@<SCITEGIC>MOL_PROPERTY
Conf_Id
SciTegic.value.IntegerValue
129

@<SCITEGIC>MOL_PROPERTY
Delta U+W
SciTegic.value.DoubleValue
-1.846

@<SCITEGIC>MOL_PROPERTY
U+W
SciTegic.value.DoubleValue
9.067

@<SCITEGIC>MOL_PROPERTY
Grad RMS
SciTegic.value.DoubleValue
0.000000

@<SCITEGIC>MOL_PROPERTY
U
SciTegic.value.DoubleValue
11.150

@<SCITEGIC>MOL_PROPERTY
W
SciTegic.value.DoubleValue
-2.083

@<SCITEGIC>MOL_PROPERTY
W(PB)
SciTegic.value.DoubleValue
-4.217

@<SCITEGIC>MOL_PROPERTY
W(SA)
SciTegic.value.DoubleValue
2.134

@<SCITEGIC>MOL_PROPERTY
Valence
SciTegic.value.DoubleValue
16.583

@<SCITEGIC>MOL_PROPERTY
Coulomb
SciTegic.value.DoubleValue
-8.361

@<SCITEGIC>MOL_PROPERTY
VdW
SciTegic.value.DoubleValue
2.928

@<SCITEGIC>MOL_PROPERTY
VdW6
SciTegic.value.DoubleValue
-12.539

@<SCITEGIC>MOL_PROPERTY
VdW12
SciTegic.value.DoubleValue
15.467

@<SCITEGIC>MOL_PROPERTY
Bond
SciTegic.value.DoubleValue
0.441

@<SCITEGIC>MOL_PROPERTY
Angle
SciTegic.value.DoubleValue
5.093

@<SCITEGIC>MOL_PROPERTY
Pdih
SciTegic.value.DoubleValue
11.049

@<SCITEGIC>MOL_PROPERTY
Idih
SciTegic.value.DoubleValue
0.000

@<SCITEGIC>MOL_PROPERTY
Tether
SciTegic.value.DoubleValue
0.000

@<TRIPOS>MOLECULE
guest-s17_confgen4.mol2 : confsearch ligand conformer 163
          25          25           1
SMALL
USER_CHARGES
 
@<TRIPOS>ATOM
       1    C1      22.173858   19.934614   22.345428 C.3        1 MOL1        -0.1684
       2    H1      22.720641   20.440306   23.152775 H          1 MOL1         0.0833
       3    H2      22.856169   19.928412   21.484421 H          1 MOL1         0.0833
       4    C2      20.940702   20.785753   21.951595 C.3        1 MOL1        -0.1684
       5    H3      21.314250   21.757549   21.601052 H          1 MOL1         0.0833
       6    H4      20.440855   20.351621   21.078164 H          1 MOL1         0.0833
       7    C3      19.916932   21.067172   23.079853 C.3        1 MOL1        -0.1684
       8    H5      19.171718   21.769640   22.682050 H          1 MOL1         0.0833
       9    H6      20.418020   21.597971   23.900620 H          1 MOL1         0.0833
      10    C4      19.156003   19.846519   23.659739 C.3        1 MOL1        -0.1760
      11    H7      19.774375   19.334968   24.404367 H          1 MOL1         0.0833
      12    H8      18.305169   20.242213   24.230811 H          1 MOL1         0.0833
      13    C5      18.637459   18.834841   22.605132 C.3        1 MOL1         0.1219
      14    H9      18.582353   19.320766   21.621917 H          1 MOL1         0.0790
      15    C6      19.486454   17.543788   22.489870 C.3        1 MOL1        -0.1760
      16    H10     19.569138   17.071283   23.477351 H          1 MOL1         0.0833
      17    H11     18.929162   16.832939   21.865087 H          1 MOL1         0.0833
      18    C7      20.904519   17.689813   21.874413 C.3        1 MOL1        -0.1684
      19    H12     20.849279   18.121023   20.866544 H          1 MOL1         0.0833
      20    H13     21.297551   16.674100   21.730129 H          1 MOL1         0.0833
      21    C8      21.919729   18.461315   22.756842 C.3        1 MOL1        -0.1684
      22    H14     22.885355   17.940203   22.701535 H          1 MOL1         0.0833
      23    H15     21.636882   18.398717   23.813667 H          1 MOL1         0.0833
      24    O1      17.321449   18.442978   22.974898 O.3        1 MOL1        -0.5508
      25    H16     17.397348   18.009908   23.849902 H          1 MOL1         0.3780
@<TRIPOS>BOND
    1     1     2    1
    2     1     3    1
    3     1     4    1
    4     4     5    1
    5     4     6    1
    6     4     7    1
    7     7     8    1
    8     7     9    1
    9     7    10    1
   10    10    11    1
   11    10    12    1
   12    10    13    1
   13    13    14    1
   14    13    15    1
   15    15    16    1
   16    15    17    1
   17    15    18    1
   18    18    19    1
   19    18    20    1
   20     1    21    1
   21    18    21    1
   22    21    22    1
   23    21    23    1
   24    13    24    1
   25    24    25    1
@<TRIPOS>SUBSTRUCTURE
       1 MOL1            1 RESIDUE      1      MOL     
@<SCITEGIC>MOL_PROPERTY
VConf Rank
SciTegic.value.IntegerValue
163

@<SCITEGIC>MOL_PROPERTY
Conf_Id
SciTegic.value.IntegerValue
140

@<SCITEGIC>MOL_PROPERTY
Delta U+W
SciTegic.value.DoubleValue
-1.702

@<SCITEGIC>MOL_PROPERTY
U+W
SciTegic.value.DoubleValue
9.211

@<SCITEGIC>MOL_PROPERTY
Grad RMS
SciTegic.value.DoubleValue
0.000000

@<SCITEGIC>MOL_PROPERTY
U
SciTegic.value.DoubleValue
11.181

@<SCITEGIC>MOL_PROPERTY
W
SciTegic.value.DoubleValue
-1.969

@<SCITEGIC>MOL_PROPERTY
W(PB)
SciTegic.value.DoubleValue
-4.093

@<SCITEGIC>MOL_PROPERTY
W(SA)
SciTegic.value.DoubleValue
2.124

@<SCITEGIC>MOL_PROPERTY
Valence
SciTegic.value.DoubleValue
16.954

@<SCITEGIC>MOL_PROPERTY
Coulomb
SciTegic.value.DoubleValue
-8.661

@<SCITEGIC>MOL_PROPERTY
VdW
SciTegic.value.DoubleValue
2.887

@<SCITEGIC>MOL_PROPERTY
VdW6
SciTegic.value.DoubleValue
-12.561

@<SCITEGIC>MOL_PROPERTY
VdW12
SciTegic.value.DoubleValue
15.448

@<SCITEGIC>MOL_PROPERTY
Bond
SciTegic.value.DoubleValue
0.433

@<SCITEGIC>MOL_PROPERTY
Angle
SciTegic.value.DoubleValue
5.120

@<SCITEGIC>MOL_PROPERTY
Pdih
SciTegic.value.DoubleValue
11.401

@<SCITEGIC>MOL_PROPERTY
Idih
SciTegic.value.DoubleValue
0.000

@<SCITEGIC>MOL_PROPERTY
Tether
SciTegic.value.DoubleValue
0.000

@<TRIPOS>MOLECULE
guest-s17_confgen4.mol2 : confsearch ligand conformer 164
          25          25           1
SMALL
USER_CHARGES
 
@<TRIPOS>ATOM
       1    C1      21.829335   20.538505   22.723286 C.3        1 MOL1        -0.1684
       2    H1      21.980386   21.266868   21.915091 H          1 MOL1         0.0833
       3    H2      22.632697   20.729464   23.447899 H          1 MOL1         0.0833
       4    C2      22.034524   19.109723   22.156781 C.3        1 MOL1        -0.1684
       5    H3      21.578912   19.018624   21.164349 H          1 MOL1         0.0833
       6    H4      23.111049   18.986693   21.975100 H          1 MOL1         0.0833
       7    C3      21.566400   17.954655   23.079400 C.3        1 MOL1        -0.1684
       8    H5      21.572921   18.262934   24.132830 H          1 MOL1         0.0833
       9    H6      22.314899   17.153391   23.010911 H          1 MOL1         0.0833
      10    C4      20.197448   17.329880   22.696464 C.3        1 MOL1        -0.1760
      11    H7      20.234820   16.992340   21.652488 H          1 MOL1         0.0833
      12    H8      20.071600   16.420525   23.299350 H          1 MOL1         0.0833
      13    C5      18.941723   18.212492   22.908694 C.3        1 MOL1         0.1219
      14    H9      18.923867   18.573124   23.945756 H          1 MOL1         0.0790
      15    C6      18.836076   19.414981   21.935335 C.3        1 MOL1        -0.1760
      16    H10     19.426130   19.225613   21.032831 H          1 MOL1         0.0833
      17    H11     17.801295   19.500757   21.576883 H          1 MOL1         0.0833
      18    C7      19.217539   20.788864   22.545421 C.3        1 MOL1        -0.1684
      19    H12     18.371931   21.131033   23.157727 H          1 MOL1         0.0833
      20    H13     19.315239   21.524169   21.735310 H          1 MOL1         0.0833
      21    C8      20.485389   20.835190   23.434622 C.3        1 MOL1        -0.1684
      22    H14     20.365517   20.186053   24.309525 H          1 MOL1         0.0833
      23    H15     20.554226   21.849467   23.850925 H          1 MOL1         0.0833
      24    O1      17.804121   17.381829   22.713705 O.3        1 MOL1        -0.5508
      25    H16     17.844699   17.070440   21.786164 H          1 MOL1         0.3780
@<TRIPOS>BOND
    1     1     2    1
    2     1     3    1
    3     1     4    1
    4     4     5    1
    5     4     6    1
    6     4     7    1
    7     7     8    1
    8     7     9    1
    9     7    10    1
   10    10    11    1
   11    10    12    1
   12    10    13    1
   13    13    14    1
   14    13    15    1
   15    15    16    1
   16    15    17    1
   17    15    18    1
   18    18    19    1
   19    18    20    1
   20     1    21    1
   21    18    21    1
   22    21    22    1
   23    21    23    1
   24    13    24    1
   25    24    25    1
@<TRIPOS>SUBSTRUCTURE
       1 MOL1            1 RESIDUE      1      MOL     
@<SCITEGIC>MOL_PROPERTY
VConf Rank
SciTegic.value.IntegerValue
164

@<SCITEGIC>MOL_PROPERTY
Conf_Id
SciTegic.value.IntegerValue
68

@<SCITEGIC>MOL_PROPERTY
Delta U+W
SciTegic.value.DoubleValue
-1.765

@<SCITEGIC>MOL_PROPERTY
U+W
SciTegic.value.DoubleValue
9.148

@<SCITEGIC>MOL_PROPERTY
Grad RMS
SciTegic.value.DoubleValue
0.000000

@<SCITEGIC>MOL_PROPERTY
U
SciTegic.value.DoubleValue
11.181

@<SCITEGIC>MOL_PROPERTY
W
SciTegic.value.DoubleValue
-2.032

@<SCITEGIC>MOL_PROPERTY
W(PB)
SciTegic.value.DoubleValue
-4.147

@<SCITEGIC>MOL_PROPERTY
W(SA)
SciTegic.value.DoubleValue
2.114

@<SCITEGIC>MOL_PROPERTY
Valence
SciTegic.value.DoubleValue
16.955

@<SCITEGIC>MOL_PROPERTY
Coulomb
SciTegic.value.DoubleValue
-8.661

@<SCITEGIC>MOL_PROPERTY
VdW
SciTegic.value.DoubleValue
2.887

@<SCITEGIC>MOL_PROPERTY
VdW6
SciTegic.value.DoubleValue
-12.561

@<SCITEGIC>MOL_PROPERTY
VdW12
SciTegic.value.DoubleValue
15.448

@<SCITEGIC>MOL_PROPERTY
Bond
SciTegic.value.DoubleValue
0.433

@<SCITEGIC>MOL_PROPERTY
Angle
SciTegic.value.DoubleValue
5.121

@<SCITEGIC>MOL_PROPERTY
Pdih
SciTegic.value.DoubleValue
11.402

@<SCITEGIC>MOL_PROPERTY
Idih
SciTegic.value.DoubleValue
0.000

@<SCITEGIC>MOL_PROPERTY
Tether
SciTegic.value.DoubleValue
0.000

@<TRIPOS>MOLECULE
guest-s17_confgen4.mol2 : confsearch ligand conformer 165
          25          25           1
SMALL
USER_CHARGES
 
@<TRIPOS>ATOM
       1    C1      21.489155   17.922373   22.096257 C.3        1 MOL1        -0.1684
       2    H1      22.136734   17.094103   21.777374 H          1 MOL1         0.0833
       3    H2      22.184470   18.738480   22.322969 H          1 MOL1         0.0833
       4    C2      20.734354   17.477519   23.375977 C.3        1 MOL1        -0.1684
       5    H3      19.744263   17.072321   23.130724 H          1 MOL1         0.0833
       6    H4      21.288705   16.633915   23.809620 H          1 MOL1         0.0833
       7    C3      20.627089   18.562978   24.479098 C.3        1 MOL1        -0.1684
       8    H5      21.633575   18.917700   24.740311 H          1 MOL1         0.0833
       9    H6      20.240888   18.079221   25.386655 H          1 MOL1         0.0833
      10    C4      19.717806   19.782257   24.170687 C.3        1 MOL1        -0.1760
      11    H7      18.699543   19.449303   23.936514 H          1 MOL1         0.0833
      12    H8      19.626833   20.352906   25.104869 H          1 MOL1         0.0833
      13    C5      20.260284   20.725632   23.065858 C.3        1 MOL1         0.1219
      14    H9      21.337065   20.557001   22.949016 H          1 MOL1         0.0790
      15    C6      19.570191   20.574994   21.687771 C.3        1 MOL1        -0.1760
      16    H10     18.595498   21.078809   21.729244 H          1 MOL1         0.0833
      17    H11     20.160710   21.124016   20.942824 H          1 MOL1         0.0833
      18    C7      19.324147   19.133341   21.172832 C.3        1 MOL1        -0.1684
      19    H12     18.764638   19.213666   20.230908 H          1 MOL1         0.0833
      20    H13     18.650783   18.594323   21.849108 H          1 MOL1         0.0833
      21    C8      20.590001   18.287295   20.886549 C.3        1 MOL1        -0.1684
      22    H14     21.201712   18.793763   20.127677 H          1 MOL1         0.0833
      23    H15     20.258415   17.348878   20.421337 H          1 MOL1         0.0833
      24    O1      20.078917   22.070997   23.489864 O.3        1 MOL1        -0.5508
      25    H16     19.114823   22.197342   23.605836 H          1 MOL1         0.3780
@<TRIPOS>BOND
    1     1     2    1
    2     1     3    1
    3     1     4    1
    4     4     5    1
    5     4     6    1
    6     4     7    1
    7     7     8    1
    8     7     9    1
    9     7    10    1
   10    10    11    1
   11    10    12    1
   12    10    13    1
   13    13    14    1
   14    13    15    1
   15    15    16    1
   16    15    17    1
   17    15    18    1
   18    18    19    1
   19    18    20    1
   20     1    21    1
   21    18    21    1
   22    21    22    1
   23    21    23    1
   24    13    24    1
   25    24    25    1
@<TRIPOS>SUBSTRUCTURE
       1 MOL1            1 RESIDUE      1      MOL     
@<SCITEGIC>MOL_PROPERTY
VConf Rank
SciTegic.value.IntegerValue
165

@<SCITEGIC>MOL_PROPERTY
Conf_Id
SciTegic.value.IntegerValue
165

@<SCITEGIC>MOL_PROPERTY
Delta U+W
SciTegic.value.DoubleValue
-1.999

@<SCITEGIC>MOL_PROPERTY
U+W
SciTegic.value.DoubleValue
8.915

@<SCITEGIC>MOL_PROPERTY
Grad RMS
SciTegic.value.DoubleValue
0.000000

@<SCITEGIC>MOL_PROPERTY
U
SciTegic.value.DoubleValue
10.935

@<SCITEGIC>MOL_PROPERTY
W
SciTegic.value.DoubleValue
-2.020

@<SCITEGIC>MOL_PROPERTY
W(PB)
SciTegic.value.DoubleValue
-4.135

@<SCITEGIC>MOL_PROPERTY
W(SA)
SciTegic.value.DoubleValue
2.115

@<SCITEGIC>MOL_PROPERTY
Valence
SciTegic.value.DoubleValue
16.757

@<SCITEGIC>MOL_PROPERTY
Coulomb
SciTegic.value.DoubleValue
-8.731

@<SCITEGIC>MOL_PROPERTY
VdW
SciTegic.value.DoubleValue
2.908

@<SCITEGIC>MOL_PROPERTY
VdW6
SciTegic.value.DoubleValue
-12.597

@<SCITEGIC>MOL_PROPERTY
VdW12
SciTegic.value.DoubleValue
15.506

@<SCITEGIC>MOL_PROPERTY
Bond
SciTegic.value.DoubleValue
0.434

@<SCITEGIC>MOL_PROPERTY
Angle
SciTegic.value.DoubleValue
5.069

@<SCITEGIC>MOL_PROPERTY
Pdih
SciTegic.value.DoubleValue
11.254

@<SCITEGIC>MOL_PROPERTY
Idih
SciTegic.value.DoubleValue
0.000

@<SCITEGIC>MOL_PROPERTY
Tether
SciTegic.value.DoubleValue
0.000

@<TRIPOS>MOLECULE
guest-s17_confgen4.mol2 : confsearch ligand conformer 166
          25          25           1
SMALL
USER_CHARGES
 
@<TRIPOS>ATOM
       1    C1      19.846183   20.937134   22.896983 C.3        1 MOL1        -0.1684
       2    H1      19.631065   22.011554   22.977161 H          1 MOL1         0.0833
       3    H2      19.066549   20.458882   23.500512 H          1 MOL1         0.0833
       4    C2      21.245709   20.706557   23.524369 C.3        1 MOL1        -0.1684
       5    H3      21.899192   21.525286   23.193237 H          1 MOL1         0.0833
       6    H4      21.169382   20.811789   24.615088 H          1 MOL1         0.0833
       7    C3      21.964992   19.376622   23.186370 C.3        1 MOL1        -0.1684
       8    H5      22.969159   19.425836   23.629008 H          1 MOL1         0.0833
       9    H6      22.142181   19.303012   22.107260 H          1 MOL1         0.0833
      10    C4      21.290836   18.083998   23.714260 C.3        1 MOL1        -0.1760
      11    H7      21.966607   17.246857   23.492799 H          1 MOL1         0.0833
      12    H8      21.226079   18.139444   24.808540 H          1 MOL1         0.0833
      13    C5      19.890516   17.736790   23.151845 C.3        1 MOL1         0.1219
      14    H9      19.137574   18.363787   23.643588 H          1 MOL1         0.0790
      15    C6      19.753236   17.896535   21.615674 C.3        1 MOL1        -0.1760
      16    H10     20.733670   17.840036   21.128154 H          1 MOL1         0.0833
      17    H11     19.190838   17.037009   21.226501 H          1 MOL1         0.0833
      18    C7      18.994881   19.173635   21.165227 C.3        1 MOL1        -0.1684
      19    H12     18.004459   19.193906   21.640244 H          1 MOL1         0.0833
      20    H13     18.802513   19.085097   20.087299 H          1 MOL1         0.0833
      21    C8      19.709321   20.529389   21.406838 C.3        1 MOL1        -0.1684
      22    H14     19.108347   21.301537   20.907210 H          1 MOL1         0.0833
      23    H15     20.682279   20.552498   20.899467 H          1 MOL1         0.0833
      24    O1      19.619227   16.381541   23.491282 O.3        1 MOL1        -0.5508
      25    H16     19.668743   16.319860   24.468104 H          1 MOL1         0.3780
@<TRIPOS>BOND
    1     1     2    1
    2     1     3    1
    3     1     4    1
    4     4     5    1
    5     4     6    1
    6     4     7    1
    7     7     8    1
    8     7     9    1
    9     7    10    1
   10    10    11    1
   11    10    12    1
   12    10    13    1
   13    13    14    1
   14    13    15    1
   15    15    16    1
   16    15    17    1
   17    15    18    1
   18    18    19    1
   19    18    20    1
   20     1    21    1
   21    18    21    1
   22    21    22    1
   23    21    23    1
   24    13    24    1
   25    24    25    1
@<TRIPOS>SUBSTRUCTURE
       1 MOL1            1 RESIDUE      1      MOL     
@<SCITEGIC>MOL_PROPERTY
VConf Rank
SciTegic.value.IntegerValue
166

@<SCITEGIC>MOL_PROPERTY
Conf_Id
SciTegic.value.IntegerValue
133

@<SCITEGIC>MOL_PROPERTY
Delta U+W
SciTegic.value.DoubleValue
-2.139

@<SCITEGIC>MOL_PROPERTY
U+W
SciTegic.value.DoubleValue
8.774

@<SCITEGIC>MOL_PROPERTY
Grad RMS
SciTegic.value.DoubleValue
0.000000

@<SCITEGIC>MOL_PROPERTY
U
SciTegic.value.DoubleValue
10.905

@<SCITEGIC>MOL_PROPERTY
W
SciTegic.value.DoubleValue
-2.131

@<SCITEGIC>MOL_PROPERTY
W(PB)
SciTegic.value.DoubleValue
-4.281

@<SCITEGIC>MOL_PROPERTY
W(SA)
SciTegic.value.DoubleValue
2.150

@<SCITEGIC>MOL_PROPERTY
Valence
SciTegic.value.DoubleValue
16.378

@<SCITEGIC>MOL_PROPERTY
Coulomb
SciTegic.value.DoubleValue
-8.448

@<SCITEGIC>MOL_PROPERTY
VdW
SciTegic.value.DoubleValue
2.976

@<SCITEGIC>MOL_PROPERTY
VdW6
SciTegic.value.DoubleValue
-12.570

@<SCITEGIC>MOL_PROPERTY
VdW12
SciTegic.value.DoubleValue
15.545

@<SCITEGIC>MOL_PROPERTY
Bond
SciTegic.value.DoubleValue
0.439

@<SCITEGIC>MOL_PROPERTY
Angle
SciTegic.value.DoubleValue
5.049

@<SCITEGIC>MOL_PROPERTY
Pdih
SciTegic.value.DoubleValue
10.889

@<SCITEGIC>MOL_PROPERTY
Idih
SciTegic.value.DoubleValue
0.000

@<SCITEGIC>MOL_PROPERTY
Tether
SciTegic.value.DoubleValue
0.000

@<TRIPOS>MOLECULE
guest-s17_confgen4.mol2 : confsearch ligand conformer 167
          25          25           1
SMALL
USER_CHARGES
 
@<TRIPOS>ATOM
       1    C1      21.032916   19.655060   21.035431 C.3        1 MOL1        -0.1684
       2    H1      21.543799   19.847050   20.081899 H          1 MOL1         0.0833
       3    H2      20.243674   20.414084   21.077645 H          1 MOL1         0.0833
       4    C2      22.056690   19.868524   22.180788 C.3        1 MOL1        -0.1684
       5    H3      22.523448   18.920044   22.475971 H          1 MOL1         0.0833
       6    H4      22.877964   20.478350   21.779997 H          1 MOL1         0.0833
       7    C3      21.500733   20.617429   23.420516 C.3        1 MOL1        -0.1684
       8    H5      21.084197   21.584091   23.105791 H          1 MOL1         0.0833
       9    H6      22.350830   20.861425   24.072109 H          1 MOL1         0.0833
      10    C4      20.450661   19.861695   24.277957 C.3        1 MOL1        -0.1760
      11    H7      20.857685   18.906243   24.629471 H          1 MOL1         0.0833
      12    H8      20.292852   20.456830   25.187595 H          1 MOL1         0.0833
      13    C5      19.079615   19.655720   23.583702 C.3        1 MOL1         0.1219
      14    H9      18.986114   20.373598   22.760437 H          1 MOL1         0.0790
      15    C6      18.838189   18.224711   23.043632 C.3        1 MOL1        -0.1760
      16    H10     18.588528   17.575007   23.893379 H          1 MOL1         0.0833
      17    H11     17.948760   18.237287   22.400612 H          1 MOL1         0.0833
      18    C7      20.003903   17.553104   22.272867 C.3        1 MOL1        -0.1684
      19    H12     19.689137   16.528652   22.031786 H          1 MOL1         0.0833
      20    H13     20.874041   17.427824   22.927434 H          1 MOL1         0.0833
      21    C8      20.422615   18.232119   20.944724 C.3        1 MOL1        -0.1684
      22    H14     19.562897   18.255628   20.261422 H          1 MOL1         0.0833
      23    H15     21.164889   17.580347   20.463863 H          1 MOL1         0.0833
      24    O1      18.049727   19.934955   24.525439 O.3        1 MOL1        -0.5508
      25    H16     17.198503   19.841137   24.048937 H          1 MOL1         0.3780
@<TRIPOS>BOND
    1     1     2    1
    2     1     3    1
    3     1     4    1
    4     4     5    1
    5     4     6    1
    6     4     7    1
    7     7     8    1
    8     7     9    1
    9     7    10    1
   10    10    11    1
   11    10    12    1
   12    10    13    1
   13    13    14    1
   14    13    15    1
   15    15    16    1
   16    15    17    1
   17    15    18    1
   18    18    19    1
   19    18    20    1
   20     1    21    1
   21    18    21    1
   22    21    22    1
   23    21    23    1
   24    13    24    1
   25    24    25    1
@<TRIPOS>SUBSTRUCTURE
       1 MOL1            1 RESIDUE      1      MOL     
@<SCITEGIC>MOL_PROPERTY
VConf Rank
SciTegic.value.IntegerValue
167

@<SCITEGIC>MOL_PROPERTY
Conf_Id
SciTegic.value.IntegerValue
95

@<SCITEGIC>MOL_PROPERTY
Delta U+W
SciTegic.value.DoubleValue
-2.190

@<SCITEGIC>MOL_PROPERTY
U+W
SciTegic.value.DoubleValue
8.723

@<SCITEGIC>MOL_PROPERTY
Grad RMS
SciTegic.value.DoubleValue
0.000000

@<SCITEGIC>MOL_PROPERTY
U
SciTegic.value.DoubleValue
10.905

@<SCITEGIC>MOL_PROPERTY
W
SciTegic.value.DoubleValue
-2.182

@<SCITEGIC>MOL_PROPERTY
W(PB)
SciTegic.value.DoubleValue
-4.296

@<SCITEGIC>MOL_PROPERTY
W(SA)
SciTegic.value.DoubleValue
2.114

@<SCITEGIC>MOL_PROPERTY
Valence
SciTegic.value.DoubleValue
16.377

@<SCITEGIC>MOL_PROPERTY
Coulomb
SciTegic.value.DoubleValue
-8.448

@<SCITEGIC>MOL_PROPERTY
VdW
SciTegic.value.DoubleValue
2.976

@<SCITEGIC>MOL_PROPERTY
VdW6
SciTegic.value.DoubleValue
-12.570

@<SCITEGIC>MOL_PROPERTY
VdW12
SciTegic.value.DoubleValue
15.546

@<SCITEGIC>MOL_PROPERTY
Bond
SciTegic.value.DoubleValue
0.439

@<SCITEGIC>MOL_PROPERTY
Angle
SciTegic.value.DoubleValue
5.049

@<SCITEGIC>MOL_PROPERTY
Pdih
SciTegic.value.DoubleValue
10.889

@<SCITEGIC>MOL_PROPERTY
Idih
SciTegic.value.DoubleValue
0.000

@<SCITEGIC>MOL_PROPERTY
Tether
SciTegic.value.DoubleValue
0.000

@<TRIPOS>MOLECULE
guest-s17_confgen4.mol2 : confsearch ligand conformer 168
          25          25           1
SMALL
USER_CHARGES
 
@<TRIPOS>ATOM
       1    C1      18.807777   18.126414   22.837802 C.3        1 MOL1        -0.1684
       2    H1      17.976017   17.410428   22.887198 H          1 MOL1         0.0833
       3    H2      18.321141   19.092744   23.004010 H          1 MOL1         0.0833
       4    C2      19.398171   18.039781   21.399696 C.3        1 MOL1        -0.1684
       5    H3      19.319313   16.993041   21.075569 H          1 MOL1         0.0833
       6    H4      18.753077   18.606636   20.714858 H          1 MOL1         0.0833
       7    C3      20.873806   18.467867   21.185830 C.3        1 MOL1        -0.1684
       8    H5      21.142814   18.226883   20.148343 H          1 MOL1         0.0833
       9    H6      21.527690   17.818940   21.776896 H          1 MOL1         0.0833
      10    C4      21.226410   19.967773   21.414902 C.3        1 MOL1        -0.1760
      11    H7      22.306598   20.055429   21.590637 H          1 MOL1         0.0833
      12    H8      21.036239   20.490499   20.468406 H          1 MOL1         0.0833
      13    C5      20.468441   20.738343   22.525486 C.3        1 MOL1         0.1219
      14    H9      19.396851   20.678859   22.308753 H          1 MOL1         0.0790
      15    C6      20.727600   20.294403   23.993936 C.3        1 MOL1        -0.1760
      16    H10     21.619866   20.823726   24.354483 H          1 MOL1         0.0833
      17    H11     19.898574   20.657036   24.614824 H          1 MOL1         0.0833
      18    C7      20.951331   18.785335   24.283206 C.3        1 MOL1        -0.1684
      19    H12     21.222134   18.687438   25.343297 H          1 MOL1         0.0833
      20    H13     21.849335   18.445669   23.757576 H          1 MOL1         0.0833
      21    C8      19.758976   17.818506   24.024288 C.3        1 MOL1        -0.1684
      22    H14     19.142675   17.806005   24.933620 H          1 MOL1         0.0833
      23    H15     20.146915   16.796197   23.920218 H          1 MOL1         0.0833
      24    O1      20.844020   22.107099   22.425180 O.3        1 MOL1        -0.5508
      25    H16     20.617307   22.396896   21.517063 H          1 MOL1         0.3780
@<TRIPOS>BOND
    1     1     2    1
    2     1     3    1
    3     1     4    1
    4     4     5    1
    5     4     6    1
    6     4     7    1
    7     7     8    1
    8     7     9    1
    9     7    10    1
   10    10    11    1
   11    10    12    1
   12    10    13    1
   13    13    14    1
   14    13    15    1
   15    15    16    1
   16    15    17    1
   17    15    18    1
   18    18    19    1
   19    18    20    1
   20     1    21    1
   21    18    21    1
   22    21    22    1
   23    21    23    1
   24    13    24    1
   25    24    25    1
@<TRIPOS>SUBSTRUCTURE
       1 MOL1            1 RESIDUE      1      MOL     
@<SCITEGIC>MOL_PROPERTY
VConf Rank
SciTegic.value.IntegerValue
168

@<SCITEGIC>MOL_PROPERTY
Conf_Id
SciTegic.value.IntegerValue
161

@<SCITEGIC>MOL_PROPERTY
Delta U+W
SciTegic.value.DoubleValue
2.120

@<SCITEGIC>MOL_PROPERTY
U+W
SciTegic.value.DoubleValue
13.033

@<SCITEGIC>MOL_PROPERTY
Grad RMS
SciTegic.value.DoubleValue
0.000000

@<SCITEGIC>MOL_PROPERTY
U
SciTegic.value.DoubleValue
15.076

@<SCITEGIC>MOL_PROPERTY
W
SciTegic.value.DoubleValue
-2.043

@<SCITEGIC>MOL_PROPERTY
W(PB)
SciTegic.value.DoubleValue
-4.186

@<SCITEGIC>MOL_PROPERTY
W(SA)
SciTegic.value.DoubleValue
2.143

@<SCITEGIC>MOL_PROPERTY
Valence
SciTegic.value.DoubleValue
18.884

@<SCITEGIC>MOL_PROPERTY
Coulomb
SciTegic.value.DoubleValue
-8.074

@<SCITEGIC>MOL_PROPERTY
VdW
SciTegic.value.DoubleValue
4.266

@<SCITEGIC>MOL_PROPERTY
VdW6
SciTegic.value.DoubleValue
-13.486

@<SCITEGIC>MOL_PROPERTY
VdW12
SciTegic.value.DoubleValue
17.752

@<SCITEGIC>MOL_PROPERTY
Bond
SciTegic.value.DoubleValue
0.713

@<SCITEGIC>MOL_PROPERTY
Angle
SciTegic.value.DoubleValue
8.955

@<SCITEGIC>MOL_PROPERTY
Pdih
SciTegic.value.DoubleValue
9.215

@<SCITEGIC>MOL_PROPERTY
Idih
SciTegic.value.DoubleValue
0.000

@<SCITEGIC>MOL_PROPERTY
Tether
SciTegic.value.DoubleValue
0.000

@<TRIPOS>MOLECULE
guest-s17_confgen4.mol2 : confsearch ligand conformer 169
          25          25           1
SMALL
USER_CHARGES
 
@<TRIPOS>ATOM
       1    C1      21.195858   17.516348   23.173112 C.3        1 MOL1        -0.1684
       2    H1      21.551362   16.620102   23.699750 H          1 MOL1         0.0833
       3    H2      21.844597   17.598361   22.291836 H          1 MOL1         0.0833
       4    C2      21.412212   18.735543   24.103935 C.3        1 MOL1        -0.1684
       5    H3      20.556597   18.867392   24.779748 H          1 MOL1         0.0833
       6    H4      22.262068   18.491176   24.756010 H          1 MOL1         0.0833
       7    C3      21.767800   20.064619   23.381129 C.3        1 MOL1        -0.1684
       8    H5      22.420419   19.883338   22.516542 H          1 MOL1         0.0833
       9    H6      22.373072   20.655033   24.082740 H          1 MOL1         0.0833
      10    C4      20.556350   20.946360   22.981886 C.3        1 MOL1        -0.1760
      11    H7      19.760894   20.846926   23.730439 H          1 MOL1         0.0833
      12    H8      20.873132   21.995872   23.043576 H          1 MOL1         0.0833
      13    C5      19.999713   20.738184   21.550575 C.3        1 MOL1         0.1219
      14    H9      20.739685   21.133457   20.839958 H          1 MOL1         0.0790
      15    C6      19.693014   19.280258   21.136726 C.3        1 MOL1        -0.1760
      16    H10     19.101855   19.302308   20.211453 H          1 MOL1         0.0833
      17    H11     20.628412   18.787207   20.850907 H          1 MOL1         0.0833
      18    C7      18.928853   18.445794   22.199249 C.3        1 MOL1        -0.1684
      19    H12     18.001695   18.065118   21.749590 H          1 MOL1         0.0833
      20    H13     18.599376   19.073053   23.035366 H          1 MOL1         0.0833
      21    C8      19.729124   17.240566   22.748499 C.3        1 MOL1        -0.1684
      22    H14     19.736542   16.446597   21.989309 H          1 MOL1         0.0833
      23    H15     19.182638   16.827453   23.607261 H          1 MOL1         0.0833
      24    O1      18.802446   21.493695   21.431749 O.3        1 MOL1        -0.5508
      25    H16     18.135232   21.025296   21.973261 H          1 MOL1         0.3780
@<TRIPOS>BOND
    1     1     2    1
    2     1     3    1
    3     1     4    1
    4     4     5    1
    5     4     6    1
    6     4     7    1
    7     7     8    1
    8     7     9    1
    9     7    10    1
   10    10    11    1
   11    10    12    1
   12    10    13    1
   13    13    14    1
   14    13    15    1
   15    15    16    1
   16    15    17    1
   17    15    18    1
   18    18    19    1
   19    18    20    1
   20     1    21    1
   21    18    21    1
   22    21    22    1
   23    21    23    1
   24    13    24    1
   25    24    25    1
@<TRIPOS>SUBSTRUCTURE
       1 MOL1            1 RESIDUE      1      MOL     
@<SCITEGIC>MOL_PROPERTY
VConf Rank
SciTegic.value.IntegerValue
169

@<SCITEGIC>MOL_PROPERTY
Conf_Id
SciTegic.value.IntegerValue
164

@<SCITEGIC>MOL_PROPERTY
Delta U+W
SciTegic.value.DoubleValue
0.008

@<SCITEGIC>MOL_PROPERTY
U+W
SciTegic.value.DoubleValue
10.922

@<SCITEGIC>MOL_PROPERTY
Grad RMS
SciTegic.value.DoubleValue
0.000000

@<SCITEGIC>MOL_PROPERTY
U
SciTegic.value.DoubleValue
12.433

@<SCITEGIC>MOL_PROPERTY
W
SciTegic.value.DoubleValue
-1.511

@<SCITEGIC>MOL_PROPERTY
W(PB)
SciTegic.value.DoubleValue
-3.669

@<SCITEGIC>MOL_PROPERTY
W(SA)
SciTegic.value.DoubleValue
2.157

@<SCITEGIC>MOL_PROPERTY
Valence
SciTegic.value.DoubleValue
19.007

@<SCITEGIC>MOL_PROPERTY
Coulomb
SciTegic.value.DoubleValue
-9.373

@<SCITEGIC>MOL_PROPERTY
VdW
SciTegic.value.DoubleValue
2.799

@<SCITEGIC>MOL_PROPERTY
VdW6
SciTegic.value.DoubleValue
-12.597

@<SCITEGIC>MOL_PROPERTY
VdW12
SciTegic.value.DoubleValue
15.396

@<SCITEGIC>MOL_PROPERTY
Bond
SciTegic.value.DoubleValue
0.425

@<SCITEGIC>MOL_PROPERTY
Angle
SciTegic.value.DoubleValue
4.784

@<SCITEGIC>MOL_PROPERTY
Pdih
SciTegic.value.DoubleValue
13.799

@<SCITEGIC>MOL_PROPERTY
Idih
SciTegic.value.DoubleValue
0.000

@<SCITEGIC>MOL_PROPERTY
Tether
SciTegic.value.DoubleValue
0.000

@<TRIPOS>MOLECULE
guest-s17_confgen4.mol2 : confsearch ligand conformer 170
          25          25           1
SMALL
USER_CHARGES
 
@<TRIPOS>ATOM
       1    C1      19.555312   17.620883   22.183984 C.3        1 MOL1        -0.1684
       2    H1      19.573211   17.627229   23.279685 H          1 MOL1         0.0833
       3    H2      19.097329   16.657751   21.920733 H          1 MOL1         0.0833
       4    C2      20.997986   17.613413   21.619754 C.3        1 MOL1        -0.1684
       5    H3      21.493145   16.707394   21.995054 H          1 MOL1         0.0833
       6    H4      20.959988   17.500170   20.527857 H          1 MOL1         0.0833
       7    C3      21.899674   18.825020   21.968654 C.3        1 MOL1        -0.1684
       8    H5      21.707363   19.658110   21.283059 H          1 MOL1         0.0833
       9    H6      22.936261   18.528899   21.756983 H          1 MOL1         0.0833
      10    C4      21.824086   19.304602   23.442786 C.3        1 MOL1        -0.1760
      11    H7      21.497823   18.492432   24.103627 H          1 MOL1         0.0833
      12    H8      22.847712   19.544031   23.760751 H          1 MOL1         0.0833
      13    C5      20.970274   20.577092   23.671367 C.3        1 MOL1         0.1219
      14    H9      21.329457   21.358153   22.986144 H          1 MOL1         0.0790
      15    C6      19.440529   20.429168   23.475213 C.3        1 MOL1        -0.1760
      16    H10     19.035868   19.653994   24.137130 H          1 MOL1         0.0833
      17    H11     18.981743   21.368011   23.813336 H          1 MOL1         0.0833
      18    C7      18.989587   20.197985   22.008247 C.3        1 MOL1        -0.1684
      19    H12     19.739430   20.586581   21.309827 H          1 MOL1         0.0833
      20    H13     18.097475   20.811793   21.822827 H          1 MOL1         0.0833
      21    C8      18.619996   18.735339   21.652109 C.3        1 MOL1        -0.1684
      22    H14     18.532461   18.645464   20.560886 H          1 MOL1         0.0833
      23    H15     17.614460   18.537337   22.047828 H          1 MOL1         0.0833
      24    O1      21.193427   21.011580   25.005766 O.3        1 MOL1        -0.5508
      25    H16     20.864044   20.296377   25.587813 H          1 MOL1         0.3780
@<TRIPOS>BOND
    1     1     2    1
    2     1     3    1
    3     1     4    1
    4     4     5    1
    5     4     6    1
    6     4     7    1
    7     7     8    1
    8     7     9    1
    9     7    10    1
   10    10    11    1
   11    10    12    1
   12    10    13    1
   13    13    14    1
   14    13    15    1
   15    15    16    1
   16    15    17    1
   17    15    18    1
   18    18    19    1
   19    18    20    1
   20     1    21    1
   21    18    21    1
   22    21    22    1
   23    21    23    1
   24    13    24    1
   25    24    25    1
@<TRIPOS>SUBSTRUCTURE
       1 MOL1            1 RESIDUE      1      MOL     
@<SCITEGIC>MOL_PROPERTY
VConf Rank
SciTegic.value.IntegerValue
170

@<SCITEGIC>MOL_PROPERTY
Conf_Id
SciTegic.value.IntegerValue
15

@<SCITEGIC>MOL_PROPERTY
Delta U+W
SciTegic.value.DoubleValue
-1.271

@<SCITEGIC>MOL_PROPERTY
U+W
SciTegic.value.DoubleValue
9.643

@<SCITEGIC>MOL_PROPERTY
Grad RMS
SciTegic.value.DoubleValue
0.000000

@<SCITEGIC>MOL_PROPERTY
U
SciTegic.value.DoubleValue
11.413

@<SCITEGIC>MOL_PROPERTY
W
SciTegic.value.DoubleValue
-1.770

@<SCITEGIC>MOL_PROPERTY
W(PB)
SciTegic.value.DoubleValue
-3.908

@<SCITEGIC>MOL_PROPERTY
W(SA)
SciTegic.value.DoubleValue
2.138

@<SCITEGIC>MOL_PROPERTY
Valence
SciTegic.value.DoubleValue
17.496

@<SCITEGIC>MOL_PROPERTY
Coulomb
SciTegic.value.DoubleValue
-8.736

@<SCITEGIC>MOL_PROPERTY
VdW
SciTegic.value.DoubleValue
2.653

@<SCITEGIC>MOL_PROPERTY
VdW6
SciTegic.value.DoubleValue
-12.485

@<SCITEGIC>MOL_PROPERTY
VdW12
SciTegic.value.DoubleValue
15.138

@<SCITEGIC>MOL_PROPERTY
Bond
SciTegic.value.DoubleValue
0.414

@<SCITEGIC>MOL_PROPERTY
Angle
SciTegic.value.DoubleValue
5.295

@<SCITEGIC>MOL_PROPERTY
Pdih
SciTegic.value.DoubleValue
11.787

@<SCITEGIC>MOL_PROPERTY
Idih
SciTegic.value.DoubleValue
0.000

@<SCITEGIC>MOL_PROPERTY
Tether
SciTegic.value.DoubleValue
0.000

@<TRIPOS>MOLECULE
guest-s17_confgen4.mol2 : confsearch ligand conformer 171
          25          25           1
SMALL
USER_CHARGES
 
@<TRIPOS>ATOM
       1    C1      18.523415   18.968164   23.206337 C.3        1 MOL1        -0.1684
       2    H1      17.439429   18.841347   23.332332 H          1 MOL1         0.0833
       3    H2      18.867328   19.395181   24.156887 H          1 MOL1         0.0833
       4    C2      19.123296   17.553379   22.993379 C.3        1 MOL1        -0.1684
       5    H3      18.998872   16.986476   23.926097 H          1 MOL1         0.0833
       6    H4      18.524853   17.023343   22.239919 H          1 MOL1         0.0833
       7    C3      20.609653   17.486492   22.567234 C.3        1 MOL1        -0.1684
       8    H5      20.694129   17.702692   21.495837 H          1 MOL1         0.0833
       9    H6      20.947446   16.446328   22.670882 H          1 MOL1         0.0833
      10    C4      21.548807   18.400414   23.396806 C.3        1 MOL1        -0.1760
      11    H7      21.020826   18.825190   24.257731 H          1 MOL1         0.0833
      12    H8      22.342673   17.778978   23.831305 H          1 MOL1         0.0833
      13    C5      22.230029   19.525737   22.584492 C.3        1 MOL1         0.1219
      14    H9      23.011894   19.062342   21.965798 H          1 MOL1         0.0790
      15    C6      21.318672   20.342012   21.631810 C.3        1 MOL1        -0.1760
      16    H10     21.912437   21.192693   21.271089 H          1 MOL1         0.0833
      17    H11     21.101119   19.758382   20.729281 H          1 MOL1         0.0833
      18    C7      19.997449   20.897856   22.227165 C.3        1 MOL1        -0.1684
      19    H12     19.776765   21.830975   21.690760 H          1 MOL1         0.0833
      20    H13     20.128008   21.192453   23.276440 H          1 MOL1         0.0833
      21    C8      18.755902   19.979549   22.056718 C.3        1 MOL1        -0.1684
      22    H14     18.769529   19.469114   21.084372 H          1 MOL1         0.0833
      23    H15     17.875820   20.636647   22.027472 H          1 MOL1         0.0833
      24    O1      22.844475   20.423008   23.498695 O.3        1 MOL1        -0.5508
      25    H16     22.111814   20.879797   23.958799 H          1 MOL1         0.3780
@<TRIPOS>BOND
    1     1     2    1
    2     1     3    1
    3     1     4    1
    4     4     5    1
    5     4     6    1
    6     4     7    1
    7     7     8    1
    8     7     9    1
    9     7    10    1
   10    10    11    1
   11    10    12    1
   12    10    13    1
   13    13    14    1
   14    13    15    1
   15    15    16    1
   16    15    17    1
   17    15    18    1
   18    18    19    1
   19    18    20    1
   20     1    21    1
   21    18    21    1
   22    21    22    1
   23    21    23    1
   24    13    24    1
   25    24    25    1
@<TRIPOS>SUBSTRUCTURE
       1 MOL1            1 RESIDUE      1      MOL     
@<SCITEGIC>MOL_PROPERTY
VConf Rank
SciTegic.value.IntegerValue
171

@<SCITEGIC>MOL_PROPERTY
Conf_Id
SciTegic.value.IntegerValue
115

@<SCITEGIC>MOL_PROPERTY
Delta U+W
SciTegic.value.DoubleValue
0.038

@<SCITEGIC>MOL_PROPERTY
U+W
SciTegic.value.DoubleValue
10.952

@<SCITEGIC>MOL_PROPERTY
Grad RMS
SciTegic.value.DoubleValue
0.000000

@<SCITEGIC>MOL_PROPERTY
U
SciTegic.value.DoubleValue
12.526

@<SCITEGIC>MOL_PROPERTY
W
SciTegic.value.DoubleValue
-1.575

@<SCITEGIC>MOL_PROPERTY
W(PB)
SciTegic.value.DoubleValue
-3.698

@<SCITEGIC>MOL_PROPERTY
W(SA)
SciTegic.value.DoubleValue
2.123

@<SCITEGIC>MOL_PROPERTY
Valence
SciTegic.value.DoubleValue
19.016

@<SCITEGIC>MOL_PROPERTY
Coulomb
SciTegic.value.DoubleValue
-9.226

@<SCITEGIC>MOL_PROPERTY
VdW
SciTegic.value.DoubleValue
2.737

@<SCITEGIC>MOL_PROPERTY
VdW6
SciTegic.value.DoubleValue
-12.612

@<SCITEGIC>MOL_PROPERTY
VdW12
SciTegic.value.DoubleValue
15.349

@<SCITEGIC>MOL_PROPERTY
Bond
SciTegic.value.DoubleValue
0.421

@<SCITEGIC>MOL_PROPERTY
Angle
SciTegic.value.DoubleValue
4.883

@<SCITEGIC>MOL_PROPERTY
Pdih
SciTegic.value.DoubleValue
13.711

@<SCITEGIC>MOL_PROPERTY
Idih
SciTegic.value.DoubleValue
0.000

@<SCITEGIC>MOL_PROPERTY
Tether
SciTegic.value.DoubleValue
0.000

@<TRIPOS>MOLECULE
guest-s17_confgen4.mol2 : confsearch ligand conformer 172
          25          25           1
SMALL
USER_CHARGES
 
@<TRIPOS>ATOM
       1    C1      20.411440   18.431074   24.634457 C.3        1 MOL1        -0.1684
       2    H1      20.907711   17.911497   25.465565 H          1 MOL1         0.0833
       3    H2      19.498199   18.865818   25.062782 H          1 MOL1         0.0833
       4    C2      20.045937   17.363807   23.576683 C.3        1 MOL1        -0.1684
       5    H3      20.951853   16.843577   23.237167 H          1 MOL1         0.0833
       6    H4      19.437281   16.599130   24.078485 H          1 MOL1         0.0833
       7    C3      19.244768   17.888661   22.362783 C.3        1 MOL1        -0.1684
       8    H5      18.476869   18.601342   22.692016 H          1 MOL1         0.0833
       9    H6      18.691358   17.038020   21.941699 H          1 MOL1         0.0833
      10    C4      20.121125   18.482475   21.227300 C.3        1 MOL1        -0.1760
      11    H7      21.178339   18.221591   21.361645 H          1 MOL1         0.0833
      12    H8      19.816883   17.996018   20.290626 H          1 MOL1         0.0833
      13    C5      19.973736   20.009091   21.038425 C.3        1 MOL1         0.1219
      14    H9      18.928821   20.292088   21.230089 H          1 MOL1         0.0790
      15    C6      20.897403   20.861546   21.936530 C.3        1 MOL1        -0.1760
      16    H10     21.948611   20.635740   21.713905 H          1 MOL1         0.0833
      17    H11     20.752192   21.913285   21.656939 H          1 MOL1         0.0833
      18    C7      20.637951   20.743256   23.458161 C.3        1 MOL1        -0.1684
      19    H12     19.559020   20.730840   23.662574 H          1 MOL1         0.0833
      20    H13     21.011690   21.664524   23.925938 H          1 MOL1         0.0833
      21    C8      21.357454   19.551529   24.142343 C.3        1 MOL1        -0.1684
      22    H14     21.881394   19.946592   25.023600 H          1 MOL1         0.0833
      23    H15     22.144317   19.134135   23.500115 H          1 MOL1         0.0833
      24    O1      20.289247   20.317780   19.686089 O.3        1 MOL1        -0.5508
      25    H16     20.138242   21.279342   19.572383 H          1 MOL1         0.3780
@<TRIPOS>BOND
    1     1     2    1
    2     1     3    1
    3     1     4    1
    4     4     5    1
    5     4     6    1
    6     4     7    1
    7     7     8    1
    8     7     9    1
    9     7    10    1
   10    10    11    1
   11    10    12    1
   12    10    13    1
   13    13    14    1
   14    13    15    1
   15    15    16    1
   16    15    17    1
   17    15    18    1
   18    18    19    1
   19    18    20    1
   20     1    21    1
   21    18    21    1
   22    21    22    1
   23    21    23    1
   24    13    24    1
   25    24    25    1
@<TRIPOS>SUBSTRUCTURE
       1 MOL1            1 RESIDUE      1      MOL     
@<SCITEGIC>MOL_PROPERTY
VConf Rank
SciTegic.value.IntegerValue
172

@<SCITEGIC>MOL_PROPERTY
Conf_Id
SciTegic.value.IntegerValue
30

@<SCITEGIC>MOL_PROPERTY
Delta U+W
SciTegic.value.DoubleValue
0.000

@<SCITEGIC>MOL_PROPERTY
U+W
SciTegic.value.DoubleValue
10.913

@<SCITEGIC>MOL_PROPERTY
Grad RMS
SciTegic.value.DoubleValue
0.000000

@<SCITEGIC>MOL_PROPERTY
U
SciTegic.value.DoubleValue
13.140

@<SCITEGIC>MOL_PROPERTY
W
SciTegic.value.DoubleValue
-2.227

@<SCITEGIC>MOL_PROPERTY
W(PB)
SciTegic.value.DoubleValue
-4.367

@<SCITEGIC>MOL_PROPERTY
W(SA)
SciTegic.value.DoubleValue
2.140

@<SCITEGIC>MOL_PROPERTY
Valence
SciTegic.value.DoubleValue
19.155

@<SCITEGIC>MOL_PROPERTY
Coulomb
SciTegic.value.DoubleValue
-8.157

@<SCITEGIC>MOL_PROPERTY
VdW
SciTegic.value.DoubleValue
2.142

@<SCITEGIC>MOL_PROPERTY
VdW6
SciTegic.value.DoubleValue
-11.576

@<SCITEGIC>MOL_PROPERTY
VdW12
SciTegic.value.DoubleValue
13.718

@<SCITEGIC>MOL_PROPERTY
Bond
SciTegic.value.DoubleValue
0.294

@<SCITEGIC>MOL_PROPERTY
Angle
SciTegic.value.DoubleValue
3.547

@<SCITEGIC>MOL_PROPERTY
Pdih
SciTegic.value.DoubleValue
15.314

@<SCITEGIC>MOL_PROPERTY
Idih
SciTegic.value.DoubleValue
0.000

@<SCITEGIC>MOL_PROPERTY
Tether
SciTegic.value.DoubleValue
0.000

@<TRIPOS>MOLECULE
guest-s17_confgen4.mol2 : confsearch ligand conformer 173
          25          25           1
SMALL
USER_CHARGES
 
@<TRIPOS>ATOM
       1    C1      21.704340   18.792203   21.108034 C.3        1 MOL1        -0.1684
       2    H1      22.440249   17.987262   20.976262 H          1 MOL1         0.0833
       3    H2      21.842671   19.464072   20.249997 H          1 MOL1         0.0833
       4    C2      22.057000   19.573752   22.397567 C.3        1 MOL1        -0.1684
       5    H3      23.143843   19.733420   22.409801 H          1 MOL1         0.0833
       6    H4      21.629833   20.581908   22.345554 H          1 MOL1         0.0833
       7    C3      21.646896   18.860869   23.711117 C.3        1 MOL1        -0.1684
       8    H5      22.535888   18.755556   24.347740 H          1 MOL1         0.0833
       9    H6      21.319779   17.833077   23.515476 H          1 MOL1         0.0833
      10    C4      20.560178   19.609249   24.523844 C.3        1 MOL1        -0.1760
      11    H7      20.205688   18.944666   25.322859 H          1 MOL1         0.0833
      12    H8      21.030530   20.463117   25.028666 H          1 MOL1         0.0833
      13    C5      19.339954   20.144726   23.733592 C.3        1 MOL1         0.1219
      14    H9      19.655389   20.994525   23.113650 H          1 MOL1         0.0790
      15    C6      18.636177   19.105354   22.827116 C.3        1 MOL1        -0.1760
      16    H10     18.718733   18.101362   23.262702 H          1 MOL1         0.0833
      17    H11     17.561427   19.330870   22.820018 H          1 MOL1         0.0833
      18    C7      19.102923   19.106261   21.343911 C.3        1 MOL1        -0.1684
      19    H12     19.313147   20.125835   20.993631 H          1 MOL1         0.0833
      20    H13     18.251344   18.761145   20.741460 H          1 MOL1         0.0833
      21    C8      20.288694   18.161253   21.028147 C.3        1 MOL1        -0.1684
      22    H14     20.161216   17.791808   20.001343 H          1 MOL1         0.0833
      23    H15     20.230046   17.263474   21.656544 H          1 MOL1         0.0833
      24    O1      18.397542   20.620085   24.687590 O.3        1 MOL1        -0.5508
      25    H16     17.665150   21.029449   24.181155 H          1 MOL1         0.3780
@<TRIPOS>BOND
    1     1     2    1
    2     1     3    1
    3     1     4    1
    4     4     5    1
    5     4     6    1
    6     4     7    1
    7     7     8    1
    8     7     9    1
    9     7    10    1
   10    10    11    1
   11    10    12    1
   12    10    13    1
   13    13    14    1
   14    13    15    1
   15    15    16    1
   16    15    17    1
   17    15    18    1
   18    18    19    1
   19    18    20    1
   20     1    21    1
   21    18    21    1
   22    21    22    1
   23    21    23    1
   24    13    24    1
   25    24    25    1
@<TRIPOS>SUBSTRUCTURE
       1 MOL1            1 RESIDUE      1      MOL     
@<SCITEGIC>MOL_PROPERTY
VConf Rank
SciTegic.value.IntegerValue
173

@<SCITEGIC>MOL_PROPERTY
Conf_Id
SciTegic.value.IntegerValue
162

@<SCITEGIC>MOL_PROPERTY
Delta U+W
SciTegic.value.DoubleValue
0.219

@<SCITEGIC>MOL_PROPERTY
U+W
SciTegic.value.DoubleValue
11.132

@<SCITEGIC>MOL_PROPERTY
Grad RMS
SciTegic.value.DoubleValue
0.000000

@<SCITEGIC>MOL_PROPERTY
U
SciTegic.value.DoubleValue
13.296

@<SCITEGIC>MOL_PROPERTY
W
SciTegic.value.DoubleValue
-2.164

@<SCITEGIC>MOL_PROPERTY
W(PB)
SciTegic.value.DoubleValue
-4.311

@<SCITEGIC>MOL_PROPERTY
W(SA)
SciTegic.value.DoubleValue
2.148

@<SCITEGIC>MOL_PROPERTY
Valence
SciTegic.value.DoubleValue
18.607

@<SCITEGIC>MOL_PROPERTY
Coulomb
SciTegic.value.DoubleValue
-8.339

@<SCITEGIC>MOL_PROPERTY
VdW
SciTegic.value.DoubleValue
3.028

@<SCITEGIC>MOL_PROPERTY
VdW6
SciTegic.value.DoubleValue
-12.271

@<SCITEGIC>MOL_PROPERTY
VdW12
SciTegic.value.DoubleValue
15.299

@<SCITEGIC>MOL_PROPERTY
Bond
SciTegic.value.DoubleValue
0.423

@<SCITEGIC>MOL_PROPERTY
Angle
SciTegic.value.DoubleValue
4.488

@<SCITEGIC>MOL_PROPERTY
Pdih
SciTegic.value.DoubleValue
13.696

@<SCITEGIC>MOL_PROPERTY
Idih
SciTegic.value.DoubleValue
0.000

@<SCITEGIC>MOL_PROPERTY
Tether
SciTegic.value.DoubleValue
0.000

@<TRIPOS>MOLECULE
guest-s17_confgen4.mol2 : confsearch ligand conformer 174
          25          25           1
SMALL
USER_CHARGES
 
@<TRIPOS>ATOM
       1    C1      19.825608   17.601662   23.706795 C.3        1 MOL1        -0.1684
       2    H1      20.775726   17.151990   23.391733 H          1 MOL1         0.0833
       3    H2      19.363378   16.849417   24.360581 H          1 MOL1         0.0833
       4    C2      20.096306   18.869928   24.554101 C.3        1 MOL1        -0.1684
       5    H3      19.210640   19.518959   24.578267 H          1 MOL1         0.0833
       6    H4      20.239851   18.535592   25.590804 H          1 MOL1         0.0833
       7    C3      21.368583   19.670542   24.159274 C.3        1 MOL1        -0.1684
       8    H5      22.183266   18.998132   23.858734 H          1 MOL1         0.0833
       9    H6      21.725215   20.169148   25.071051 H          1 MOL1         0.0833
      10    C4      21.149170   20.780079   23.098155 C.3        1 MOL1        -0.1760
      11    H7      20.152896   21.222685   23.219949 H          1 MOL1         0.0833
      12    H8      21.849699   21.596527   23.316985 H          1 MOL1         0.0833
      13    C5      21.389227   20.376904   21.621284 C.3        1 MOL1         0.1219
      14    H9      22.470359   20.230819   21.483788 H          1 MOL1         0.0790
      15    C6      20.685947   19.085182   21.140758 C.3        1 MOL1        -0.1760
      16    H10     20.761983   19.032029   20.046961 H          1 MOL1         0.0833
      17    H11     21.253435   18.218267   21.495713 H          1 MOL1         0.0833
      18    C7      19.191670   18.970809   21.542669 C.3        1 MOL1        -0.1684
      19    H12     18.589331   18.849894   20.632215 H          1 MOL1         0.0833
      20    H13     18.834343   19.905186   21.991408 H          1 MOL1         0.0833
      21    C8      18.879240   17.788243   22.491199 C.3        1 MOL1        -0.1684
      22    H14     18.885485   16.857570   21.907635 H          1 MOL1         0.0833
      23    H15     17.850000   17.904245   22.857152 H          1 MOL1         0.0833
      24    O1      20.961668   21.457672   20.800776 O.3        1 MOL1        -0.5508
      25    H16     21.117686   21.185837   19.872939 H          1 MOL1         0.3780
@<TRIPOS>BOND
    1     1     2    1
    2     1     3    1
    3     1     4    1
    4     4     5    1
    5     4     6    1
    6     4     7    1
    7     7     8    1
    8     7     9    1
    9     7    10    1
   10    10    11    1
   11    10    12    1
   12    10    13    1
   13    13    14    1
   14    13    15    1
   15    15    16    1
   16    15    17    1
   17    15    18    1
   18    18    19    1
   19    18    20    1
   20     1    21    1
   21    18    21    1
   22    21    22    1
   23    21    23    1
   24    13    24    1
   25    24    25    1
@<TRIPOS>SUBSTRUCTURE
       1 MOL1            1 RESIDUE      1      MOL     
@<SCITEGIC>MOL_PROPERTY
VConf Rank
SciTegic.value.IntegerValue
174

@<SCITEGIC>MOL_PROPERTY
Conf_Id
SciTegic.value.IntegerValue
155

@<SCITEGIC>MOL_PROPERTY
Delta U+W
SciTegic.value.DoubleValue
0.339

@<SCITEGIC>MOL_PROPERTY
U+W
SciTegic.value.DoubleValue
11.252

@<SCITEGIC>MOL_PROPERTY
Grad RMS
SciTegic.value.DoubleValue
0.000000

@<SCITEGIC>MOL_PROPERTY
U
SciTegic.value.DoubleValue
13.420

@<SCITEGIC>MOL_PROPERTY
W
SciTegic.value.DoubleValue
-2.167

@<SCITEGIC>MOL_PROPERTY
W(PB)
SciTegic.value.DoubleValue
-4.325

@<SCITEGIC>MOL_PROPERTY
W(SA)
SciTegic.value.DoubleValue
2.157

@<SCITEGIC>MOL_PROPERTY
Valence
SciTegic.value.DoubleValue
18.609

@<SCITEGIC>MOL_PROPERTY
Coulomb
SciTegic.value.DoubleValue
-8.052

@<SCITEGIC>MOL_PROPERTY
VdW
SciTegic.value.DoubleValue
2.863

@<SCITEGIC>MOL_PROPERTY
VdW6
SciTegic.value.DoubleValue
-12.524

@<SCITEGIC>MOL_PROPERTY
VdW12
SciTegic.value.DoubleValue
15.387

@<SCITEGIC>MOL_PROPERTY
Bond
SciTegic.value.DoubleValue
0.430

@<SCITEGIC>MOL_PROPERTY
Angle
SciTegic.value.DoubleValue
4.724

@<SCITEGIC>MOL_PROPERTY
Pdih
SciTegic.value.DoubleValue
13.455

@<SCITEGIC>MOL_PROPERTY
Idih
SciTegic.value.DoubleValue
0.000

@<SCITEGIC>MOL_PROPERTY
Tether
SciTegic.value.DoubleValue
0.000

@<TRIPOS>MOLECULE
guest-s17_confgen4.mol2 : confsearch ligand conformer 175
          25          25           1
SMALL
USER_CHARGES
 
@<TRIPOS>ATOM
       1    C1      21.814229   18.054377   23.401733 C.3        1 MOL1        -0.1684
       2    H1      21.918991   18.083614   24.494669 H          1 MOL1         0.0833
       3    H2      22.577603   17.345150   23.053824 H          1 MOL1         0.0833
       4    C2      20.434375   17.446460   23.036685 C.3        1 MOL1        -0.1684
       5    H3      20.375601   17.308363   21.952427 H          1 MOL1         0.0833
       6    H4      20.409910   16.420285   23.427944 H          1 MOL1         0.0833
       7    C3      19.164428   18.170142   23.572162 C.3        1 MOL1        -0.1684
       8    H5      18.966573   17.783885   24.581226 H          1 MOL1         0.0833
       9    H6      18.299657   17.866447   22.966638 H          1 MOL1         0.0833
      10    C4      19.192938   19.719381   23.676808 C.3        1 MOL1        -0.1760
      11    H7      18.279048   20.029580   24.200143 H          1 MOL1         0.0833
      12    H8      19.987338   20.018378   24.366216 H          1 MOL1         0.0833
      13    C5      19.286977   20.538830   22.356215 C.3        1 MOL1         0.1219
      14    H9      19.708383   21.523948   22.602649 H          1 MOL1         0.0790
      15    C6      20.121540   19.940946   21.195793 C.3        1 MOL1        -0.1760
      16    H10     19.679876   18.987264   20.892571 H          1 MOL1         0.0833
      17    H11     19.975025   20.584640   20.318401 H          1 MOL1         0.0833
      18    C7      21.659563   19.798926   21.402237 C.3        1 MOL1        -0.1684
      19    H12     22.119223   20.755097   21.117130 H          1 MOL1         0.0833
      20    H13     22.047463   19.062666   20.685454 H          1 MOL1         0.0833
      21    C8      22.180080   19.452203   22.821932 C.3        1 MOL1        -0.1684
      22    H14     21.896854   20.248543   23.517348 H          1 MOL1         0.0833
      23    H15     23.276683   19.512957   22.796425 H          1 MOL1         0.0833
      24    O1      17.964695   20.723597   21.862641 O.3        1 MOL1        -0.5508
      25    H16     17.451672   21.149193   22.580218 H          1 MOL1         0.3780
@<TRIPOS>BOND
    1     1     2    1
    2     1     3    1
    3     1     4    1
    4     4     5    1
    5     4     6    1
    6     4     7    1
    7     7     8    1
    8     7     9    1
    9     7    10    1
   10    10    11    1
   11    10    12    1
   12    10    13    1
   13    13    14    1
   14    13    15    1
   15    15    16    1
   16    15    17    1
   17    15    18    1
   18    18    19    1
   19    18    20    1
   20     1    21    1
   21    18    21    1
   22    21    22    1
   23    21    23    1
   24    13    24    1
   25    24    25    1
@<TRIPOS>SUBSTRUCTURE
       1 MOL1            1 RESIDUE      1      MOL     
@<SCITEGIC>MOL_PROPERTY
VConf Rank
SciTegic.value.IntegerValue
175

@<SCITEGIC>MOL_PROPERTY
Conf_Id
SciTegic.value.IntegerValue
146

@<SCITEGIC>MOL_PROPERTY
Delta U+W
SciTegic.value.DoubleValue
2.553

@<SCITEGIC>MOL_PROPERTY
U+W
SciTegic.value.DoubleValue
13.466

@<SCITEGIC>MOL_PROPERTY
Grad RMS
SciTegic.value.DoubleValue
0.000000

@<SCITEGIC>MOL_PROPERTY
U
SciTegic.value.DoubleValue
15.643

@<SCITEGIC>MOL_PROPERTY
W
SciTegic.value.DoubleValue
-2.176

@<SCITEGIC>MOL_PROPERTY
W(PB)
SciTegic.value.DoubleValue
-4.307

@<SCITEGIC>MOL_PROPERTY
W(SA)
SciTegic.value.DoubleValue
2.131

@<SCITEGIC>MOL_PROPERTY
Valence
SciTegic.value.DoubleValue
18.916

@<SCITEGIC>MOL_PROPERTY
Coulomb
SciTegic.value.DoubleValue
-7.506

@<SCITEGIC>MOL_PROPERTY
VdW
SciTegic.value.DoubleValue
4.232

@<SCITEGIC>MOL_PROPERTY
VdW6
SciTegic.value.DoubleValue
-13.632

@<SCITEGIC>MOL_PROPERTY
VdW12
SciTegic.value.DoubleValue
17.864

@<SCITEGIC>MOL_PROPERTY
Bond
SciTegic.value.DoubleValue
0.735

@<SCITEGIC>MOL_PROPERTY
Angle
SciTegic.value.DoubleValue
9.140

@<SCITEGIC>MOL_PROPERTY
Pdih
SciTegic.value.DoubleValue
9.042

@<SCITEGIC>MOL_PROPERTY
Idih
SciTegic.value.DoubleValue
0.000

@<SCITEGIC>MOL_PROPERTY
Tether
SciTegic.value.DoubleValue
0.000

@<TRIPOS>MOLECULE
guest-s17_confgen4.mol2 : confsearch ligand conformer 176
          25          25           1
SMALL
USER_CHARGES
 
@<TRIPOS>ATOM
       1    C1      19.027662   20.025054   24.088326 C.3        1 MOL1        -0.1684
       2    H1      17.991395   20.308015   23.859005 H          1 MOL1         0.0833
       3    H2      19.165387   20.245033   25.155825 H          1 MOL1         0.0833
       4    C2      19.994829   20.942279   23.298750 C.3        1 MOL1        -0.1684
       5    H3      19.804717   21.973872   23.625054 H          1 MOL1         0.0833
       6    H4      21.031991   20.746680   23.594015 H          1 MOL1         0.0833
       7    C3      19.854180   20.915075   21.756071 C.3        1 MOL1        -0.1684
       8    H5      20.515138   21.693052   21.350030 H          1 MOL1         0.0833
       9    H6      18.834821   21.215961   21.478912 H          1 MOL1         0.0833
      10    C4      20.197206   19.581496   21.042205 C.3        1 MOL1        -0.1760
      11    H7      19.345711   18.895294   21.088607 H          1 MOL1         0.0833
      12    H8      20.309287   19.807335   19.973107 H          1 MOL1         0.0833
      13    C5      21.481739   18.875588   21.547915 C.3        1 MOL1         0.1219
      14    H9      22.118817   19.601041   22.071454 H          1 MOL1         0.0790
      15    C6      21.215270   17.663138   22.475666 C.3        1 MOL1        -0.1760
      16    H10     20.551363   16.955233   21.962033 H          1 MOL1         0.0833
      17    H11     22.164417   17.129925   22.617598 H          1 MOL1         0.0833
      18    C7      20.643839   17.971014   23.886440 C.3        1 MOL1        -0.1684
      19    H12     21.309862   18.647272   24.437700 H          1 MOL1         0.0833
      20    H13     20.660711   17.029016   24.451540 H          1 MOL1         0.0833
      21    C8      19.184166   18.494193   23.897586 C.3        1 MOL1        -0.1684
      22    H14     18.654201   18.010008   24.729295 H          1 MOL1         0.0833
      23    H15     18.648518   18.159691   23.002034 H          1 MOL1         0.0833
      24    O1      22.195806   18.392880   20.415462 O.3        1 MOL1        -0.5508
      25    H16     23.030062   18.003752   20.751343 H          1 MOL1         0.3780
@<TRIPOS>BOND
    1     1     2    1
    2     1     3    1
    3     1     4    1
    4     4     5    1
    5     4     6    1
    6     4     7    1
    7     7     8    1
    8     7     9    1
    9     7    10    1
   10    10    11    1
   11    10    12    1
   12    10    13    1
   13    13    14    1
   14    13    15    1
   15    15    16    1
   16    15    17    1
   17    15    18    1
   18    18    19    1
   19    18    20    1
   20     1    21    1
   21    18    21    1
   22    21    22    1
   23    21    23    1
   24    13    24    1
   25    24    25    1
@<TRIPOS>SUBSTRUCTURE
       1 MOL1            1 RESIDUE      1      MOL     
@<SCITEGIC>MOL_PROPERTY
VConf Rank
SciTegic.value.IntegerValue
176

@<SCITEGIC>MOL_PROPERTY
Conf_Id
SciTegic.value.IntegerValue
62

@<SCITEGIC>MOL_PROPERTY
Delta U+W
SciTegic.value.DoubleValue
-1.779

@<SCITEGIC>MOL_PROPERTY
U+W
SciTegic.value.DoubleValue
9.134

@<SCITEGIC>MOL_PROPERTY
Grad RMS
SciTegic.value.DoubleValue
0.000000

@<SCITEGIC>MOL_PROPERTY
U
SciTegic.value.DoubleValue
11.364

@<SCITEGIC>MOL_PROPERTY
W
SciTegic.value.DoubleValue
-2.230

@<SCITEGIC>MOL_PROPERTY
W(PB)
SciTegic.value.DoubleValue
-4.359

@<SCITEGIC>MOL_PROPERTY
W(SA)
SciTegic.value.DoubleValue
2.129

@<SCITEGIC>MOL_PROPERTY
Valence
SciTegic.value.DoubleValue
16.582

@<SCITEGIC>MOL_PROPERTY
Coulomb
SciTegic.value.DoubleValue
-8.150

@<SCITEGIC>MOL_PROPERTY
VdW
SciTegic.value.DoubleValue
2.933

@<SCITEGIC>MOL_PROPERTY
VdW6
SciTegic.value.DoubleValue
-12.531

@<SCITEGIC>MOL_PROPERTY
VdW12
SciTegic.value.DoubleValue
15.464

@<SCITEGIC>MOL_PROPERTY
Bond
SciTegic.value.DoubleValue
0.439

@<SCITEGIC>MOL_PROPERTY
Angle
SciTegic.value.DoubleValue
5.099

@<SCITEGIC>MOL_PROPERTY
Pdih
SciTegic.value.DoubleValue
11.044

@<SCITEGIC>MOL_PROPERTY
Idih
SciTegic.value.DoubleValue
0.000

@<SCITEGIC>MOL_PROPERTY
Tether
SciTegic.value.DoubleValue
0.000

@<TRIPOS>MOLECULE
guest-s17_confgen4.mol2 : confsearch ligand conformer 177
          25          25           1
SMALL
USER_CHARGES
 
@<TRIPOS>ATOM
       1    C1      19.040357   19.616302   21.424210 C.3        1 MOL1        -0.1684
       2    H1      18.850143   20.299952   22.259413 H          1 MOL1         0.0833
       3    H2      18.251304   19.844546   20.694868 H          1 MOL1         0.0833
       4    C2      18.841276   18.146999   21.872727 C.3        1 MOL1        -0.1684
       5    H3      17.802608   18.045811   22.215974 H          1 MOL1         0.0833
       6    H4      18.931344   17.485909   21.000177 H          1 MOL1         0.0833
       7    C3      19.766092   17.620909   22.999965 C.3        1 MOL1        -0.1684
       8    H5      20.728413   17.296441   22.588078 H          1 MOL1         0.0833
       9    H6      19.309952   16.700477   23.389537 H          1 MOL1         0.0833
      10    C4      19.983005   18.595277   24.188606 C.3        1 MOL1        -0.1760
      11    H7      19.153607   19.308458   24.270601 H          1 MOL1         0.0833
      12    H8      19.942813   17.997915   25.108871 H          1 MOL1         0.0833
      13    C5      21.341431   19.340946   24.181547 C.3        1 MOL1         0.1219
      14    H9      22.143763   18.594645   24.090553 H          1 MOL1         0.0790
      15    C6      21.540237   20.399409   23.067976 C.3        1 MOL1        -0.1760
      16    H10     20.756278   21.164558   23.120365 H          1 MOL1         0.0833
      17    H11     22.475350   20.929006   23.293588 H          1 MOL1         0.0833
      18    C7      21.668205   19.824743   21.631678 C.3        1 MOL1        -0.1684
      19    H12     22.015586   18.785856   21.663069 H          1 MOL1         0.0833
      20    H13     22.471996   20.367540   21.115694 H          1 MOL1         0.0833
      21    C8      20.396811   19.947597   20.753391 C.3        1 MOL1        -0.1684
      22    H14     20.520664   19.324179   19.857571 H          1 MOL1         0.0833
      23    H15     20.339292   20.982500   20.389318 H          1 MOL1         0.0833
      24    O1      21.475458   20.005270   25.431802 O.3        1 MOL1        -0.5508
      25    H16     21.416208   19.316486   26.126219 H          1 MOL1         0.3780
@<TRIPOS>BOND
    1     1     2    1
    2     1     3    1
    3     1     4    1
    4     4     5    1
    5     4     6    1
    6     4     7    1
    7     7     8    1
    8     7     9    1
    9     7    10    1
   10    10    11    1
   11    10    12    1
   12    10    13    1
   13    13    14    1
   14    13    15    1
   15    15    16    1
   16    15    17    1
   17    15    18    1
   18    18    19    1
   19    18    20    1
   20     1    21    1
   21    18    21    1
   22    21    22    1
   23    21    23    1
   24    13    24    1
   25    24    25    1
@<TRIPOS>SUBSTRUCTURE
       1 MOL1            1 RESIDUE      1      MOL     
@<SCITEGIC>MOL_PROPERTY
VConf Rank
SciTegic.value.IntegerValue
177

@<SCITEGIC>MOL_PROPERTY
Conf_Id
SciTegic.value.IntegerValue
121

@<SCITEGIC>MOL_PROPERTY
Delta U+W
SciTegic.value.DoubleValue
-1.283

@<SCITEGIC>MOL_PROPERTY
U+W
SciTegic.value.DoubleValue
9.630

@<SCITEGIC>MOL_PROPERTY
Grad RMS
SciTegic.value.DoubleValue
0.000000

@<SCITEGIC>MOL_PROPERTY
U
SciTegic.value.DoubleValue
11.876

@<SCITEGIC>MOL_PROPERTY
W
SciTegic.value.DoubleValue
-2.246

@<SCITEGIC>MOL_PROPERTY
W(PB)
SciTegic.value.DoubleValue
-4.376

@<SCITEGIC>MOL_PROPERTY
W(SA)
SciTegic.value.DoubleValue
2.130

@<SCITEGIC>MOL_PROPERTY
Valence
SciTegic.value.DoubleValue
17.153

@<SCITEGIC>MOL_PROPERTY
Coulomb
SciTegic.value.DoubleValue
-7.966

@<SCITEGIC>MOL_PROPERTY
VdW
SciTegic.value.DoubleValue
2.689

@<SCITEGIC>MOL_PROPERTY
VdW6
SciTegic.value.DoubleValue
-12.458

@<SCITEGIC>MOL_PROPERTY
VdW12
SciTegic.value.DoubleValue
15.147

@<SCITEGIC>MOL_PROPERTY
Bond
SciTegic.value.DoubleValue
0.421

@<SCITEGIC>MOL_PROPERTY
Angle
SciTegic.value.DoubleValue
5.258

@<SCITEGIC>MOL_PROPERTY
Pdih
SciTegic.value.DoubleValue
11.475

@<SCITEGIC>MOL_PROPERTY
Idih
SciTegic.value.DoubleValue
0.000

@<SCITEGIC>MOL_PROPERTY
Tether
SciTegic.value.DoubleValue
0.000

@<TRIPOS>MOLECULE
guest-s17_confgen4.mol2 : confsearch ligand conformer 178
          25          25           1
SMALL
USER_CHARGES
 
@<TRIPOS>ATOM
       1    C1      18.878194   20.216279   23.315521 C.3        1 MOL1        -0.1684
       2    H1      19.381033   19.853128   24.219069 H          1 MOL1         0.0833
       3    H2      18.024273   20.797616   23.689024 H          1 MOL1         0.0833
       4    C2      18.305808   19.028834   22.501845 C.3        1 MOL1        -0.1684
       5    H3      17.589502   18.502848   23.147699 H          1 MOL1         0.0833
       6    H4      17.717038   19.416291   21.659402 H          1 MOL1         0.0833
       7    C3      19.319002   17.983578   21.969113 C.3        1 MOL1        -0.1684
       8    H5      19.764811   18.324437   21.027829 H          1 MOL1         0.0833
       9    H6      18.745535   17.088150   21.692900 H          1 MOL1         0.0833
      10    C4      20.424642   17.560000   22.972962 C.3        1 MOL1        -0.1760
      11    H7      20.101012   17.717787   24.008894 H          1 MOL1         0.0833
      12    H8      20.557944   16.474451   22.874862 H          1 MOL1         0.0833
      13    C5      21.810953   18.208179   22.732299 C.3        1 MOL1         0.1219
      14    H9      22.094374   18.029467   21.685057 H          1 MOL1         0.0790
      15    C6      21.918409   19.728598   23.011882 C.3        1 MOL1        -0.1760
      16    H10     21.635251   19.949665   24.048320 H          1 MOL1         0.0833
      17    H11     22.979527   20.000394   22.937728 H          1 MOL1         0.0833
      18    C7      21.143166   20.632591   22.016341 C.3        1 MOL1        -0.1684
      19    H12     20.997688   20.115984   21.060858 H          1 MOL1         0.0833
      20    H13     21.778523   21.493981   21.768645 H          1 MOL1         0.0833
      21    C8      19.797331   21.194136   22.541803 C.3        1 MOL1        -0.1684
      22    H14     19.239481   21.627905   21.700885 H          1 MOL1         0.0833
      23    H15     20.023141   22.033960   23.213067 H          1 MOL1         0.0833
      24    O1      22.744560   17.547095   23.577148 O.3        1 MOL1        -0.5508
      25    H16     23.627367   17.917219   23.367841 H          1 MOL1         0.3780
@<TRIPOS>BOND
    1     1     2    1
    2     1     3    1
    3     1     4    1
    4     4     5    1
    5     4     6    1
    6     4     7    1
    7     7     8    1
    8     7     9    1
    9     7    10    1
   10    10    11    1
   11    10    12    1
   12    10    13    1
   13    13    14    1
   14    13    15    1
   15    15    16    1
   16    15    17    1
   17    15    18    1
   18    18    19    1
   19    18    20    1
   20     1    21    1
   21    18    21    1
   22    21    22    1
   23    21    23    1
   24    13    24    1
   25    24    25    1
@<TRIPOS>SUBSTRUCTURE
       1 MOL1            1 RESIDUE      1      MOL     
@<SCITEGIC>MOL_PROPERTY
VConf Rank
SciTegic.value.IntegerValue
178

@<SCITEGIC>MOL_PROPERTY
Conf_Id
SciTegic.value.IntegerValue
24

@<SCITEGIC>MOL_PROPERTY
Delta U+W
SciTegic.value.DoubleValue
-1.236

@<SCITEGIC>MOL_PROPERTY
U+W
SciTegic.value.DoubleValue
9.678

@<SCITEGIC>MOL_PROPERTY
Grad RMS
SciTegic.value.DoubleValue
0.000000

@<SCITEGIC>MOL_PROPERTY
U
SciTegic.value.DoubleValue
11.876

@<SCITEGIC>MOL_PROPERTY
W
SciTegic.value.DoubleValue
-2.199

@<SCITEGIC>MOL_PROPERTY
W(PB)
SciTegic.value.DoubleValue
-4.335

@<SCITEGIC>MOL_PROPERTY
W(SA)
SciTegic.value.DoubleValue
2.137

@<SCITEGIC>MOL_PROPERTY
Valence
SciTegic.value.DoubleValue
17.153

@<SCITEGIC>MOL_PROPERTY
Coulomb
SciTegic.value.DoubleValue
-7.966

@<SCITEGIC>MOL_PROPERTY
VdW
SciTegic.value.DoubleValue
2.689

@<SCITEGIC>MOL_PROPERTY
VdW6
SciTegic.value.DoubleValue
-12.458

@<SCITEGIC>MOL_PROPERTY
VdW12
SciTegic.value.DoubleValue
15.147

@<SCITEGIC>MOL_PROPERTY
Bond
SciTegic.value.DoubleValue
0.421

@<SCITEGIC>MOL_PROPERTY
Angle
SciTegic.value.DoubleValue
5.258

@<SCITEGIC>MOL_PROPERTY
Pdih
SciTegic.value.DoubleValue
11.475

@<SCITEGIC>MOL_PROPERTY
Idih
SciTegic.value.DoubleValue
0.000

@<SCITEGIC>MOL_PROPERTY
Tether
SciTegic.value.DoubleValue
0.000

@<TRIPOS>MOLECULE
guest-s17_confgen4.mol2 : confsearch ligand conformer 179
          25          25           1
SMALL
USER_CHARGES
 
@<TRIPOS>ATOM
       1    C1      20.150916   17.767295   21.040051 C.3        1 MOL1        -0.1684
       2    H1      19.406704   17.832072   20.234613 H          1 MOL1         0.0833
       3    H2      20.710425   16.840445   20.853633 H          1 MOL1         0.0833
       4    C2      21.139115   18.956397   20.907003 C.3        1 MOL1        -0.1684
       5    H3      22.062079   18.756317   21.465929 H          1 MOL1         0.0833
       6    H4      21.452871   18.994948   19.854797 H          1 MOL1         0.0833
       7    C3      20.581070   20.349879   21.288384 C.3        1 MOL1        -0.1684
       8    H5      19.518995   20.431450   21.020430 H          1 MOL1         0.0833
       9    H6      21.098015   21.084353   20.655519 H          1 MOL1         0.0833
      10    C4      20.822564   20.776879   22.763945 C.3        1 MOL1        -0.1760
      11    H7      21.799155   20.422831   23.118059 H          1 MOL1         0.0833
      12    H8      20.888548   21.873507   22.765816 H          1 MOL1         0.0833
      13    C5      19.704747   20.368770   23.754405 C.3        1 MOL1         0.1219
      14    H9      18.754897   20.316308   23.206037 H          1 MOL1         0.0790
      15    C6      19.937406   19.032743   24.504544 C.3        1 MOL1        -0.1760
      16    H10     20.731082   19.167486   25.251065 H          1 MOL1         0.0833
      17    H11     19.024785   18.806765   25.071710 H          1 MOL1         0.0833
      18    C7      20.292255   17.797351   23.639368 C.3        1 MOL1        -0.1684
      19    H12     20.194037   16.901785   24.267917 H          1 MOL1         0.0833
      20    H13     21.352946   17.830783   23.364581 H          1 MOL1         0.0833
      21    C8      19.397991   17.625222   22.385567 C.3        1 MOL1        -0.1684
      22    H14     18.549252   18.318632   22.407496 H          1 MOL1         0.0833
      23    H15     18.941432   16.626427   22.414436 H          1 MOL1         0.0833
      24    O1      19.584468   21.388656   24.737804 O.3        1 MOL1        -0.5508
      25    H16     20.447108   21.431622   25.199301 H          1 MOL1         0.3780
@<TRIPOS>BOND
    1     1     2    1
    2     1     3    1
    3     1     4    1
    4     4     5    1
    5     4     6    1
    6     4     7    1
    7     7     8    1
    8     7     9    1
    9     7    10    1
   10    10    11    1
   11    10    12    1
   12    10    13    1
   13    13    14    1
   14    13    15    1
   15    15    16    1
   16    15    17    1
   17    15    18    1
   18    18    19    1
   19    18    20    1
   20     1    21    1
   21    18    21    1
   22    21    22    1
   23    21    23    1
   24    13    24    1
   25    24    25    1
@<TRIPOS>SUBSTRUCTURE
       1 MOL1            1 RESIDUE      1      MOL     
@<SCITEGIC>MOL_PROPERTY
VConf Rank
SciTegic.value.IntegerValue
179

@<SCITEGIC>MOL_PROPERTY
Conf_Id
SciTegic.value.IntegerValue
167

@<SCITEGIC>MOL_PROPERTY
Delta U+W
SciTegic.value.DoubleValue
0.388

@<SCITEGIC>MOL_PROPERTY
U+W
SciTegic.value.DoubleValue
11.301

@<SCITEGIC>MOL_PROPERTY
Grad RMS
SciTegic.value.DoubleValue
0.000000

@<SCITEGIC>MOL_PROPERTY
U
SciTegic.value.DoubleValue
13.202

@<SCITEGIC>MOL_PROPERTY
W
SciTegic.value.DoubleValue
-1.901

@<SCITEGIC>MOL_PROPERTY
W(PB)
SciTegic.value.DoubleValue
-4.065

@<SCITEGIC>MOL_PROPERTY
W(SA)
SciTegic.value.DoubleValue
2.163

@<SCITEGIC>MOL_PROPERTY
Valence
SciTegic.value.DoubleValue
18.957

@<SCITEGIC>MOL_PROPERTY
Coulomb
SciTegic.value.DoubleValue
-8.753

@<SCITEGIC>MOL_PROPERTY
VdW
SciTegic.value.DoubleValue
2.998

@<SCITEGIC>MOL_PROPERTY
VdW6
SciTegic.value.DoubleValue
-12.294

@<SCITEGIC>MOL_PROPERTY
VdW12
SciTegic.value.DoubleValue
15.292

@<SCITEGIC>MOL_PROPERTY
Bond
SciTegic.value.DoubleValue
0.419

@<SCITEGIC>MOL_PROPERTY
Angle
SciTegic.value.DoubleValue
4.543

@<SCITEGIC>MOL_PROPERTY
Pdih
SciTegic.value.DoubleValue
13.996

@<SCITEGIC>MOL_PROPERTY
Idih
SciTegic.value.DoubleValue
0.000

@<SCITEGIC>MOL_PROPERTY
Tether
SciTegic.value.DoubleValue
0.000

@<TRIPOS>MOLECULE
guest-s17_confgen4.mol2 : confsearch ligand conformer 180
          25          25           1
SMALL
USER_CHARGES
 
@<TRIPOS>ATOM
       1    C1      20.514481   17.813205   24.135133 C.3        1 MOL1        -0.1684
       2    H1      21.107989   16.903184   23.973544 H          1 MOL1         0.0833
       3    H2      20.154370   17.751450   25.171195 H          1 MOL1         0.0833
       4    C2      19.275899   17.777081   23.202442 C.3        1 MOL1        -0.1684
       5    H3      19.549013   17.396636   22.211748 H          1 MOL1         0.0833
       6    H4      18.591028   17.018790   23.606153 H          1 MOL1         0.0833
       7    C3      18.496387   19.111798   23.077002 C.3        1 MOL1        -0.1684
       8    H5      18.643063   19.739479   23.965412 H          1 MOL1         0.0833
       9    H6      17.424961   18.869069   23.071218 H          1 MOL1         0.0833
      10    C4      18.785314   19.916316   21.780268 C.3        1 MOL1        -0.1760
      11    H7      18.592576   19.280956   20.905961 H          1 MOL1         0.0833
      12    H8      18.048184   20.728286   21.724326 H          1 MOL1         0.0833
      13    C5      20.192530   20.550331   21.649207 C.3        1 MOL1         0.1219
      14    H9      20.396536   21.159241   22.540142 H          1 MOL1         0.0790
      15    C6      21.334091   19.521018   21.444075 C.3        1 MOL1        -0.1760
      16    H10     20.929903   18.584930   21.045773 H          1 MOL1         0.0833
      17    H11     22.013692   19.879281   20.659388 H          1 MOL1         0.0833
      18    C7      22.196473   19.239675   22.701813 C.3        1 MOL1        -0.1684
      19    H12     22.892160   20.080353   22.829193 H          1 MOL1         0.0833
      20    H13     22.825205   18.358974   22.513102 H          1 MOL1         0.0833
      21    C8      21.441284   19.051332   24.041621 C.3        1 MOL1        -0.1684
      22    H14     20.889022   19.960919   24.303936 H          1 MOL1         0.0833
      23    H15     22.198787   18.951290   24.830925 H          1 MOL1         0.0833
      24    O1      20.163915   21.414315   20.519217 O.3        1 MOL1        -0.5508
      25    H16     21.035149   21.861936   20.486001 H          1 MOL1         0.3780
@<TRIPOS>BOND
    1     1     2    1
    2     1     3    1
    3     1     4    1
    4     4     5    1
    5     4     6    1
    6     4     7    1
    7     7     8    1
    8     7     9    1
    9     7    10    1
   10    10    11    1
   11    10    12    1
   12    10    13    1
   13    13    14    1
   14    13    15    1
   15    15    16    1
   16    15    17    1
   17    15    18    1
   18    18    19    1
   19    18    20    1
   20     1    21    1
   21    18    21    1
   22    21    22    1
   23    21    23    1
   24    13    24    1
   25    24    25    1
@<TRIPOS>SUBSTRUCTURE
       1 MOL1            1 RESIDUE      1      MOL     
@<SCITEGIC>MOL_PROPERTY
VConf Rank
SciTegic.value.IntegerValue
180

@<SCITEGIC>MOL_PROPERTY
Conf_Id
SciTegic.value.IntegerValue
60

@<SCITEGIC>MOL_PROPERTY
Delta U+W
SciTegic.value.DoubleValue
-1.838

@<SCITEGIC>MOL_PROPERTY
U+W
SciTegic.value.DoubleValue
9.075

@<SCITEGIC>MOL_PROPERTY
Grad RMS
SciTegic.value.DoubleValue
0.000000

@<SCITEGIC>MOL_PROPERTY
U
SciTegic.value.DoubleValue
11.150

@<SCITEGIC>MOL_PROPERTY
W
SciTegic.value.DoubleValue
-2.074

@<SCITEGIC>MOL_PROPERTY
W(PB)
SciTegic.value.DoubleValue
-4.196

@<SCITEGIC>MOL_PROPERTY
W(SA)
SciTegic.value.DoubleValue
2.121

@<SCITEGIC>MOL_PROPERTY
Valence
SciTegic.value.DoubleValue
16.582

@<SCITEGIC>MOL_PROPERTY
Coulomb
SciTegic.value.DoubleValue
-8.361

@<SCITEGIC>MOL_PROPERTY
VdW
SciTegic.value.DoubleValue
2.928

@<SCITEGIC>MOL_PROPERTY
VdW6
SciTegic.value.DoubleValue
-12.539

@<SCITEGIC>MOL_PROPERTY
VdW12
SciTegic.value.DoubleValue
15.467

@<SCITEGIC>MOL_PROPERTY
Bond
SciTegic.value.DoubleValue
0.441

@<SCITEGIC>MOL_PROPERTY
Angle
SciTegic.value.DoubleValue
5.093

@<SCITEGIC>MOL_PROPERTY
Pdih
SciTegic.value.DoubleValue
11.049

@<SCITEGIC>MOL_PROPERTY
Idih
SciTegic.value.DoubleValue
0.000

@<SCITEGIC>MOL_PROPERTY
Tether
SciTegic.value.DoubleValue
0.000

@<TRIPOS>MOLECULE
guest-s17_confgen4.mol2 : confsearch ligand conformer 181
          25          25           1
SMALL
USER_CHARGES
 
@<TRIPOS>ATOM
       1    C1      19.902111   17.238931   23.184517 C.3        1 MOL1        -0.1684
       2    H1      19.705984   16.959981   24.228656 H          1 MOL1         0.0833
       3    H2      19.845955   16.302615   22.612611 H          1 MOL1         0.0833
       4    C2      21.352739   17.769065   23.060824 C.3        1 MOL1        -0.1684
       5    H3      22.024083   16.954417   23.364911 H          1 MOL1         0.0833
       6    H4      21.602317   17.953453   22.009701 H          1 MOL1         0.0833
       7    C3      21.705478   19.002925   23.929176 C.3        1 MOL1        -0.1684
       8    H5      22.783726   19.184943   23.823371 H          1 MOL1         0.0833
       9    H6      21.547446   18.758065   24.988242 H          1 MOL1         0.0833
      10    C4      20.964533   20.325457   23.602574 C.3        1 MOL1        -0.1760
      11    H7      19.971960   20.326573   24.064171 H          1 MOL1         0.0833
      12    H8      21.503551   21.133337   24.115148 H          1 MOL1         0.0833
      13    C5      20.850594   20.656832   22.091968 C.3        1 MOL1         0.1219
      14    H9      21.602893   20.088448   21.528816 H          1 MOL1         0.0790
      15    C6      19.450997   20.381659   21.487971 C.3        1 MOL1        -0.1760
      16    H10     18.693695   20.923071   22.069872 H          1 MOL1         0.0833
      17    H11     19.428123   20.827714   20.484828 H          1 MOL1         0.0833
      18    C7      19.027847   18.893909   21.347281 C.3        1 MOL1        -0.1684
      19    H12     19.750108   18.340061   20.733799 H          1 MOL1         0.0833
      20    H13     18.092437   18.880134   20.771327 H          1 MOL1         0.0833
      21    C8      18.759900   18.163540   22.688777 C.3        1 MOL1        -0.1684
      22    H14     17.868337   17.534139   22.562269 H          1 MOL1         0.0833
      23    H15     18.477765   18.880934   23.467590 H          1 MOL1         0.0833
      24    O1      21.121324   22.042776   21.918678 O.3        1 MOL1        -0.5508
      25    H16     22.034809   22.192711   22.240515 H          1 MOL1         0.3780
@<TRIPOS>BOND
    1     1     2    1
    2     1     3    1
    3     1     4    1
    4     4     5    1
    5     4     6    1
    6     4     7    1
    7     7     8    1
    8     7     9    1
    9     7    10    1
   10    10    11    1
   11    10    12    1
   12    10    13    1
   13    13    14    1
   14    13    15    1
   15    15    16    1
   16    15    17    1
   17    15    18    1
   18    18    19    1
   19    18    20    1
   20     1    21    1
   21    18    21    1
   22    21    22    1
   23    21    23    1
   24    13    24    1
   25    24    25    1
@<TRIPOS>SUBSTRUCTURE
       1 MOL1            1 RESIDUE      1      MOL     
@<SCITEGIC>MOL_PROPERTY
VConf Rank
SciTegic.value.IntegerValue
181

@<SCITEGIC>MOL_PROPERTY
Conf_Id
SciTegic.value.IntegerValue
129

@<SCITEGIC>MOL_PROPERTY
Delta U+W
SciTegic.value.DoubleValue
-1.846

@<SCITEGIC>MOL_PROPERTY
U+W
SciTegic.value.DoubleValue
9.067

@<SCITEGIC>MOL_PROPERTY
Grad RMS
SciTegic.value.DoubleValue
0.000000

@<SCITEGIC>MOL_PROPERTY
U
SciTegic.value.DoubleValue
11.150

@<SCITEGIC>MOL_PROPERTY
W
SciTegic.value.DoubleValue
-2.083

@<SCITEGIC>MOL_PROPERTY
W(PB)
SciTegic.value.DoubleValue
-4.217

@<SCITEGIC>MOL_PROPERTY
W(SA)
SciTegic.value.DoubleValue
2.134

@<SCITEGIC>MOL_PROPERTY
Valence
SciTegic.value.DoubleValue
16.583

@<SCITEGIC>MOL_PROPERTY
Coulomb
SciTegic.value.DoubleValue
-8.361

@<SCITEGIC>MOL_PROPERTY
VdW
SciTegic.value.DoubleValue
2.928

@<SCITEGIC>MOL_PROPERTY
VdW6
SciTegic.value.DoubleValue
-12.539

@<SCITEGIC>MOL_PROPERTY
VdW12
SciTegic.value.DoubleValue
15.467

@<SCITEGIC>MOL_PROPERTY
Bond
SciTegic.value.DoubleValue
0.441

@<SCITEGIC>MOL_PROPERTY
Angle
SciTegic.value.DoubleValue
5.093

@<SCITEGIC>MOL_PROPERTY
Pdih
SciTegic.value.DoubleValue
11.049

@<SCITEGIC>MOL_PROPERTY
Idih
SciTegic.value.DoubleValue
0.000

@<SCITEGIC>MOL_PROPERTY
Tether
SciTegic.value.DoubleValue
0.000

@<TRIPOS>MOLECULE
guest-s17_confgen4.mol2 : confsearch ligand conformer 182
          25          25           1
SMALL
USER_CHARGES
 
@<TRIPOS>ATOM
       1    C1      22.313624   19.059137   22.821352 C.3        1 MOL1        -0.1684
       2    H1      22.880450   19.752114   23.457746 H          1 MOL1         0.0833
       3    H2      23.058046   18.373611   22.393792 H          1 MOL1         0.0833
       4    C2      21.680793   19.845433   21.645989 C.3        1 MOL1        -0.1684
       5    H3      22.504147   20.293511   21.073172 H          1 MOL1         0.0833
       6    H4      21.198590   19.157157   20.942458 H          1 MOL1         0.0833
       7    C3      20.713907   20.992150   22.033856 C.3        1 MOL1        -0.1684
       8    H5      20.443284   21.522572   21.110564 H          1 MOL1         0.0833
       9    H6      21.249570   21.725128   22.652163 H          1 MOL1         0.0833
      10    C4      19.399682   20.591095   22.753051 C.3        1 MOL1        -0.1760
      11    H7      19.584656   20.440679   23.821554 H          1 MOL1         0.0833
      12    H8      18.731839   21.462025   22.707402 H          1 MOL1         0.0833
      13    C5      18.673737   19.358485   22.154511 C.3        1 MOL1         0.1219
      14    H9      19.012636   19.194201   21.122993 H          1 MOL1         0.0790
      15    C6      18.860402   18.052679   22.967483 C.3        1 MOL1        -0.1760
      16    H10     18.550971   18.221938   24.007108 H          1 MOL1         0.0833
      17    H11     18.160990   17.307111   22.566004 H          1 MOL1         0.0833
      18    C7      20.276122   17.415037   22.954494 C.3        1 MOL1        -0.1684
      19    H12     20.594658   17.194483   21.927516 H          1 MOL1         0.0833
      20    H13     20.191046   16.435437   23.444506 H          1 MOL1         0.0833
      21    C8      21.359983   18.223304   23.713767 C.3        1 MOL1        -0.1684
      22    H14     21.983377   17.514423   24.275832 H          1 MOL1         0.0833
      23    H15     20.901430   18.852924   24.484552 H          1 MOL1         0.0833
      24    O1      17.279875   19.637843   22.118817 O.3        1 MOL1        -0.5508
      25    H16     17.001558   19.775937   23.047479 H          1 MOL1         0.3780
@<TRIPOS>BOND
    1     1     2    1
    2     1     3    1
    3     1     4    1
    4     4     5    1
    5     4     6    1
    6     4     7    1
    7     7     8    1
    8     7     9    1
    9     7    10    1
   10    10    11    1
   11    10    12    1
   12    10    13    1
   13    13    14    1
   14    13    15    1
   15    15    16    1
   16    15    17    1
   17    15    18    1
   18    18    19    1
   19    18    20    1
   20     1    21    1
   21    18    21    1
   22    21    22    1
   23    21    23    1
   24    13    24    1
   25    24    25    1
@<TRIPOS>SUBSTRUCTURE
       1 MOL1            1 RESIDUE      1      MOL     
@<SCITEGIC>MOL_PROPERTY
VConf Rank
SciTegic.value.IntegerValue
182

@<SCITEGIC>MOL_PROPERTY
Conf_Id
SciTegic.value.IntegerValue
140

@<SCITEGIC>MOL_PROPERTY
Delta U+W
SciTegic.value.DoubleValue
-1.702

@<SCITEGIC>MOL_PROPERTY
U+W
SciTegic.value.DoubleValue
9.211

@<SCITEGIC>MOL_PROPERTY
Grad RMS
SciTegic.value.DoubleValue
0.000000

@<SCITEGIC>MOL_PROPERTY
U
SciTegic.value.DoubleValue
11.181

@<SCITEGIC>MOL_PROPERTY
W
SciTegic.value.DoubleValue
-1.969

@<SCITEGIC>MOL_PROPERTY
W(PB)
SciTegic.value.DoubleValue
-4.093

@<SCITEGIC>MOL_PROPERTY
W(SA)
SciTegic.value.DoubleValue
2.124

@<SCITEGIC>MOL_PROPERTY
Valence
SciTegic.value.DoubleValue
16.954

@<SCITEGIC>MOL_PROPERTY
Coulomb
SciTegic.value.DoubleValue
-8.661

@<SCITEGIC>MOL_PROPERTY
VdW
SciTegic.value.DoubleValue
2.887

@<SCITEGIC>MOL_PROPERTY
VdW6
SciTegic.value.DoubleValue
-12.561

@<SCITEGIC>MOL_PROPERTY
VdW12
SciTegic.value.DoubleValue
15.448

@<SCITEGIC>MOL_PROPERTY
Bond
SciTegic.value.DoubleValue
0.433

@<SCITEGIC>MOL_PROPERTY
Angle
SciTegic.value.DoubleValue
5.120

@<SCITEGIC>MOL_PROPERTY
Pdih
SciTegic.value.DoubleValue
11.401

@<SCITEGIC>MOL_PROPERTY
Idih
SciTegic.value.DoubleValue
0.000

@<SCITEGIC>MOL_PROPERTY
Tether
SciTegic.value.DoubleValue
0.000

@<TRIPOS>MOLECULE
guest-s17_confgen4.mol2 : confsearch ligand conformer 183
          25          25           1
SMALL
USER_CHARGES
 
@<TRIPOS>ATOM
       1    C1      20.878526   21.073526   22.094965 C.3        1 MOL1        -0.1684
       2    H1      21.319720   21.761980   22.828373 H          1 MOL1         0.0833
       3    H2      20.854463   21.627141   21.146360 H          1 MOL1         0.0833
       4    C2      19.413058   20.774900   22.504444 C.3        1 MOL1        -0.1684
       5    H3      19.335267   20.638177   23.588906 H          1 MOL1         0.0833
       6    H4      18.830231   21.683856   22.301554 H          1 MOL1         0.0833
       7    C3      18.740743   19.594424   21.756769 C.3        1 MOL1        -0.1684
       8    H5      19.207263   19.430271   20.776867 H          1 MOL1         0.0833
       9    H6      17.706120   19.890230   21.535369 H          1 MOL1         0.0833
      10    C4      18.670517   18.269069   22.562694 C.3        1 MOL1        -0.1760
      11    H7      18.161651   18.454549   23.517612 H          1 MOL1         0.0833
      12    H8      18.019473   17.581064   22.006792 H          1 MOL1         0.0833
      13    C5      20.011337   17.538467   22.825964 C.3        1 MOL1         0.1219
      14    H9      20.531617   17.381819   21.871687 H          1 MOL1         0.0790
      15    C6      20.950949   18.269421   23.819647 C.3        1 MOL1        -0.1760
      16    H10     20.374964   18.947382   24.457730 H          1 MOL1         0.0833
      17    H11     21.384200   17.536684   24.513912 H          1 MOL1         0.0833
      18    C7      22.135860   19.027219   23.166194 C.3        1 MOL1        -0.1684
      19    H12     22.899490   18.285832   22.893676 H          1 MOL1         0.0833
      20    H13     22.604688   19.674188   23.919938 H          1 MOL1         0.0833
      21    C8      21.823095   19.861317   21.898627 C.3        1 MOL1        -0.1684
      22    H14     21.452273   19.215136   21.094796 H          1 MOL1         0.0833
      23    H15     22.778456   20.250672   21.521146 H          1 MOL1         0.0833
      24    O1      19.697092   16.262193   23.368675 O.3        1 MOL1        -0.5508
      25    H16     19.231690   16.428097   24.214146 H          1 MOL1         0.3780
@<TRIPOS>BOND
    1     1     2    1
    2     1     3    1
    3     1     4    1
    4     4     5    1
    5     4     6    1
    6     4     7    1
    7     7     8    1
    8     7     9    1
    9     7    10    1
   10    10    11    1
   11    10    12    1
   12    10    13    1
   13    13    14    1
   14    13    15    1
   15    15    16    1
   16    15    17    1
   17    15    18    1
   18    18    19    1
   19    18    20    1
   20     1    21    1
   21    18    21    1
   22    21    22    1
   23    21    23    1
   24    13    24    1
   25    24    25    1
@<TRIPOS>SUBSTRUCTURE
       1 MOL1            1 RESIDUE      1      MOL     
@<SCITEGIC>MOL_PROPERTY
VConf Rank
SciTegic.value.IntegerValue
183

@<SCITEGIC>MOL_PROPERTY
Conf_Id
SciTegic.value.IntegerValue
68

@<SCITEGIC>MOL_PROPERTY
Delta U+W
SciTegic.value.DoubleValue
-1.765

@<SCITEGIC>MOL_PROPERTY
U+W
SciTegic.value.DoubleValue
9.148

@<SCITEGIC>MOL_PROPERTY
Grad RMS
SciTegic.value.DoubleValue
0.000000

@<SCITEGIC>MOL_PROPERTY
U
SciTegic.value.DoubleValue
11.181

@<SCITEGIC>MOL_PROPERTY
W
SciTegic.value.DoubleValue
-2.032

@<SCITEGIC>MOL_PROPERTY
W(PB)
SciTegic.value.DoubleValue
-4.147

@<SCITEGIC>MOL_PROPERTY
W(SA)
SciTegic.value.DoubleValue
2.114

@<SCITEGIC>MOL_PROPERTY
Valence
SciTegic.value.DoubleValue
16.955

@<SCITEGIC>MOL_PROPERTY
Coulomb
SciTegic.value.DoubleValue
-8.661

@<SCITEGIC>MOL_PROPERTY
VdW
SciTegic.value.DoubleValue
2.887

@<SCITEGIC>MOL_PROPERTY
VdW6
SciTegic.value.DoubleValue
-12.561

@<SCITEGIC>MOL_PROPERTY
VdW12
SciTegic.value.DoubleValue
15.448

@<SCITEGIC>MOL_PROPERTY
Bond
SciTegic.value.DoubleValue
0.433

@<SCITEGIC>MOL_PROPERTY
Angle
SciTegic.value.DoubleValue
5.121

@<SCITEGIC>MOL_PROPERTY
Pdih
SciTegic.value.DoubleValue
11.402

@<SCITEGIC>MOL_PROPERTY
Idih
SciTegic.value.DoubleValue
0.000

@<SCITEGIC>MOL_PROPERTY
Tether
SciTegic.value.DoubleValue
0.000

@<TRIPOS>MOLECULE
guest-s17_confgen4.mol2 : confsearch ligand conformer 184
          25          25           1
SMALL
USER_CHARGES
 
@<TRIPOS>ATOM
       1    C1      19.618920   17.915584   23.872090 C.3        1 MOL1        -0.1684
       2    H1      19.361523   17.168535   24.635464 H          1 MOL1         0.0833
       3    H2      18.826375   17.820331   23.121296 H          1 MOL1         0.0833
       4    C2      20.993509   17.530088   23.266118 C.3        1 MOL1        -0.1684
       5    H3      21.810742   18.064704   23.767046 H          1 MOL1         0.0833
       6    H4      21.166993   16.468645   23.490310 H          1 MOL1         0.0833
       7    C3      21.093935   17.689304   21.726259 C.3        1 MOL1        -0.1684
       8    H5      20.295033   17.107038   21.246889 H          1 MOL1         0.0833
       9    H6      22.033705   17.221090   21.403085 H          1 MOL1         0.0833
      10    C4      21.074221   19.139156   21.173001 C.3        1 MOL1        -0.1760
      11    H7      21.884704   19.728529   21.618326 H          1 MOL1         0.0833
      12    H8      21.319523   19.072927   20.104333 H          1 MOL1         0.0833
      13    C5      19.712799   19.866285   21.323666 C.3        1 MOL1         0.1219
      14    H9      18.923741   19.120134   21.472635 H          1 MOL1         0.0790
      15    C6      19.654701   20.903116   22.472427 C.3        1 MOL1        -0.1760
      16    H10     20.177398   21.812498   22.147794 H          1 MOL1         0.0833
      17    H11     18.607338   21.195844   22.622176 H          1 MOL1         0.0833
      18    C7      20.260588   20.483348   23.836523 C.3        1 MOL1        -0.1684
      19    H12     20.202871   21.355358   24.502099 H          1 MOL1         0.0833
      20    H13     21.333536   20.284150   23.734486 H          1 MOL1         0.0833
      21    C8      19.560641   19.304915   24.558677 C.3        1 MOL1        -0.1684
      22    H14     18.510313   19.565981   24.746407 H          1 MOL1         0.0833
      23    H15     20.023160   19.207386   25.550425 H          1 MOL1         0.0833
      24    O1      19.430595   20.554937   20.111724 O.3        1 MOL1        -0.5508
      25    H16     20.153733   21.203250   19.986621 H          1 MOL1         0.3780
@<TRIPOS>BOND
    1     1     2    1
    2     1     3    1
    3     1     4    1
    4     4     5    1
    5     4     6    1
    6     4     7    1
    7     7     8    1
    8     7     9    1
    9     7    10    1
   10    10    11    1
   11    10    12    1
   12    10    13    1
   13    13    14    1
   14    13    15    1
   15    15    16    1
   16    15    17    1
   17    15    18    1
   18    18    19    1
   19    18    20    1
   20     1    21    1
   21    18    21    1
   22    21    22    1
   23    21    23    1
   24    13    24    1
   25    24    25    1
@<TRIPOS>SUBSTRUCTURE
       1 MOL1            1 RESIDUE      1      MOL     
@<SCITEGIC>MOL_PROPERTY
VConf Rank
SciTegic.value.IntegerValue
184

@<SCITEGIC>MOL_PROPERTY
Conf_Id
SciTegic.value.IntegerValue
165

@<SCITEGIC>MOL_PROPERTY
Delta U+W
SciTegic.value.DoubleValue
-1.999

@<SCITEGIC>MOL_PROPERTY
U+W
SciTegic.value.DoubleValue
8.915

@<SCITEGIC>MOL_PROPERTY
Grad RMS
SciTegic.value.DoubleValue
0.000000

@<SCITEGIC>MOL_PROPERTY
U
SciTegic.value.DoubleValue
10.935

@<SCITEGIC>MOL_PROPERTY
W
SciTegic.value.DoubleValue
-2.020

@<SCITEGIC>MOL_PROPERTY
W(PB)
SciTegic.value.DoubleValue
-4.135

@<SCITEGIC>MOL_PROPERTY
W(SA)
SciTegic.value.DoubleValue
2.115

@<SCITEGIC>MOL_PROPERTY
Valence
SciTegic.value.DoubleValue
16.757

@<SCITEGIC>MOL_PROPERTY
Coulomb
SciTegic.value.DoubleValue
-8.731

@<SCITEGIC>MOL_PROPERTY
VdW
SciTegic.value.DoubleValue
2.908

@<SCITEGIC>MOL_PROPERTY
VdW6
SciTegic.value.DoubleValue
-12.597

@<SCITEGIC>MOL_PROPERTY
VdW12
SciTegic.value.DoubleValue
15.506

@<SCITEGIC>MOL_PROPERTY
Bond
SciTegic.value.DoubleValue
0.434

@<SCITEGIC>MOL_PROPERTY
Angle
SciTegic.value.DoubleValue
5.069

@<SCITEGIC>MOL_PROPERTY
Pdih
SciTegic.value.DoubleValue
11.254

@<SCITEGIC>MOL_PROPERTY
Idih
SciTegic.value.DoubleValue
0.000

@<SCITEGIC>MOL_PROPERTY
Tether
SciTegic.value.DoubleValue
0.000

@<TRIPOS>MOLECULE
guest-s17_confgen4.mol2 : confsearch ligand conformer 185
          25          25           1
SMALL
USER_CHARGES
 
@<TRIPOS>ATOM
       1    C1      18.782655   18.192478   22.919554 C.3        1 MOL1        -0.1684
       2    H1      17.921882   17.530602   23.087107 H          1 MOL1         0.0833
       3    H2      18.350024   19.198995   22.895998 H          1 MOL1         0.0833
       4    C2      19.380260   17.818715   21.538025 C.3        1 MOL1        -0.1684
       5    H3      19.379758   16.722901   21.459298 H          1 MOL1         0.0833
       6    H4      18.702824   18.172204   20.748915 H          1 MOL1         0.0833
       7    C3      20.820081   18.302556   21.232820 C.3        1 MOL1        -0.1684
       8    H5      21.112869   17.870006   20.266447 H          1 MOL1         0.0833
       9    H6      21.526605   17.873760   21.952716 H          1 MOL1         0.0833
      10    C4      21.015799   19.837192   21.129768 C.3        1 MOL1        -0.1760
      11    H7      22.049851   20.015595   20.805078 H          1 MOL1         0.0833
      12    H8      20.375353   20.223073   20.326249 H          1 MOL1         0.0833
      13    C5      20.760573   20.669862   22.410111 C.3        1 MOL1         0.1219
      14    H9      19.680418   20.789121   22.554690 H          1 MOL1         0.0790
      15    C6      21.378717   20.075099   23.701753 C.3        1 MOL1        -0.1760
      16    H10     22.210549   19.402132   23.462403 H          1 MOL1         0.0833
      17    H11     21.830366   20.893411   24.278736 H          1 MOL1         0.0833
      18    C7      20.361375   19.370228   24.638323 C.3        1 MOL1        -0.1684
      19    H12     19.554132   20.071515   24.890397 H          1 MOL1         0.0833
      20    H13     20.872823   19.156988   25.586861 H          1 MOL1         0.0833
      21    C8      19.746981   18.041414   24.124864 C.3        1 MOL1        -0.1684
      22    H14     19.171253   17.612439   24.956447 H          1 MOL1         0.0833
      23    H15     20.533112   17.305498   23.912650 H          1 MOL1         0.0833
      24    O1      21.317612   21.961906   22.196001 O.3        1 MOL1        -0.5508
      25    H16     20.877668   22.330897   21.401812 H          1 MOL1         0.3780
@<TRIPOS>BOND
    1     1     2    1
    2     1     3    1
    3     1     4    1
    4     4     5    1
    5     4     6    1
    6     4     7    1
    7     7     8    1
    8     7     9    1
    9     7    10    1
   10    10    11    1
   11    10    12    1
   12    10    13    1
   13    13    14    1
   14    13    15    1
   15    15    16    1
   16    15    17    1
   17    15    18    1
   18    18    19    1
   19    18    20    1
   20     1    21    1
   21    18    21    1
   22    21    22    1
   23    21    23    1
   24    13    24    1
   25    24    25    1
@<TRIPOS>SUBSTRUCTURE
       1 MOL1            1 RESIDUE      1      MOL     
@<SCITEGIC>MOL_PROPERTY
VConf Rank
SciTegic.value.IntegerValue
185

@<SCITEGIC>MOL_PROPERTY
Conf_Id
SciTegic.value.IntegerValue
133

@<SCITEGIC>MOL_PROPERTY
Delta U+W
SciTegic.value.DoubleValue
-2.139

@<SCITEGIC>MOL_PROPERTY
U+W
SciTegic.value.DoubleValue
8.774

@<SCITEGIC>MOL_PROPERTY
Grad RMS
SciTegic.value.DoubleValue
0.000000

@<SCITEGIC>MOL_PROPERTY
U
SciTegic.value.DoubleValue
10.905

@<SCITEGIC>MOL_PROPERTY
W
SciTegic.value.DoubleValue
-2.131

@<SCITEGIC>MOL_PROPERTY
W(PB)
SciTegic.value.DoubleValue
-4.281

@<SCITEGIC>MOL_PROPERTY
W(SA)
SciTegic.value.DoubleValue
2.150

@<SCITEGIC>MOL_PROPERTY
Valence
SciTegic.value.DoubleValue
16.378

@<SCITEGIC>MOL_PROPERTY
Coulomb
SciTegic.value.DoubleValue
-8.448

@<SCITEGIC>MOL_PROPERTY
VdW
SciTegic.value.DoubleValue
2.976

@<SCITEGIC>MOL_PROPERTY
VdW6
SciTegic.value.DoubleValue
-12.570

@<SCITEGIC>MOL_PROPERTY
VdW12
SciTegic.value.DoubleValue
15.545

@<SCITEGIC>MOL_PROPERTY
Bond
SciTegic.value.DoubleValue
0.439

@<SCITEGIC>MOL_PROPERTY
Angle
SciTegic.value.DoubleValue
5.049

@<SCITEGIC>MOL_PROPERTY
Pdih
SciTegic.value.DoubleValue
10.889

@<SCITEGIC>MOL_PROPERTY
Idih
SciTegic.value.DoubleValue
0.000

@<SCITEGIC>MOL_PROPERTY
Tether
SciTegic.value.DoubleValue
0.000

@<TRIPOS>MOLECULE
guest-s17_confgen4.mol2 : confsearch ligand conformer 186
          25          25           1
SMALL
USER_CHARGES
 
@<TRIPOS>ATOM
       1    C1      20.990530   20.911817   22.405017 C.3        1 MOL1        -0.1684
       2    H1      21.330661   21.948729   22.277699 H          1 MOL1         0.0833
       3    H2      21.808260   20.306467   21.997987 H          1 MOL1         0.0833
       4    C2      19.700965   20.722287   21.564409 C.3        1 MOL1        -0.1684
       5    H3      18.803330   20.874886   22.177250 H          1 MOL1         0.0833
       6    H4      19.674704   21.524964   20.814722 H          1 MOL1         0.0833
       7    C3      19.618101   19.379342   20.792070 C.3        1 MOL1        -0.1684
       8    H5      20.502812   19.273398   20.149380 H          1 MOL1         0.0833
       9    H6      18.761977   19.440809   20.106471 H          1 MOL1         0.0833
      10    C4      19.447829   18.094201   21.645540 C.3        1 MOL1        -0.1760
      11    H7      18.551337   18.165658   22.272689 H          1 MOL1         0.0833
      12    H8      19.242888   17.271611   20.947058 H          1 MOL1         0.0833
      13    C5      20.687993   17.716629   22.496195 C.3        1 MOL1         0.1219
      14    H9      21.569666   18.220639   22.083297 H          1 MOL1         0.0790
      15    C6      20.564782   18.054702   24.002274 C.3        1 MOL1        -0.1760
      16    H10     19.920782   17.298888   24.471875 H          1 MOL1         0.0833
      17    H11     21.551898   17.943657   24.469166 H          1 MOL1         0.0833
      18    C7      19.990474   19.447067   24.370400 C.3        1 MOL1        -0.1684
      19    H12     19.904855   19.486462   25.464848 H          1 MOL1         0.0833
      20    H13     18.960260   19.544228   24.009136 H          1 MOL1         0.0833
      21    C8      20.833395   20.669723   23.928879 C.3        1 MOL1        -0.1684
      22    H14     21.830772   20.607683   24.384904 H          1 MOL1         0.0833
      23    H15     20.364965   21.563862   24.362578 H          1 MOL1         0.0833
      24    O1      20.898132   16.312995   22.390538 O.3        1 MOL1        -0.5508
      25    H16     21.711003   16.110209   22.899023 H          1 MOL1         0.3780
@<TRIPOS>BOND
    1     1     2    1
    2     1     3    1
    3     1     4    1
    4     4     5    1
    5     4     6    1
    6     4     7    1
    7     7     8    1
    8     7     9    1
    9     7    10    1
   10    10    11    1
   11    10    12    1
   12    10    13    1
   13    13    14    1
   14    13    15    1
   15    15    16    1
   16    15    17    1
   17    15    18    1
   18    18    19    1
   19    18    20    1
   20     1    21    1
   21    18    21    1
   22    21    22    1
   23    21    23    1
   24    13    24    1
   25    24    25    1
@<TRIPOS>SUBSTRUCTURE
       1 MOL1            1 RESIDUE      1      MOL     
@<SCITEGIC>MOL_PROPERTY
VConf Rank
SciTegic.value.IntegerValue
186

@<SCITEGIC>MOL_PROPERTY
Conf_Id
SciTegic.value.IntegerValue
95

@<SCITEGIC>MOL_PROPERTY
Delta U+W
SciTegic.value.DoubleValue
-2.190

@<SCITEGIC>MOL_PROPERTY
U+W
SciTegic.value.DoubleValue
8.723

@<SCITEGIC>MOL_PROPERTY
Grad RMS
SciTegic.value.DoubleValue
0.000000

@<SCITEGIC>MOL_PROPERTY
U
SciTegic.value.DoubleValue
10.905

@<SCITEGIC>MOL_PROPERTY
W
SciTegic.value.DoubleValue
-2.182

@<SCITEGIC>MOL_PROPERTY
W(PB)
SciTegic.value.DoubleValue
-4.296

@<SCITEGIC>MOL_PROPERTY
W(SA)
SciTegic.value.DoubleValue
2.114

@<SCITEGIC>MOL_PROPERTY
Valence
SciTegic.value.DoubleValue
16.377

@<SCITEGIC>MOL_PROPERTY
Coulomb
SciTegic.value.DoubleValue
-8.448

@<SCITEGIC>MOL_PROPERTY
VdW
SciTegic.value.DoubleValue
2.976

@<SCITEGIC>MOL_PROPERTY
VdW6
SciTegic.value.DoubleValue
-12.570

@<SCITEGIC>MOL_PROPERTY
VdW12
SciTegic.value.DoubleValue
15.546

@<SCITEGIC>MOL_PROPERTY
Bond
SciTegic.value.DoubleValue
0.439

@<SCITEGIC>MOL_PROPERTY
Angle
SciTegic.value.DoubleValue
5.049

@<SCITEGIC>MOL_PROPERTY
Pdih
SciTegic.value.DoubleValue
10.889

@<SCITEGIC>MOL_PROPERTY
Idih
SciTegic.value.DoubleValue
0.000

@<SCITEGIC>MOL_PROPERTY
Tether
SciTegic.value.DoubleValue
0.000

@<TRIPOS>MOLECULE
guest-s17_confgen4.mol2 : confsearch ligand conformer 187
          25          25           1
SMALL
USER_CHARGES
 
@<TRIPOS>ATOM
       1    C1      21.020398   20.741515   23.248710 C.3        1 MOL1        -0.1684
       2    H1      21.560602   21.649236   23.550576 H          1 MOL1         0.0833
       3    H2      20.160323   20.721025   23.925531 H          1 MOL1         0.0833
       4    C2      21.969410   19.536652   23.516855 C.3        1 MOL1        -0.1684
       5    H3      22.994408   19.874961   23.312239 H          1 MOL1         0.0833
       6    H4      21.949246   19.298828   24.589004 H          1 MOL1         0.0833
       7    C3      21.752378   18.236216   22.699385 C.3        1 MOL1        -0.1684
       8    H5      22.578878   17.552553   22.936707 H          1 MOL1         0.0833
       9    H6      21.894875   18.450089   21.635439 H          1 MOL1         0.0833
      10    C4      20.426682   17.453008   22.935257 C.3        1 MOL1        -0.1760
      11    H7      20.241125   16.801351   22.071380 H          1 MOL1         0.0833
      12    H8      20.598869   16.778629   23.784273 H          1 MOL1         0.0833
      13    C5      19.141612   18.262066   23.244631 C.3        1 MOL1         0.1219
      14    H9      19.330141   18.870828   24.134958 H          1 MOL1         0.0790
      15    C6      18.585500   19.164382   22.105703 C.3        1 MOL1        -0.1760
      16    H10     17.939572   18.545073   21.468876 H          1 MOL1         0.0833
      17    H11     17.923894   19.916429   22.554024 H          1 MOL1         0.0833
      18    C7      19.594902   19.877348   21.165595 C.3        1 MOL1        -0.1684
      19    H12     19.017388   20.371544   20.372524 H          1 MOL1         0.0833
      20    H13     20.179240   19.125607   20.625682 H          1 MOL1         0.0833
      21    C8      20.525343   20.955758   21.793939 C.3        1 MOL1        -0.1684
      22    H14     19.980158   21.909386   21.778591 H          1 MOL1         0.0833
      23    H15     21.392038   21.104103   21.135701 H          1 MOL1         0.0833
      24    O1      18.121851   17.328154   23.580056 O.3        1 MOL1        -0.5508
      25    H16     18.454249   16.807207   24.340439 H          1 MOL1         0.3780
@<TRIPOS>BOND
    1     1     2    1
    2     1     3    1
    3     1     4    1
    4     4     5    1
    5     4     6    1
    6     4     7    1
    7     7     8    1
    8     7     9    1
    9     7    10    1
   10    10    11    1
   11    10    12    1
   12    10    13    1
   13    13    14    1
   14    13    15    1
   15    15    16    1
   16    15    17    1
   17    15    18    1
   18    18    19    1
   19    18    20    1
   20     1    21    1
   21    18    21    1
   22    21    22    1
   23    21    23    1
   24    13    24    1
   25    24    25    1
@<TRIPOS>SUBSTRUCTURE
       1 MOL1            1 RESIDUE      1      MOL     
@<SCITEGIC>MOL_PROPERTY
VConf Rank
SciTegic.value.IntegerValue
187

@<SCITEGIC>MOL_PROPERTY
Conf_Id
SciTegic.value.IntegerValue
161

@<SCITEGIC>MOL_PROPERTY
Delta U+W
SciTegic.value.DoubleValue
2.120

@<SCITEGIC>MOL_PROPERTY
U+W
SciTegic.value.DoubleValue
13.033

@<SCITEGIC>MOL_PROPERTY
Grad RMS
SciTegic.value.DoubleValue
0.000000

@<SCITEGIC>MOL_PROPERTY
U
SciTegic.value.DoubleValue
15.076

@<SCITEGIC>MOL_PROPERTY
W
SciTegic.value.DoubleValue
-2.043

@<SCITEGIC>MOL_PROPERTY
W(PB)
SciTegic.value.DoubleValue
-4.186

@<SCITEGIC>MOL_PROPERTY
W(SA)
SciTegic.value.DoubleValue
2.143

@<SCITEGIC>MOL_PROPERTY
Valence
SciTegic.value.DoubleValue
18.884

@<SCITEGIC>MOL_PROPERTY
Coulomb
SciTegic.value.DoubleValue
-8.074

@<SCITEGIC>MOL_PROPERTY
VdW
SciTegic.value.DoubleValue
4.266

@<SCITEGIC>MOL_PROPERTY
VdW6
SciTegic.value.DoubleValue
-13.486

@<SCITEGIC>MOL_PROPERTY
VdW12
SciTegic.value.DoubleValue
17.752

@<SCITEGIC>MOL_PROPERTY
Bond
SciTegic.value.DoubleValue
0.713

@<SCITEGIC>MOL_PROPERTY
Angle
SciTegic.value.DoubleValue
8.955

@<SCITEGIC>MOL_PROPERTY
Pdih
SciTegic.value.DoubleValue
9.215

@<SCITEGIC>MOL_PROPERTY
Idih
SciTegic.value.DoubleValue
0.000

@<SCITEGIC>MOL_PROPERTY
Tether
SciTegic.value.DoubleValue
0.000

@<TRIPOS>MOLECULE
guest-s17_confgen4.mol2 : confsearch ligand conformer 188
          25          25           1
SMALL
USER_CHARGES
 
@<TRIPOS>ATOM
       1    C1      21.218629   19.873119   21.007923 C.3        1 MOL1        -0.1684
       2    H1      21.561021   20.456014   20.141904 H          1 MOL1         0.0833
       3    H2      21.639408   18.871305   20.854470 H          1 MOL1         0.0833
       4    C2      19.671576   19.809528   20.960363 C.3        1 MOL1        -0.1684
       5    H3      19.229542   20.686267   21.452422 H          1 MOL1         0.0833
       6    H4      19.382015   19.893036   19.903787 H          1 MOL1         0.0833
       7    C3      19.047120   18.490490   21.494708 C.3        1 MOL1        -0.1684
       8    H5      19.662924   17.622264   21.224050 H          1 MOL1         0.0833
       9    H6      18.097224   18.350229   20.960644 H          1 MOL1         0.0833
      10    C4      18.715725   18.480374   23.009485 C.3        1 MOL1        -0.1760
      11    H7      18.403943   19.482219   23.328962 H          1 MOL1         0.0833
      12    H8      17.828758   17.849134   23.152530 H          1 MOL1         0.0833
      13    C5      19.813182   17.916118   23.947053 C.3        1 MOL1         0.1219
      14    H9      19.875506   16.831380   23.779027 H          1 MOL1         0.0790
      15    C6      21.235749   18.494976   23.767854 C.3        1 MOL1        -0.1760
      16    H10     21.844017   18.185718   24.628350 H          1 MOL1         0.0833
      17    H11     21.711816   18.009690   22.909006 H          1 MOL1         0.0833
      18    C7      21.301419   20.040301   23.637901 C.3        1 MOL1        -0.1684
      19    H12     21.961337   20.433173   24.423324 H          1 MOL1         0.0833
      20    H13     20.325225   20.497515   23.835640 H          1 MOL1         0.0833
      21    C8      21.830518   20.535567   22.270624 C.3        1 MOL1        -0.1684
      22    H14     22.918915   20.389791   22.239765 H          1 MOL1         0.0833
      23    H15     21.672938   21.621248   22.213644 H          1 MOL1         0.0833
      24    O1      19.405931   18.148575   25.288126 O.3        1 MOL1        -0.5508
      25    H16     19.498504   19.112026   25.433044 H          1 MOL1         0.3780
@<TRIPOS>BOND
    1     1     2    1
    2     1     3    1
    3     1     4    1
    4     4     5    1
    5     4     6    1
    6     4     7    1
    7     7     8    1
    8     7     9    1
    9     7    10    1
   10    10    11    1
   11    10    12    1
   12    10    13    1
   13    13    14    1
   14    13    15    1
   15    15    16    1
   16    15    17    1
   17    15    18    1
   18    18    19    1
   19    18    20    1
   20     1    21    1
   21    18    21    1
   22    21    22    1
   23    21    23    1
   24    13    24    1
   25    24    25    1
@<TRIPOS>SUBSTRUCTURE
       1 MOL1            1 RESIDUE      1      MOL     
@<SCITEGIC>MOL_PROPERTY
VConf Rank
SciTegic.value.IntegerValue
188

@<SCITEGIC>MOL_PROPERTY
Conf_Id
SciTegic.value.IntegerValue
164

@<SCITEGIC>MOL_PROPERTY
Delta U+W
SciTegic.value.DoubleValue
0.008

@<SCITEGIC>MOL_PROPERTY
U+W
SciTegic.value.DoubleValue
10.922

@<SCITEGIC>MOL_PROPERTY
Grad RMS
SciTegic.value.DoubleValue
0.000000

@<SCITEGIC>MOL_PROPERTY
U
SciTegic.value.DoubleValue
12.433

@<SCITEGIC>MOL_PROPERTY
W
SciTegic.value.DoubleValue
-1.511

@<SCITEGIC>MOL_PROPERTY
W(PB)
SciTegic.value.DoubleValue
-3.669

@<SCITEGIC>MOL_PROPERTY
W(SA)
SciTegic.value.DoubleValue
2.157

@<SCITEGIC>MOL_PROPERTY
Valence
SciTegic.value.DoubleValue
19.007

@<SCITEGIC>MOL_PROPERTY
Coulomb
SciTegic.value.DoubleValue
-9.373

@<SCITEGIC>MOL_PROPERTY
VdW
SciTegic.value.DoubleValue
2.799

@<SCITEGIC>MOL_PROPERTY
VdW6
SciTegic.value.DoubleValue
-12.597

@<SCITEGIC>MOL_PROPERTY
VdW12
SciTegic.value.DoubleValue
15.396

@<SCITEGIC>MOL_PROPERTY
Bond
SciTegic.value.DoubleValue
0.425

@<SCITEGIC>MOL_PROPERTY
Angle
SciTegic.value.DoubleValue
4.784

@<SCITEGIC>MOL_PROPERTY
Pdih
SciTegic.value.DoubleValue
13.799

@<SCITEGIC>MOL_PROPERTY
Idih
SciTegic.value.DoubleValue
0.000

@<SCITEGIC>MOL_PROPERTY
Tether
SciTegic.value.DoubleValue
0.000

@<TRIPOS>MOLECULE
guest-s17_confgen4.mol2 : confsearch ligand conformer 189
          25          25           1
SMALL
USER_CHARGES
 
@<TRIPOS>ATOM
       1    C1      22.016829   19.198327   22.003600 C.3        1 MOL1        -0.1684
       2    H1      21.489818   18.433799   21.421639 H          1 MOL1         0.0833
       3    H2      23.043905   19.182660   21.614315 H          1 MOL1         0.0833
       4    C2      22.084730   18.790117   23.496407 C.3        1 MOL1        -0.1684
       5    H3      22.623760   17.834458   23.551776 H          1 MOL1         0.0833
       6    H4      22.705712   19.513140   24.042417 H          1 MOL1         0.0833
       7    C3      20.737839   18.618198   24.244131 C.3        1 MOL1        -0.1684
       8    H5      20.365946   19.587478   24.595207 H          1 MOL1         0.0833
       9    H6      20.947563   18.055074   25.163865 H          1 MOL1         0.0833
      10    C4      19.633645   17.864630   23.455671 C.3        1 MOL1        -0.1760
      11    H7      20.073062   17.207956   22.695098 H          1 MOL1         0.0833
      12    H8      19.128927   17.192664   24.162750 H          1 MOL1         0.0833
      13    C5      18.541274   18.771570   22.835460 C.3        1 MOL1         0.1219
      14    H9      18.135745   19.412429   23.631352 H          1 MOL1         0.0790
      15    C6      18.980978   19.680918   21.660631 C.3        1 MOL1        -0.1760
      16    H10     19.398917   19.083981   20.841013 H          1 MOL1         0.0833
      17    H11     18.070342   20.138572   21.251322 H          1 MOL1         0.0833
      18    C7      19.941012   20.835694   22.052559 C.3        1 MOL1        -0.1684
      19    H12     19.827091   21.087059   23.113173 H          1 MOL1         0.0833
      20    H13     19.622644   21.742229   21.519793 H          1 MOL1         0.0833
      21    C8      21.433598   20.602154   21.705555 C.3        1 MOL1        -0.1684
      22    H14     22.041018   21.362923   22.214258 H          1 MOL1         0.0833
      23    H15     21.561718   20.790027   20.630757 H          1 MOL1         0.0833
      24    O1      17.499831   17.928956   22.361544 O.3        1 MOL1        -0.5508
      25    H16     17.892738   17.373792   21.657126 H          1 MOL1         0.3780
@<TRIPOS>BOND
    1     1     2    1
    2     1     3    1
    3     1     4    1
    4     4     5    1
    5     4     6    1
    6     4     7    1
    7     7     8    1
    8     7     9    1
    9     7    10    1
   10    10    11    1
   11    10    12    1
   12    10    13    1
   13    13    14    1
   14    13    15    1
   15    15    16    1
   16    15    17    1
   17    15    18    1
   18    18    19    1
   19    18    20    1
   20     1    21    1
   21    18    21    1
   22    21    22    1
   23    21    23    1
   24    13    24    1
   25    24    25    1
@<TRIPOS>SUBSTRUCTURE
       1 MOL1            1 RESIDUE      1      MOL     
@<SCITEGIC>MOL_PROPERTY
VConf Rank
SciTegic.value.IntegerValue
189

@<SCITEGIC>MOL_PROPERTY
Conf_Id
SciTegic.value.IntegerValue
15

@<SCITEGIC>MOL_PROPERTY
Delta U+W
SciTegic.value.DoubleValue
-1.271

@<SCITEGIC>MOL_PROPERTY
U+W
SciTegic.value.DoubleValue
9.643

@<SCITEGIC>MOL_PROPERTY
Grad RMS
SciTegic.value.DoubleValue
0.000000

@<SCITEGIC>MOL_PROPERTY
U
SciTegic.value.DoubleValue
11.413

@<SCITEGIC>MOL_PROPERTY
W
SciTegic.value.DoubleValue
-1.770

@<SCITEGIC>MOL_PROPERTY
W(PB)
SciTegic.value.DoubleValue
-3.908

@<SCITEGIC>MOL_PROPERTY
W(SA)
SciTegic.value.DoubleValue
2.138

@<SCITEGIC>MOL_PROPERTY
Valence
SciTegic.value.DoubleValue
17.496

@<SCITEGIC>MOL_PROPERTY
Coulomb
SciTegic.value.DoubleValue
-8.736

@<SCITEGIC>MOL_PROPERTY
VdW
SciTegic.value.DoubleValue
2.653

@<SCITEGIC>MOL_PROPERTY
VdW6
SciTegic.value.DoubleValue
-12.485

@<SCITEGIC>MOL_PROPERTY
VdW12
SciTegic.value.DoubleValue
15.138

@<SCITEGIC>MOL_PROPERTY
Bond
SciTegic.value.DoubleValue
0.414

@<SCITEGIC>MOL_PROPERTY
Angle
SciTegic.value.DoubleValue
5.295

@<SCITEGIC>MOL_PROPERTY
Pdih
SciTegic.value.DoubleValue
11.787

@<SCITEGIC>MOL_PROPERTY
Idih
SciTegic.value.DoubleValue
0.000

@<SCITEGIC>MOL_PROPERTY
Tether
SciTegic.value.DoubleValue
0.000

@<TRIPOS>MOLECULE
guest-s17_confgen4.mol2 : confsearch ligand conformer 190
          25          25           1
SMALL
USER_CHARGES
 
@<TRIPOS>ATOM
       1    C1      19.135925   18.072814   23.595209 C.3        1 MOL1        -0.1684
       2    H1      18.526437   17.498371   24.306209 H          1 MOL1         0.0833
       3    H2      19.226737   17.422761   22.715806 H          1 MOL1         0.0833
       4    C2      18.336594   19.355961   23.246740 C.3        1 MOL1        -0.1684
       5    H3      17.437590   19.057004   22.690647 H          1 MOL1         0.0833
       6    H4      17.973609   19.812355   24.177718 H          1 MOL1         0.0833
       7    C3      19.084270   20.440404   22.434153 C.3        1 MOL1        -0.1684
       8    H5      19.741933   21.010116   23.100996 H          1 MOL1         0.0833
       9    H6      18.344478   21.170666   22.078891 H          1 MOL1         0.0833
      10    C4      19.867638   19.890650   21.213678 C.3        1 MOL1        -0.1760
      11    H7      19.628456   18.835941   21.038260 H          1 MOL1         0.0833
      12    H8      19.518159   20.412658   20.313362 H          1 MOL1         0.0833
      13    C5      21.399760   20.080217   21.296959 C.3        1 MOL1         0.1219
      14    H9      21.613007   21.144263   21.120432 H          1 MOL1         0.0790
      15    C6      22.073646   19.696728   22.639826 C.3        1 MOL1        -0.1760
      16    H10     23.158951   19.727272   22.473950 H          1 MOL1         0.0833
      17    H11     21.889556   20.476865   23.388164 H          1 MOL1         0.0833
      18    C7      21.718447   18.307318   23.233469 C.3        1 MOL1        -0.1684
      19    H12     22.602068   17.965931   23.790075 H          1 MOL1         0.0833
      20    H13     21.571797   17.562683   22.440484 H          1 MOL1         0.0833
      21    C8      20.529096   18.298246   24.233040 C.3        1 MOL1        -0.1684
      22    H14     20.530134   19.199780   24.860272 H          1 MOL1         0.0833
      23    H15     20.701685   17.462647   24.925256 H          1 MOL1         0.0833
      24    O1      21.998140   19.317200   20.258618 O.3        1 MOL1        -0.5508
      25    H16     21.866524   18.379697   20.505419 H          1 MOL1         0.3780
@<TRIPOS>BOND
    1     1     2    1
    2     1     3    1
    3     1     4    1
    4     4     5    1
    5     4     6    1
    6     4     7    1
    7     7     8    1
    8     7     9    1
    9     7    10    1
   10    10    11    1
   11    10    12    1
   12    10    13    1
   13    13    14    1
   14    13    15    1
   15    15    16    1
   16    15    17    1
   17    15    18    1
   18    18    19    1
   19    18    20    1
   20     1    21    1
   21    18    21    1
   22    21    22    1
   23    21    23    1
   24    13    24    1
   25    24    25    1
@<TRIPOS>SUBSTRUCTURE
       1 MOL1            1 RESIDUE      1      MOL     
@<SCITEGIC>MOL_PROPERTY
VConf Rank
SciTegic.value.IntegerValue
190

@<SCITEGIC>MOL_PROPERTY
Conf_Id
SciTegic.value.IntegerValue
115

@<SCITEGIC>MOL_PROPERTY
Delta U+W
SciTegic.value.DoubleValue
0.038

@<SCITEGIC>MOL_PROPERTY
U+W
SciTegic.value.DoubleValue
10.952

@<SCITEGIC>MOL_PROPERTY
Grad RMS
SciTegic.value.DoubleValue
0.000000

@<SCITEGIC>MOL_PROPERTY
U
SciTegic.value.DoubleValue
12.526

@<SCITEGIC>MOL_PROPERTY
W
SciTegic.value.DoubleValue
-1.575

@<SCITEGIC>MOL_PROPERTY
W(PB)
SciTegic.value.DoubleValue
-3.698

@<SCITEGIC>MOL_PROPERTY
W(SA)
SciTegic.value.DoubleValue
2.123

@<SCITEGIC>MOL_PROPERTY
Valence
SciTegic.value.DoubleValue
19.016

@<SCITEGIC>MOL_PROPERTY
Coulomb
SciTegic.value.DoubleValue
-9.226

@<SCITEGIC>MOL_PROPERTY
VdW
SciTegic.value.DoubleValue
2.737

@<SCITEGIC>MOL_PROPERTY
VdW6
SciTegic.value.DoubleValue
-12.612

@<SCITEGIC>MOL_PROPERTY
VdW12
SciTegic.value.DoubleValue
15.349

@<SCITEGIC>MOL_PROPERTY
Bond
SciTegic.value.DoubleValue
0.421

@<SCITEGIC>MOL_PROPERTY
Angle
SciTegic.value.DoubleValue
4.883

@<SCITEGIC>MOL_PROPERTY
Pdih
SciTegic.value.DoubleValue
13.711

@<SCITEGIC>MOL_PROPERTY
Idih
SciTegic.value.DoubleValue
0.000

@<SCITEGIC>MOL_PROPERTY
Tether
SciTegic.value.DoubleValue
0.000

@<TRIPOS>MOLECULE
guest-s17_confgen4.mol2 : confsearch ligand conformer 191
          25          25           1
SMALL
USER_CHARGES
 
@<TRIPOS>ATOM
       1    C1      19.175034   20.823988   21.777883 C.3        1 MOL1        -0.1684
       2    H1      18.761171   21.841061   21.742313 H          1 MOL1         0.0833
       3    H2      18.999710   20.400051   20.779878 H          1 MOL1         0.0833
       4    C2      18.370772   20.036311   22.838197 C.3        1 MOL1        -0.1684
       5    H3      18.447996   20.532264   23.815265 H          1 MOL1         0.0833
       6    H4      17.310076   20.098630   22.558842 H          1 MOL1         0.0833
       7    C3      18.741776   18.540809   22.967512 C.3        1 MOL1        -0.1684
       8    H5      18.894840   18.098616   21.974026 H          1 MOL1         0.0833
       9    H6      17.869279   18.020861   23.386518 H          1 MOL1         0.0833
      10    C4      19.946354   18.260171   23.905688 C.3        1 MOL1        -0.1760
      11    H7      20.193551   19.140861   24.511566 H          1 MOL1         0.0833
      12    H8      19.629995   17.491189   24.623423 H          1 MOL1         0.0833
      13    C5      21.211401   17.743564   23.184074 C.3        1 MOL1         0.1219
      14    H9      20.905849   17.092346   22.352674 H          1 MOL1         0.0790
      15    C6      22.139784   18.851374   22.638826 C.3        1 MOL1        -0.1760
      16    H10     22.504397   19.475021   23.465694 H          1 MOL1         0.0833
      17    H11     23.028588   18.361772   22.219626 H          1 MOL1         0.0833
      18    C7      21.530461   19.741848   21.528668 C.3        1 MOL1        -0.1684
      19    H12     20.956508   19.130425   20.819604 H          1 MOL1         0.0833
      20    H13     22.365447   20.155224   20.946304 H          1 MOL1         0.0833
      21    C8      20.693141   20.938369   22.051389 C.3        1 MOL1        -0.1684
      22    H14     21.050701   21.839756   21.534807 H          1 MOL1         0.0833
      23    H15     20.877518   21.123068   23.118028 H          1 MOL1         0.0833
      24    O1      21.964798   16.973818   24.113338 O.3        1 MOL1        -0.5508
      25    H16     22.732692   16.611361   23.624155 H          1 MOL1         0.3780
@<TRIPOS>BOND
    1     1     2    1
    2     1     3    1
    3     1     4    1
    4     4     5    1
    5     4     6    1
    6     4     7    1
    7     7     8    1
    8     7     9    1
    9     7    10    1
   10    10    11    1
   11    10    12    1
   12    10    13    1
   13    13    14    1
   14    13    15    1
   15    15    16    1
   16    15    17    1
   17    15    18    1
   18    18    19    1
   19    18    20    1
   20     1    21    1
   21    18    21    1
   22    21    22    1
   23    21    23    1
   24    13    24    1
   25    24    25    1
@<TRIPOS>SUBSTRUCTURE
       1 MOL1            1 RESIDUE      1      MOL     
@<SCITEGIC>MOL_PROPERTY
VConf Rank
SciTegic.value.IntegerValue
191

@<SCITEGIC>MOL_PROPERTY
Conf_Id
SciTegic.value.IntegerValue
30

@<SCITEGIC>MOL_PROPERTY
Delta U+W
SciTegic.value.DoubleValue
0.000

@<SCITEGIC>MOL_PROPERTY
U+W
SciTegic.value.DoubleValue
10.913

@<SCITEGIC>MOL_PROPERTY
Grad RMS
SciTegic.value.DoubleValue
0.000000

@<SCITEGIC>MOL_PROPERTY
U
SciTegic.value.DoubleValue
13.140

@<SCITEGIC>MOL_PROPERTY
W
SciTegic.value.DoubleValue
-2.227

@<SCITEGIC>MOL_PROPERTY
W(PB)
SciTegic.value.DoubleValue
-4.367

@<SCITEGIC>MOL_PROPERTY
W(SA)
SciTegic.value.DoubleValue
2.140

@<SCITEGIC>MOL_PROPERTY
Valence
SciTegic.value.DoubleValue
19.155

@<SCITEGIC>MOL_PROPERTY
Coulomb
SciTegic.value.DoubleValue
-8.157

@<SCITEGIC>MOL_PROPERTY
VdW
SciTegic.value.DoubleValue
2.142

@<SCITEGIC>MOL_PROPERTY
VdW6
SciTegic.value.DoubleValue
-11.576

@<SCITEGIC>MOL_PROPERTY
VdW12
SciTegic.value.DoubleValue
13.718

@<SCITEGIC>MOL_PROPERTY
Bond
SciTegic.value.DoubleValue
0.294

@<SCITEGIC>MOL_PROPERTY
Angle
SciTegic.value.DoubleValue
3.547

@<SCITEGIC>MOL_PROPERTY
Pdih
SciTegic.value.DoubleValue
15.314

@<SCITEGIC>MOL_PROPERTY
Idih
SciTegic.value.DoubleValue
0.000

@<SCITEGIC>MOL_PROPERTY
Tether
SciTegic.value.DoubleValue
0.000

@<TRIPOS>MOLECULE
guest-s17_confgen4.mol2 : confsearch ligand conformer 192
          25          25           1
SMALL
USER_CHARGES
 
@<TRIPOS>ATOM
       1    C1      21.715317   18.201193   21.440156 C.3        1 MOL1        -0.1684
       2    H1      22.527742   17.499040   21.672115 H          1 MOL1         0.0833
       3    H2      21.768109   18.368231   20.355682 H          1 MOL1         0.0833
       4    C2      22.008881   19.544522   22.152456 C.3        1 MOL1        -0.1684
       5    H3      23.073528   19.776247   22.012101 H          1 MOL1         0.0833
       6    H4      21.479234   20.356234   21.640445 H          1 MOL1         0.0833
       7    C3      21.698289   19.545829   23.670787 C.3        1 MOL1        -0.1684
       8    H5      22.604790   19.841841   24.216056 H          1 MOL1         0.0833
       9    H6      21.475325   18.533640   24.027716 H          1 MOL1         0.0833
      10    C4      20.555149   20.508224   24.081375 C.3        1 MOL1        -0.1760
      11    H7      20.285565   20.300824   25.125439 H          1 MOL1         0.0833
      12    H8      20.944086   21.534742   24.068840 H          1 MOL1         0.0833
      13    C5      19.272125   20.481425   23.213442 C.3        1 MOL1         0.1219
      14    H9      19.487029   20.934598   22.236489 H          1 MOL1         0.0790
      15    C6      18.662879   19.076638   22.983901 C.3        1 MOL1        -0.1760
      16    H10     18.856329   18.430828   23.849960 H          1 MOL1         0.0833
      17    H11     17.570661   19.181558   22.938653 H          1 MOL1         0.0833
      18    C7      19.100091   18.380073   21.664282 C.3        1 MOL1        -0.1684
      19    H12     19.197755   19.105221   20.845110 H          1 MOL1         0.0833
      20    H13     18.277828   17.714456   21.367507 H          1 MOL1         0.0833
      21    C8      20.371006   17.501861   21.775261 C.3        1 MOL1        -0.1684
      22    H14     20.263687   16.663272   21.073608 H          1 MOL1         0.0833
      23    H15     20.416577   17.032073   22.765995 H          1 MOL1         0.0833
      24    O1      18.303192   21.289327   23.871227 O.3        1 MOL1        -0.5508
      25    H16     17.523460   21.333404   23.279172 H          1 MOL1         0.3780
@<TRIPOS>BOND
    1     1     2    1
    2     1     3    1
    3     1     4    1
    4     4     5    1
    5     4     6    1
    6     4     7    1
    7     7     8    1
    8     7     9    1
    9     7    10    1
   10    10    11    1
   11    10    12    1
   12    10    13    1
   13    13    14    1
   14    13    15    1
   15    15    16    1
   16    15    17    1
   17    15    18    1
   18    18    19    1
   19    18    20    1
   20     1    21    1
   21    18    21    1
   22    21    22    1
   23    21    23    1
   24    13    24    1
   25    24    25    1
@<TRIPOS>SUBSTRUCTURE
       1 MOL1            1 RESIDUE      1      MOL     
@<SCITEGIC>MOL_PROPERTY
VConf Rank
SciTegic.value.IntegerValue
192

@<SCITEGIC>MOL_PROPERTY
Conf_Id
SciTegic.value.IntegerValue
162

@<SCITEGIC>MOL_PROPERTY
Delta U+W
SciTegic.value.DoubleValue
0.219

@<SCITEGIC>MOL_PROPERTY
U+W
SciTegic.value.DoubleValue
11.132

@<SCITEGIC>MOL_PROPERTY
Grad RMS
SciTegic.value.DoubleValue
0.000000

@<SCITEGIC>MOL_PROPERTY
U
SciTegic.value.DoubleValue
13.296

@<SCITEGIC>MOL_PROPERTY
W
SciTegic.value.DoubleValue
-2.164

@<SCITEGIC>MOL_PROPERTY
W(PB)
SciTegic.value.DoubleValue
-4.311

@<SCITEGIC>MOL_PROPERTY
W(SA)
SciTegic.value.DoubleValue
2.148

@<SCITEGIC>MOL_PROPERTY
Valence
SciTegic.value.DoubleValue
18.607

@<SCITEGIC>MOL_PROPERTY
Coulomb
SciTegic.value.DoubleValue
-8.339

@<SCITEGIC>MOL_PROPERTY
VdW
SciTegic.value.DoubleValue
3.028

@<SCITEGIC>MOL_PROPERTY
VdW6
SciTegic.value.DoubleValue
-12.271

@<SCITEGIC>MOL_PROPERTY
VdW12
SciTegic.value.DoubleValue
15.299

@<SCITEGIC>MOL_PROPERTY
Bond
SciTegic.value.DoubleValue
0.423

@<SCITEGIC>MOL_PROPERTY
Angle
SciTegic.value.DoubleValue
4.488

@<SCITEGIC>MOL_PROPERTY
Pdih
SciTegic.value.DoubleValue
13.696

@<SCITEGIC>MOL_PROPERTY
Idih
SciTegic.value.DoubleValue
0.000

@<SCITEGIC>MOL_PROPERTY
Tether
SciTegic.value.DoubleValue
0.000

@<TRIPOS>MOLECULE
guest-s17_confgen4.mol2 : confsearch ligand conformer 193
          25          25           1
SMALL
USER_CHARGES
 
@<TRIPOS>ATOM
       1    C1      21.787908   17.989198   22.036985 C.3        1 MOL1        -0.1684
       2    H1      22.263462   18.112155   23.018272 H          1 MOL1         0.0833
       3    H2      22.423889   17.267357   21.506477 H          1 MOL1         0.0833
       4    C2      20.384134   17.356166   22.205482 C.3        1 MOL1        -0.1684
       5    H3      19.762134   17.545960   21.320425 H          1 MOL1         0.0833
       6    H4      20.527056   16.267126   22.232016 H          1 MOL1         0.0833
       7    C3      19.635759   17.743713   23.511356 C.3        1 MOL1        -0.1684
       8    H5      20.331146   17.827868   24.357240 H          1 MOL1         0.0833
       9    H6      18.975987   16.901307   23.760725 H          1 MOL1         0.0833
      10    C4      18.736083   19.002830   23.409397 C.3        1 MOL1        -0.1760
      11    H7      18.302633   19.072709   22.404144 H          1 MOL1         0.0833
      12    H8      17.877512   18.856436   24.077707 H          1 MOL1         0.0833
      13    C5      19.387413   20.348706   23.816473 C.3        1 MOL1         0.1219
      14    H9      19.529828   20.337497   24.906741 H          1 MOL1         0.0790
      15    C6      20.759868   20.666810   23.176760 C.3        1 MOL1        -0.1760
      16    H10     21.003126   21.718487   23.376258 H          1 MOL1         0.0833
      17    H11     21.536995   20.102795   23.703577 H          1 MOL1         0.0833
      18    C7      20.836939   20.418904   21.647029 C.3        1 MOL1        -0.1684
      19    H12     21.130616   21.354358   21.152013 H          1 MOL1         0.0833
      20    H13     19.846824   20.185774   21.237842 H          1 MOL1         0.0833
      21    C8      21.840900   19.315775   21.233566 C.3        1 MOL1        -0.1684
      22    H14     22.859433   19.720266   21.309169 H          1 MOL1         0.0833
      23    H15     21.686602   19.092500   20.169116 H          1 MOL1         0.0833
      24    O1      18.478571   21.390477   23.480586 O.3        1 MOL1        -0.5508
      25    H16     18.905889   22.232145   23.741567 H          1 MOL1         0.3780
@<TRIPOS>BOND
    1     1     2    1
    2     1     3    1
    3     1     4    1
    4     4     5    1
    5     4     6    1
    6     4     7    1
    7     7     8    1
    8     7     9    1
    9     7    10    1
   10    10    11    1
   11    10    12    1
   12    10    13    1
   13    13    14    1
   14    13    15    1
   15    15    16    1
   16    15    17    1
   17    15    18    1
   18    18    19    1
   19    18    20    1
   20     1    21    1
   21    18    21    1
   22    21    22    1
   23    21    23    1
   24    13    24    1
   25    24    25    1
@<TRIPOS>SUBSTRUCTURE
       1 MOL1            1 RESIDUE      1      MOL     
@<SCITEGIC>MOL_PROPERTY
VConf Rank
SciTegic.value.IntegerValue
193

@<SCITEGIC>MOL_PROPERTY
Conf_Id
SciTegic.value.IntegerValue
155

@<SCITEGIC>MOL_PROPERTY
Delta U+W
SciTegic.value.DoubleValue
0.339

@<SCITEGIC>MOL_PROPERTY
U+W
SciTegic.value.DoubleValue
11.252

@<SCITEGIC>MOL_PROPERTY
Grad RMS
SciTegic.value.DoubleValue
0.000000

@<SCITEGIC>MOL_PROPERTY
U
SciTegic.value.DoubleValue
13.420

@<SCITEGIC>MOL_PROPERTY
W
SciTegic.value.DoubleValue
-2.167

@<SCITEGIC>MOL_PROPERTY
W(PB)
SciTegic.value.DoubleValue
-4.325

@<SCITEGIC>MOL_PROPERTY
W(SA)
SciTegic.value.DoubleValue
2.157

@<SCITEGIC>MOL_PROPERTY
Valence
SciTegic.value.DoubleValue
18.609

@<SCITEGIC>MOL_PROPERTY
Coulomb
SciTegic.value.DoubleValue
-8.052

@<SCITEGIC>MOL_PROPERTY
VdW
SciTegic.value.DoubleValue
2.863

@<SCITEGIC>MOL_PROPERTY
VdW6
SciTegic.value.DoubleValue
-12.524

@<SCITEGIC>MOL_PROPERTY
VdW12
SciTegic.value.DoubleValue
15.387

@<SCITEGIC>MOL_PROPERTY
Bond
SciTegic.value.DoubleValue
0.430

@<SCITEGIC>MOL_PROPERTY
Angle
SciTegic.value.DoubleValue
4.724

@<SCITEGIC>MOL_PROPERTY
Pdih
SciTegic.value.DoubleValue
13.455

@<SCITEGIC>MOL_PROPERTY
Idih
SciTegic.value.DoubleValue
0.000

@<SCITEGIC>MOL_PROPERTY
Tether
SciTegic.value.DoubleValue
0.000

@<TRIPOS>MOLECULE
guest-s17_confgen4.mol2 : confsearch ligand conformer 194
          25          25           1
SMALL
USER_CHARGES
 
@<TRIPOS>ATOM
       1    C1      19.889912   19.553689   20.750468 C.3        1 MOL1        -0.1684
       2    H1      18.815767   19.508237   20.525781 H          1 MOL1         0.0833
       3    H2      20.378150   19.794588   19.796332 H          1 MOL1         0.0833
       4    C2      20.161681   20.743034   21.708810 C.3        1 MOL1        -0.1684
       5    H3      21.241831   20.861672   21.840501 H          1 MOL1         0.0833
       6    H4      19.863846   21.663366   21.188234 H          1 MOL1         0.0833
       7    C3      19.433347   20.740015   23.084577 C.3        1 MOL1        -0.1684
       8    H5      18.447943   21.202068   22.936122 H          1 MOL1         0.0833
       9    H6      19.969860   21.407166   23.772896 H          1 MOL1         0.0833
      10    C4      19.193427   19.374265   23.783912 C.3        1 MOL1        -0.1760
      11    H7      18.551554   19.560153   24.654971 H          1 MOL1         0.0833
      12    H8      18.566887   18.747656   23.143160 H          1 MOL1         0.0833
      13    C5      20.437573   18.574828   24.271052 C.3        1 MOL1         0.1219
      14    H9      20.149054   17.516235   24.341105 H          1 MOL1         0.0790
      15    C6      21.727995   18.660966   23.417864 C.3        1 MOL1        -0.1760
      16    H10     22.067814   19.700271   23.388060 H          1 MOL1         0.0833
      17    H11     22.523799   18.144192   23.970374 H          1 MOL1         0.0833
      18    C7      21.697280   18.046443   21.986179 C.3        1 MOL1        -0.1684
      19    H12     21.941826   16.979651   22.080994 H          1 MOL1         0.0833
      20    H13     22.513992   18.482342   21.395168 H          1 MOL1         0.0833
      21    C8      20.376813   18.137743   21.177032 C.3        1 MOL1        -0.1684
      22    H14     19.586821   17.598024   21.708626 H          1 MOL1         0.0833
      23    H15     20.511400   17.553028   20.256774 H          1 MOL1         0.0833
      24    O1      20.771412   19.039427   25.574464 O.3        1 MOL1        -0.5508
      25    H16     19.968742   18.935816   26.126032 H          1 MOL1         0.3780
@<TRIPOS>BOND
    1     1     2    1
    2     1     3    1
    3     1     4    1
    4     4     5    1
    5     4     6    1
    6     4     7    1
    7     7     8    1
    8     7     9    1
    9     7    10    1
   10    10    11    1
   11    10    12    1
   12    10    13    1
   13    13    14    1
   14    13    15    1
   15    15    16    1
   16    15    17    1
   17    15    18    1
   18    18    19    1
   19    18    20    1
   20     1    21    1
   21    18    21    1
   22    21    22    1
   23    21    23    1
   24    13    24    1
   25    24    25    1
@<TRIPOS>SUBSTRUCTURE
       1 MOL1            1 RESIDUE      1      MOL     
@<SCITEGIC>MOL_PROPERTY
VConf Rank
SciTegic.value.IntegerValue
194

@<SCITEGIC>MOL_PROPERTY
Conf_Id
SciTegic.value.IntegerValue
146

@<SCITEGIC>MOL_PROPERTY
Delta U+W
SciTegic.value.DoubleValue
2.553

@<SCITEGIC>MOL_PROPERTY
U+W
SciTegic.value.DoubleValue
13.466

@<SCITEGIC>MOL_PROPERTY
Grad RMS
SciTegic.value.DoubleValue
0.000000

@<SCITEGIC>MOL_PROPERTY
U
SciTegic.value.DoubleValue
15.643

@<SCITEGIC>MOL_PROPERTY
W
SciTegic.value.DoubleValue
-2.176

@<SCITEGIC>MOL_PROPERTY
W(PB)
SciTegic.value.DoubleValue
-4.307

@<SCITEGIC>MOL_PROPERTY
W(SA)
SciTegic.value.DoubleValue
2.131

@<SCITEGIC>MOL_PROPERTY
Valence
SciTegic.value.DoubleValue
18.916

@<SCITEGIC>MOL_PROPERTY
Coulomb
SciTegic.value.DoubleValue
-7.506

@<SCITEGIC>MOL_PROPERTY
VdW
SciTegic.value.DoubleValue
4.232

@<SCITEGIC>MOL_PROPERTY
VdW6
SciTegic.value.DoubleValue
-13.632

@<SCITEGIC>MOL_PROPERTY
VdW12
SciTegic.value.DoubleValue
17.864

@<SCITEGIC>MOL_PROPERTY
Bond
SciTegic.value.DoubleValue
0.735

@<SCITEGIC>MOL_PROPERTY
Angle
SciTegic.value.DoubleValue
9.140

@<SCITEGIC>MOL_PROPERTY
Pdih
SciTegic.value.DoubleValue
9.042

@<SCITEGIC>MOL_PROPERTY
Idih
SciTegic.value.DoubleValue
0.000

@<SCITEGIC>MOL_PROPERTY
Tether
SciTegic.value.DoubleValue
0.000

@<TRIPOS>MOLECULE
guest-s17_confgen4.mol2 : confsearch ligand conformer 195
          25          25           1
SMALL
USER_CHARGES
 
@<TRIPOS>ATOM
       1    C1      19.566238   19.425052   24.586107 C.3        1 MOL1        -0.1684
       2    H1      18.668801   20.013177   24.821095 H          1 MOL1         0.0833
       3    H2      19.907883   19.010427   25.544376 H          1 MOL1         0.0833
       4    C2      20.677840   20.372618   24.069773 C.3        1 MOL1        -0.1684
       5    H3      20.895914   21.087915   24.874505 H          1 MOL1         0.0833
       6    H4      21.614524   19.820988   23.930227 H          1 MOL1         0.0833
       7    C3      20.337864   21.196452   22.802454 C.3        1 MOL1        -0.1684
       8    H5      21.166509   21.897240   22.631502 H          1 MOL1         0.0833
       9    H6      19.456099   21.820651   23.000718 H          1 MOL1         0.0833
      10    C4      20.108660   20.403778   21.489124 C.3        1 MOL1        -0.1760
      11    H7      19.087486   20.011201   21.455125 H          1 MOL1         0.0833
      12    H8      20.151768   21.127344   20.663819 H          1 MOL1         0.0833
      13    C5      21.128328   19.267211   21.219742 C.3        1 MOL1         0.1219
      14    H9      22.037160   19.439862   21.811739 H          1 MOL1         0.0790
      15    C6      20.585836   17.845849   21.515035 C.3        1 MOL1        -0.1760
      16    H10     19.659317   17.688429   20.947143 H          1 MOL1         0.0833
      17    H11     21.305294   17.118828   21.116084 H          1 MOL1         0.0833
      18    C7      20.341944   17.483178   23.005199 C.3        1 MOL1        -0.1684
      19    H12     21.264483   17.594358   23.589459 H          1 MOL1         0.0833
      20    H13     20.108696   16.410153   23.039776 H          1 MOL1         0.0833
      21    C8      19.163707   18.237232   23.674262 C.3        1 MOL1        -0.1684
      22    H14     18.612569   17.522480   24.300692 H          1 MOL1         0.0833
      23    H15     18.434799   18.557821   22.921440 H          1 MOL1         0.0833
      24    O1      21.481233   19.307496   19.841633 O.3        1 MOL1        -0.5508
      25    H16     22.168143   18.622155   19.704942 H          1 MOL1         0.3780
@<TRIPOS>BOND
    1     1     2    1
    2     1     3    1
    3     1     4    1
    4     4     5    1
    5     4     6    1
    6     4     7    1
    7     7     8    1
    8     7     9    1
    9     7    10    1
   10    10    11    1
   11    10    12    1
   12    10    13    1
   13    13    14    1
   14    13    15    1
   15    15    16    1
   16    15    17    1
   17    15    18    1
   18    18    19    1
   19    18    20    1
   20     1    21    1
   21    18    21    1
   22    21    22    1
   23    21    23    1
   24    13    24    1
   25    24    25    1
@<TRIPOS>SUBSTRUCTURE
       1 MOL1            1 RESIDUE      1      MOL     
@<SCITEGIC>MOL_PROPERTY
VConf Rank
SciTegic.value.IntegerValue
195

@<SCITEGIC>MOL_PROPERTY
Conf_Id
SciTegic.value.IntegerValue
62

@<SCITEGIC>MOL_PROPERTY
Delta U+W
SciTegic.value.DoubleValue
-1.779

@<SCITEGIC>MOL_PROPERTY
U+W
SciTegic.value.DoubleValue
9.134

@<SCITEGIC>MOL_PROPERTY
Grad RMS
SciTegic.value.DoubleValue
0.000000

@<SCITEGIC>MOL_PROPERTY
U
SciTegic.value.DoubleValue
11.364

@<SCITEGIC>MOL_PROPERTY
W
SciTegic.value.DoubleValue
-2.230

@<SCITEGIC>MOL_PROPERTY
W(PB)
SciTegic.value.DoubleValue
-4.359

@<SCITEGIC>MOL_PROPERTY
W(SA)
SciTegic.value.DoubleValue
2.129

@<SCITEGIC>MOL_PROPERTY
Valence
SciTegic.value.DoubleValue
16.582

@<SCITEGIC>MOL_PROPERTY
Coulomb
SciTegic.value.DoubleValue
-8.150

@<SCITEGIC>MOL_PROPERTY
VdW
SciTegic.value.DoubleValue
2.933

@<SCITEGIC>MOL_PROPERTY
VdW6
SciTegic.value.DoubleValue
-12.531

@<SCITEGIC>MOL_PROPERTY
VdW12
SciTegic.value.DoubleValue
15.464

@<SCITEGIC>MOL_PROPERTY
Bond
SciTegic.value.DoubleValue
0.439

@<SCITEGIC>MOL_PROPERTY
Angle
SciTegic.value.DoubleValue
5.099

@<SCITEGIC>MOL_PROPERTY
Pdih
SciTegic.value.DoubleValue
11.044

@<SCITEGIC>MOL_PROPERTY
Idih
SciTegic.value.DoubleValue
0.000

@<SCITEGIC>MOL_PROPERTY
Tether
SciTegic.value.DoubleValue
0.000

@<TRIPOS>MOLECULE
guest-s17_confgen4.mol2 : confsearch ligand conformer 196
          25          25           1
SMALL
USER_CHARGES
 
@<TRIPOS>ATOM
       1    C1      20.200916   17.951632   24.049443 C.3        1 MOL1        -0.1684
       2    H1      20.427390   18.892919   24.563069 H          1 MOL1         0.0833
       3    H2      20.120610   17.209366   24.855192 H          1 MOL1         0.0833
       4    C2      21.388758   17.527668   23.150032 C.3        1 MOL1        -0.1684
       5    H3      22.265416   17.402903   23.800257 H          1 MOL1         0.0833
       6    H4      21.187889   16.533465   22.728478 H          1 MOL1         0.0833
       7    C3      21.784091   18.490527   22.001410 C.3        1 MOL1        -0.1684
       8    H5      21.146626   18.326413   21.125226 H          1 MOL1         0.0833
       9    H6      22.789667   18.200149   21.667461 H          1 MOL1         0.0833
      10    C4      21.814343   19.995841   22.378806 C.3        1 MOL1        -0.1760
      11    H7      21.966139   20.129354   23.456945 H          1 MOL1         0.0833
      12    H8      22.704278   20.430859   21.905393 H          1 MOL1         0.0833
      13    C5      20.589331   20.813919   21.897671 C.3        1 MOL1         0.1219
      14    H9      20.466627   20.647837   20.817698 H          1 MOL1         0.0790
      15    C6      19.238477   20.502210   22.589003 C.3        1 MOL1        -0.1760
      16    H10     19.317289   20.652656   23.672490 H          1 MOL1         0.0833
      17    H11     18.520979   21.258709   22.244453 H          1 MOL1         0.0833
      18    C7      18.637980   19.109536   22.258198 C.3        1 MOL1        -0.1684
      19    H12     19.019232   18.745096   21.297586 H          1 MOL1         0.0833
      20    H13     17.558183   19.231485   22.096594 H          1 MOL1         0.0833
      21    C8      18.816602   18.032778   23.358929 C.3        1 MOL1        -0.1684
      22    H14     18.561265   17.049681   22.940828 H          1 MOL1         0.0833
      23    H15     18.069917   18.225741   24.141302 H          1 MOL1         0.0833
      24    O1      20.875346   22.189367   22.118496 O.3        1 MOL1        -0.5508
      25    H16     21.694843   22.391621   21.620836 H          1 MOL1         0.3780
@<TRIPOS>BOND
    1     1     2    1
    2     1     3    1
    3     1     4    1
    4     4     5    1
    5     4     6    1
    6     4     7    1
    7     7     8    1
    8     7     9    1
    9     7    10    1
   10    10    11    1
   11    10    12    1
   12    10    13    1
   13    13    14    1
   14    13    15    1
   15    15    16    1
   16    15    17    1
   17    15    18    1
   18    18    19    1
   19    18    20    1
   20     1    21    1
   21    18    21    1
   22    21    22    1
   23    21    23    1
   24    13    24    1
   25    24    25    1
@<TRIPOS>SUBSTRUCTURE
       1 MOL1            1 RESIDUE      1      MOL     
@<SCITEGIC>MOL_PROPERTY
VConf Rank
SciTegic.value.IntegerValue
196

@<SCITEGIC>MOL_PROPERTY
Conf_Id
SciTegic.value.IntegerValue
121

@<SCITEGIC>MOL_PROPERTY
Delta U+W
SciTegic.value.DoubleValue
-1.283

@<SCITEGIC>MOL_PROPERTY
U+W
SciTegic.value.DoubleValue
9.630

@<SCITEGIC>MOL_PROPERTY
Grad RMS
SciTegic.value.DoubleValue
0.000000

@<SCITEGIC>MOL_PROPERTY
U
SciTegic.value.DoubleValue
11.876

@<SCITEGIC>MOL_PROPERTY
W
SciTegic.value.DoubleValue
-2.246

@<SCITEGIC>MOL_PROPERTY
W(PB)
SciTegic.value.DoubleValue
-4.376

@<SCITEGIC>MOL_PROPERTY
W(SA)
SciTegic.value.DoubleValue
2.130

@<SCITEGIC>MOL_PROPERTY
Valence
SciTegic.value.DoubleValue
17.153

@<SCITEGIC>MOL_PROPERTY
Coulomb
SciTegic.value.DoubleValue
-7.966

@<SCITEGIC>MOL_PROPERTY
VdW
SciTegic.value.DoubleValue
2.689

@<SCITEGIC>MOL_PROPERTY
VdW6
SciTegic.value.DoubleValue
-12.458

@<SCITEGIC>MOL_PROPERTY
VdW12
SciTegic.value.DoubleValue
15.147

@<SCITEGIC>MOL_PROPERTY
Bond
SciTegic.value.DoubleValue
0.421

@<SCITEGIC>MOL_PROPERTY
Angle
SciTegic.value.DoubleValue
5.258

@<SCITEGIC>MOL_PROPERTY
Pdih
SciTegic.value.DoubleValue
11.475

@<SCITEGIC>MOL_PROPERTY
Idih
SciTegic.value.DoubleValue
0.000

@<SCITEGIC>MOL_PROPERTY
Tether
SciTegic.value.DoubleValue
0.000

@<TRIPOS>MOLECULE
guest-s17_confgen4.mol2 : confsearch ligand conformer 197
          25          25           1
SMALL
USER_CHARGES
 
@<TRIPOS>ATOM
       1    C1      20.467644   18.740855   24.459058 C.3        1 MOL1        -0.1684
       2    H1      19.660460   18.119289   24.055036 H          1 MOL1         0.0833
       3    H2      20.558593   18.428314   25.508193 H          1 MOL1         0.0833
       4    C2      20.052210   20.233214   24.457879 C.3        1 MOL1        -0.1684
       5    H3      19.154551   20.324938   25.084520 H          1 MOL1         0.0833
       6    H4      20.827609   20.826313   24.961339 H          1 MOL1         0.0833
       7    C3      19.738189   20.878262   23.083751 C.3        1 MOL1        -0.1684
       8    H5      20.661251   21.205842   22.592229 H          1 MOL1         0.0833
       9    H6      19.187174   21.808055   23.280767 H          1 MOL1         0.0833
      10    C4      18.888508   20.006616   22.120501 C.3        1 MOL1        -0.1760
      11    H7      18.288783   19.273863   22.673847 H          1 MOL1         0.0833
      12    H8      18.159018   20.669275   21.636212 H          1 MOL1         0.0833
      13    C5      19.687104   19.311790   20.989406 C.3        1 MOL1         0.1219
      14    H9      20.274100   20.079260   20.464613 H          1 MOL1         0.0790
      15    C6      20.648812   18.176424   21.422360 C.3        1 MOL1        -0.1760
      16    H10     20.100512   17.391823   21.958104 H          1 MOL1         0.0833
      17    H11     21.020572   17.696372   20.507654 H          1 MOL1         0.0833
      18    C7      21.888604   18.643034   22.231371 C.3        1 MOL1        -0.1684
      19    H12     22.114784   19.693637   22.016732 H          1 MOL1         0.0833
      20    H13     22.765472   18.092811   21.863430 H          1 MOL1         0.0833
      21    C8      21.809120   18.404995   23.760990 C.3        1 MOL1        -0.1684
      22    H14     22.621544   18.958850   24.250588 H          1 MOL1         0.0833
      23    H15     22.019683   17.342923   23.946880 H          1 MOL1         0.0833
      24    O1      18.745336   18.756206   20.080108 O.3        1 MOL1        -0.5508
      25    H16     19.258931   18.379612   19.335429 H          1 MOL1         0.3780
@<TRIPOS>BOND
    1     1     2    1
    2     1     3    1
    3     1     4    1
    4     4     5    1
    5     4     6    1
    6     4     7    1
    7     7     8    1
    8     7     9    1
    9     7    10    1
   10    10    11    1
   11    10    12    1
   12    10    13    1
   13    13    14    1
   14    13    15    1
   15    15    16    1
   16    15    17    1
   17    15    18    1
   18    18    19    1
   19    18    20    1
   20     1    21    1
   21    18    21    1
   22    21    22    1
   23    21    23    1
   24    13    24    1
   25    24    25    1
@<TRIPOS>SUBSTRUCTURE
       1 MOL1            1 RESIDUE      1      MOL     
@<SCITEGIC>MOL_PROPERTY
VConf Rank
SciTegic.value.IntegerValue
197

@<SCITEGIC>MOL_PROPERTY
Conf_Id
SciTegic.value.IntegerValue
24

@<SCITEGIC>MOL_PROPERTY
Delta U+W
SciTegic.value.DoubleValue
-1.236

@<SCITEGIC>MOL_PROPERTY
U+W
SciTegic.value.DoubleValue
9.678

@<SCITEGIC>MOL_PROPERTY
Grad RMS
SciTegic.value.DoubleValue
0.000000

@<SCITEGIC>MOL_PROPERTY
U
SciTegic.value.DoubleValue
11.876

@<SCITEGIC>MOL_PROPERTY
W
SciTegic.value.DoubleValue
-2.199

@<SCITEGIC>MOL_PROPERTY
W(PB)
SciTegic.value.DoubleValue
-4.335

@<SCITEGIC>MOL_PROPERTY
W(SA)
SciTegic.value.DoubleValue
2.137

@<SCITEGIC>MOL_PROPERTY
Valence
SciTegic.value.DoubleValue
17.153

@<SCITEGIC>MOL_PROPERTY
Coulomb
SciTegic.value.DoubleValue
-7.966

@<SCITEGIC>MOL_PROPERTY
VdW
SciTegic.value.DoubleValue
2.689

@<SCITEGIC>MOL_PROPERTY
VdW6
SciTegic.value.DoubleValue
-12.458

@<SCITEGIC>MOL_PROPERTY
VdW12
SciTegic.value.DoubleValue
15.147

@<SCITEGIC>MOL_PROPERTY
Bond
SciTegic.value.DoubleValue
0.421

@<SCITEGIC>MOL_PROPERTY
Angle
SciTegic.value.DoubleValue
5.258

@<SCITEGIC>MOL_PROPERTY
Pdih
SciTegic.value.DoubleValue
11.475

@<SCITEGIC>MOL_PROPERTY
Idih
SciTegic.value.DoubleValue
0.000

@<SCITEGIC>MOL_PROPERTY
Tether
SciTegic.value.DoubleValue
0.000

@<TRIPOS>MOLECULE
guest-s17_confgen4.mol2 : confsearch ligand conformer 198
          25          25           1
SMALL
USER_CHARGES
 
@<TRIPOS>ATOM
       1    C1      19.166204   20.399086   21.252074 C.3        1 MOL1        -0.1684
       2    H1      19.443817   21.434517   21.012092 H          1 MOL1         0.0833
       3    H2      18.238035   20.204317   20.697619 H          1 MOL1         0.0833
       4    C2      20.260060   19.445849   20.701602 C.3        1 MOL1        -0.1684
       5    H3      19.876622   18.420412   20.625785 H          1 MOL1         0.0833
       6    H4      20.454702   19.748455   19.663522 H          1 MOL1         0.0833
       7    C3      21.610509   19.451114   21.459837 C.3        1 MOL1        -0.1684
       8    H5      21.839492   20.455156   21.841834 H          1 MOL1         0.0833
       9    H6      22.392882   19.236316   20.718921 H          1 MOL1         0.0833
      10    C4      21.743601   18.380252   22.579421 C.3        1 MOL1        -0.1760
      11    H7      21.240606   17.448606   22.290439 H          1 MOL1         0.0833
      12    H8      22.811056   18.129611   22.647736 H          1 MOL1         0.0833
      13    C5      21.274803   18.838466   23.982043 C.3        1 MOL1         0.1219
      14    H9      21.411582   19.925315   24.057718 H          1 MOL1         0.0790
      15    C6      19.810771   18.480274   24.342761 C.3        1 MOL1        -0.1760
      16    H10     19.734316   17.400385   24.525422 H          1 MOL1         0.0833
      17    H11     19.575928   18.965556   25.299303 H          1 MOL1         0.0833
      18    C7      18.720504   18.875076   23.315098 C.3        1 MOL1        -0.1684
      19    H12     17.741099   18.776315   23.802715 H          1 MOL1         0.0833
      20    H13     18.700682   18.144499   22.498057 H          1 MOL1         0.0833
      21    C8      18.860047   20.318081   22.767726 C.3        1 MOL1        -0.1684
      22    H14     19.616427   20.881189   23.326702 H          1 MOL1         0.0833
      23    H15     17.920281   20.856126   22.952708 H          1 MOL1         0.0833
      24    O1      22.110579   18.225235   24.955252 O.3        1 MOL1        -0.5508
      25    H16     21.988260   17.258714   24.856021 H          1 MOL1         0.3780
@<TRIPOS>BOND
    1     1     2    1
    2     1     3    1
    3     1     4    1
    4     4     5    1
    5     4     6    1
    6     4     7    1
    7     7     8    1
    8     7     9    1
    9     7    10    1
   10    10    11    1
   11    10    12    1
   12    10    13    1
   13    13    14    1
   14    13    15    1
   15    15    16    1
   16    15    17    1
   17    15    18    1
   18    18    19    1
   19    18    20    1
   20     1    21    1
   21    18    21    1
   22    21    22    1
   23    21    23    1
   24    13    24    1
   25    24    25    1
@<TRIPOS>SUBSTRUCTURE
       1 MOL1            1 RESIDUE      1      MOL     
@<SCITEGIC>MOL_PROPERTY
VConf Rank
SciTegic.value.IntegerValue
198

@<SCITEGIC>MOL_PROPERTY
Conf_Id
SciTegic.value.IntegerValue
167

@<SCITEGIC>MOL_PROPERTY
Delta U+W
SciTegic.value.DoubleValue
0.388

@<SCITEGIC>MOL_PROPERTY
U+W
SciTegic.value.DoubleValue
11.301

@<SCITEGIC>MOL_PROPERTY
Grad RMS
SciTegic.value.DoubleValue
0.000000

@<SCITEGIC>MOL_PROPERTY
U
SciTegic.value.DoubleValue
13.202

@<SCITEGIC>MOL_PROPERTY
W
SciTegic.value.DoubleValue
-1.901

@<SCITEGIC>MOL_PROPERTY
W(PB)
SciTegic.value.DoubleValue
-4.065

@<SCITEGIC>MOL_PROPERTY
W(SA)
SciTegic.value.DoubleValue
2.163

@<SCITEGIC>MOL_PROPERTY
Valence
SciTegic.value.DoubleValue
18.957

@<SCITEGIC>MOL_PROPERTY
Coulomb
SciTegic.value.DoubleValue
-8.753

@<SCITEGIC>MOL_PROPERTY
VdW
SciTegic.value.DoubleValue
2.998

@<SCITEGIC>MOL_PROPERTY
VdW6
SciTegic.value.DoubleValue
-12.294

@<SCITEGIC>MOL_PROPERTY
VdW12
SciTegic.value.DoubleValue
15.292

@<SCITEGIC>MOL_PROPERTY
Bond
SciTegic.value.DoubleValue
0.419

@<SCITEGIC>MOL_PROPERTY
Angle
SciTegic.value.DoubleValue
4.543

@<SCITEGIC>MOL_PROPERTY
Pdih
SciTegic.value.DoubleValue
13.996

@<SCITEGIC>MOL_PROPERTY
Idih
SciTegic.value.DoubleValue
0.000

@<SCITEGIC>MOL_PROPERTY
Tether
SciTegic.value.DoubleValue
0.000

@<TRIPOS>MOLECULE
guest-s17_confgen4.mol2 : confsearch ligand conformer 199
          25          25           1
SMALL
USER_CHARGES
 
@<TRIPOS>ATOM
       1    C1      22.351323   19.513507   22.581475 C.3        1 MOL1        -0.1684
       2    H1      22.999122   18.836938   22.007791 H          1 MOL1         0.0833
       3    H2      23.020159   20.275503   23.004488 H          1 MOL1         0.0833
       4    C2      21.725136   18.727494   23.762737 C.3        1 MOL1        -0.1684
       5    H3      21.424909   17.723318   23.442897 H          1 MOL1         0.0833
       6    H4      22.526538   18.552385   24.493576 H          1 MOL1         0.0833
       7    C3      20.555790   19.438833   24.491757 C.3        1 MOL1        -0.1684
       8    H5      20.624972   20.528454   24.379013 H          1 MOL1         0.0833
       9    H6      20.676333   19.253763   25.567919 H          1 MOL1         0.0833
      10    C4      19.140065   18.933377   24.101264 C.3        1 MOL1        -0.1760
      11    H7      19.082812   17.848742   24.261046 H          1 MOL1         0.0833
      12    H8      18.425214   19.374824   24.808300 H          1 MOL1         0.0833
      13    C5      18.649243   19.264224   22.669817 C.3        1 MOL1         0.1219
      14    H9      18.738185   20.345710   22.500603 H          1 MOL1         0.0790
      15    C6      19.396920   18.494400   21.550407 C.3        1 MOL1        -0.1760
      16    H10     19.857116   17.589046   21.958850 H          1 MOL1         0.0833
      17    H11     18.671716   18.122372   20.814460 H          1 MOL1         0.0833
      18    C7      20.449914   19.326679   20.773697 C.3        1 MOL1        -0.1684
      19    H12     19.914159   19.968754   20.061201 H          1 MOL1         0.0833
      20    H13     21.060122   18.648116   20.162345 H          1 MOL1         0.0833
      21    C8      21.381921   20.236584   21.612927 C.3        1 MOL1        -0.1684
      22    H14     20.799467   20.992796   22.151479 H          1 MOL1         0.0833
      23    H15     21.996162   20.812463   20.907312 H          1 MOL1         0.0833
      24    O1      17.270972   18.917475   22.604258 O.3        1 MOL1        -0.5508
      25    H16     16.953741   19.194087   21.719178 H          1 MOL1         0.3780
@<TRIPOS>BOND
    1     1     2    1
    2     1     3    1
    3     1     4    1
    4     4     5    1
    5     4     6    1
    6     4     7    1
    7     7     8    1
    8     7     9    1
    9     7    10    1
   10    10    11    1
   11    10    12    1
   12    10    13    1
   13    13    14    1
   14    13    15    1
   15    15    16    1
   16    15    17    1
   17    15    18    1
   18    18    19    1
   19    18    20    1
   20     1    21    1
   21    18    21    1
   22    21    22    1
   23    21    23    1
   24    13    24    1
   25    24    25    1
@<TRIPOS>SUBSTRUCTURE
       1 MOL1            1 RESIDUE      1      MOL     
@<SCITEGIC>MOL_PROPERTY
VConf Rank
SciTegic.value.IntegerValue
199

@<SCITEGIC>MOL_PROPERTY
Conf_Id
SciTegic.value.IntegerValue
60

@<SCITEGIC>MOL_PROPERTY
Delta U+W
SciTegic.value.DoubleValue
-1.838

@<SCITEGIC>MOL_PROPERTY
U+W
SciTegic.value.DoubleValue
9.075

@<SCITEGIC>MOL_PROPERTY
Grad RMS
SciTegic.value.DoubleValue
0.000000

@<SCITEGIC>MOL_PROPERTY
U
SciTegic.value.DoubleValue
11.150

@<SCITEGIC>MOL_PROPERTY
W
SciTegic.value.DoubleValue
-2.074

@<SCITEGIC>MOL_PROPERTY
W(PB)
SciTegic.value.DoubleValue
-4.196

@<SCITEGIC>MOL_PROPERTY
W(SA)
SciTegic.value.DoubleValue
2.121

@<SCITEGIC>MOL_PROPERTY
Valence
SciTegic.value.DoubleValue
16.582

@<SCITEGIC>MOL_PROPERTY
Coulomb
SciTegic.value.DoubleValue
-8.361

@<SCITEGIC>MOL_PROPERTY
VdW
SciTegic.value.DoubleValue
2.928

@<SCITEGIC>MOL_PROPERTY
VdW6
SciTegic.value.DoubleValue
-12.539

@<SCITEGIC>MOL_PROPERTY
VdW12
SciTegic.value.DoubleValue
15.467

@<SCITEGIC>MOL_PROPERTY
Bond
SciTegic.value.DoubleValue
0.441

@<SCITEGIC>MOL_PROPERTY
Angle
SciTegic.value.DoubleValue
5.093

@<SCITEGIC>MOL_PROPERTY
Pdih
SciTegic.value.DoubleValue
11.049

@<SCITEGIC>MOL_PROPERTY
Idih
SciTegic.value.DoubleValue
0.000

@<SCITEGIC>MOL_PROPERTY
Tether
SciTegic.value.DoubleValue
0.000

@<TRIPOS>MOLECULE
guest-s17_confgen4.mol2 : confsearch ligand conformer 200
          25          25           1
SMALL
USER_CHARGES
 
@<TRIPOS>ATOM
       1    C1      19.193480   20.915713   22.676556 C.3        1 MOL1        -0.1684
       2    H1      19.662389   21.906009   22.599478 H          1 MOL1         0.0833
       3    H2      18.116835   21.105769   22.784414 H          1 MOL1         0.0833
       4    C2      19.672496   20.223080   23.977121 C.3        1 MOL1        -0.1684
       5    H3      19.356427   20.855327   24.818064 H          1 MOL1         0.0833
       6    H4      19.135764   19.279141   24.125604 H          1 MOL1         0.0833
       7    C3      21.200915   20.008128   24.113503 C.3        1 MOL1        -0.1684
       8    H5      21.391884   19.619928   25.123343 H          1 MOL1         0.0833
       9    H6      21.709362   20.980705   24.067394 H          1 MOL1         0.0833
      10    C4      21.866956   19.043581   23.098221 C.3        1 MOL1        -0.1760
      11    H7      22.058298   19.562408   22.153508 H          1 MOL1         0.0833
      12    H8      22.866844   18.806389   23.485397 H          1 MOL1         0.0833
      13    C5      21.088351   17.728346   22.836205 C.3        1 MOL1         0.1219
      14    H9      20.383811   17.543262   23.658106 H          1 MOL1         0.0790
      15    C6      20.316884   17.706969   21.493154 C.3        1 MOL1        -0.1760
      16    H10     21.013527   17.924283   20.672968 H          1 MOL1         0.0833
      17    H11     19.972190   16.678213   21.323944 H          1 MOL1         0.0833
      18    C7      19.079386   18.638671   21.380103 C.3        1 MOL1        -0.1684
      19    H12     18.348361   18.412184   22.166918 H          1 MOL1         0.0833
      20    H13     18.573789   18.386607   20.437903 H          1 MOL1         0.0833
      21    C8      19.406566   20.154053   21.342474 C.3        1 MOL1        -0.1684
      22    H14     18.753822   20.625427   20.594967 H          1 MOL1         0.0833
      23    H15     20.420360   20.319260   20.960726 H          1 MOL1         0.0833
      24    O1      22.023313   16.656433   22.804368 O.3        1 MOL1        -0.5508
      25    H16     22.456704   16.635804   23.683153 H          1 MOL1         0.3780
@<TRIPOS>BOND
    1     1     2    1
    2     1     3    1
    3     1     4    1
    4     4     5    1
    5     4     6    1
    6     4     7    1
    7     7     8    1
    8     7     9    1
    9     7    10    1
   10    10    11    1
   11    10    12    1
   12    10    13    1
   13    13    14    1
   14    13    15    1
   15    15    16    1
   16    15    17    1
   17    15    18    1
   18    18    19    1
   19    18    20    1
   20     1    21    1
   21    18    21    1
   22    21    22    1
   23    21    23    1
   24    13    24    1
   25    24    25    1
@<TRIPOS>SUBSTRUCTURE
       1 MOL1            1 RESIDUE      1      MOL     
@<SCITEGIC>MOL_PROPERTY
VConf Rank
SciTegic.value.IntegerValue
200

@<SCITEGIC>MOL_PROPERTY
Conf_Id
SciTegic.value.IntegerValue
129

@<SCITEGIC>MOL_PROPERTY
Delta U+W
SciTegic.value.DoubleValue
-1.846

@<SCITEGIC>MOL_PROPERTY
U+W
SciTegic.value.DoubleValue
9.067

@<SCITEGIC>MOL_PROPERTY
Grad RMS
SciTegic.value.DoubleValue
0.000000

@<SCITEGIC>MOL_PROPERTY
U
SciTegic.value.DoubleValue
11.150

@<SCITEGIC>MOL_PROPERTY
W
SciTegic.value.DoubleValue
-2.083

@<SCITEGIC>MOL_PROPERTY
W(PB)
SciTegic.value.DoubleValue
-4.217

@<SCITEGIC>MOL_PROPERTY
W(SA)
SciTegic.value.DoubleValue
2.134

@<SCITEGIC>MOL_PROPERTY
Valence
SciTegic.value.DoubleValue
16.583

@<SCITEGIC>MOL_PROPERTY
Coulomb
SciTegic.value.DoubleValue
-8.361

@<SCITEGIC>MOL_PROPERTY
VdW
SciTegic.value.DoubleValue
2.928

@<SCITEGIC>MOL_PROPERTY
VdW6
SciTegic.value.DoubleValue
-12.539

@<SCITEGIC>MOL_PROPERTY
VdW12
SciTegic.value.DoubleValue
15.467

@<SCITEGIC>MOL_PROPERTY
Bond
SciTegic.value.DoubleValue
0.441

@<SCITEGIC>MOL_PROPERTY
Angle
SciTegic.value.DoubleValue
5.093

@<SCITEGIC>MOL_PROPERTY
Pdih
SciTegic.value.DoubleValue
11.049

@<SCITEGIC>MOL_PROPERTY
Idih
SciTegic.value.DoubleValue
0.000

@<SCITEGIC>MOL_PROPERTY
Tether
SciTegic.value.DoubleValue
0.000

@<TRIPOS>MOLECULE
guest-s17_confgen4.mol2 : confsearch ligand conformer 201
          25          25           1
SMALL
USER_CHARGES
 
@<TRIPOS>ATOM
       1    C1      21.283433   17.589851   23.404087 C.3        1 MOL1        -0.1684
       2    H1      22.378864   17.598407   23.484490 H          1 MOL1         0.0833
       3    H2      20.965395   16.614225   23.796420 H          1 MOL1         0.0833
       4    C2      20.879893   17.640499   21.909160 C.3        1 MOL1        -0.1684
       5    H3      21.298895   16.746092   21.428247 H          1 MOL1         0.0833
       6    H4      19.794930   17.527466   21.802957 H          1 MOL1         0.0833
       7    C3      21.379510   18.869105   21.108426 C.3        1 MOL1        -0.1684
       8    H5      21.117297   18.705202   20.054181 H          1 MOL1         0.0833
       9    H6      22.476964   18.901584   21.140641 H          1 MOL1         0.0833
      10    C4      20.822113   20.254852   21.525904 C.3        1 MOL1        -0.1760
      11    H7      21.377224   20.641472   22.386668 H          1 MOL1         0.0833
      12    H8      21.055426   20.952169   20.709858 H          1 MOL1         0.0833
      13    C5      19.297933   20.291059   21.808992 C.3        1 MOL1         0.1219
      14    H9      18.811991   19.430723   21.329877 H          1 MOL1         0.0790
      15    C6      18.930124   20.312511   23.314035 C.3        1 MOL1        -0.1760
      16    H10     19.438622   21.153879   23.802652 H          1 MOL1         0.0833
      17    H11     17.855941   20.527760   23.391713 H          1 MOL1         0.0833
      18    C7      19.202674   19.014194   24.120949 C.3        1 MOL1        -0.1684
      19    H12     18.670434   18.161946   23.679151 H          1 MOL1         0.0833
      20    H13     18.749781   19.151854   25.112364 H          1 MOL1         0.0833
      21    C8      20.702752   18.685150   24.335526 C.3        1 MOL1        -0.1684
      22    H14     20.830418   18.331182   25.367737 H          1 MOL1         0.0833
      23    H15     21.308247   19.597011   24.283711 H          1 MOL1         0.0833
      24    O1      18.766098   21.474831   21.227615 O.3        1 MOL1        -0.5508
      25    H16     19.210413   22.225389   21.672800 H          1 MOL1         0.3780
@<TRIPOS>BOND
    1     1     2    1
    2     1     3    1
    3     1     4    1
    4     4     5    1
    5     4     6    1
    6     4     7    1
    7     7     8    1
    8     7     9    1
    9     7    10    1
   10    10    11    1
   11    10    12    1
   12    10    13    1
   13    13    14    1
   14    13    15    1
   15    15    16    1
   16    15    17    1
   17    15    18    1
   18    18    19    1
   19    18    20    1
   20     1    21    1
   21    18    21    1
   22    21    22    1
   23    21    23    1
   24    13    24    1
   25    24    25    1
@<TRIPOS>SUBSTRUCTURE
       1 MOL1            1 RESIDUE      1      MOL     
@<SCITEGIC>MOL_PROPERTY
VConf Rank
SciTegic.value.IntegerValue
201

@<SCITEGIC>MOL_PROPERTY
Conf_Id
SciTegic.value.IntegerValue
140

@<SCITEGIC>MOL_PROPERTY
Delta U+W
SciTegic.value.DoubleValue
-1.702

@<SCITEGIC>MOL_PROPERTY
U+W
SciTegic.value.DoubleValue
9.211

@<SCITEGIC>MOL_PROPERTY
Grad RMS
SciTegic.value.DoubleValue
0.000000

@<SCITEGIC>MOL_PROPERTY
U
SciTegic.value.DoubleValue
11.181

@<SCITEGIC>MOL_PROPERTY
W
SciTegic.value.DoubleValue
-1.969

@<SCITEGIC>MOL_PROPERTY
W(PB)
SciTegic.value.DoubleValue
-4.093

@<SCITEGIC>MOL_PROPERTY
W(SA)
SciTegic.value.DoubleValue
2.124

@<SCITEGIC>MOL_PROPERTY
Valence
SciTegic.value.DoubleValue
16.954

@<SCITEGIC>MOL_PROPERTY
Coulomb
SciTegic.value.DoubleValue
-8.661

@<SCITEGIC>MOL_PROPERTY
VdW
SciTegic.value.DoubleValue
2.887

@<SCITEGIC>MOL_PROPERTY
VdW6
SciTegic.value.DoubleValue
-12.561

@<SCITEGIC>MOL_PROPERTY
VdW12
SciTegic.value.DoubleValue
15.448

@<SCITEGIC>MOL_PROPERTY
Bond
SciTegic.value.DoubleValue
0.433

@<SCITEGIC>MOL_PROPERTY
Angle
SciTegic.value.DoubleValue
5.120

@<SCITEGIC>MOL_PROPERTY
Pdih
SciTegic.value.DoubleValue
11.401

@<SCITEGIC>MOL_PROPERTY
Idih
SciTegic.value.DoubleValue
0.000

@<SCITEGIC>MOL_PROPERTY
Tether
SciTegic.value.DoubleValue
0.000

@<TRIPOS>MOLECULE
guest-s17_confgen4.mol2 : confsearch ligand conformer 202
          25          25           1
SMALL
USER_CHARGES
 
@<TRIPOS>ATOM
       1    C1      20.685159   17.755900   24.085451 C.3        1 MOL1        -0.1684
       2    H1      21.575025   17.116247   24.011369 H          1 MOL1         0.0833
       3    H2      20.169498   17.440666   25.002861 H          1 MOL1         0.0833
       4    C2      19.747107   17.452224   22.888669 C.3        1 MOL1        -0.1684
       5    H3      20.326119   17.321810   21.967506 H          1 MOL1         0.0833
       6    H4      19.300118   16.465482   23.071954 H          1 MOL1         0.0833
       7    C3      18.597063   18.469157   22.670051 C.3        1 MOL1        -0.1684
       8    H5      18.341599   18.983876   23.605250 H          1 MOL1         0.0833
       9    H6      17.697558   17.897852   22.402717 H          1 MOL1         0.0833
      10    C4      18.840847   19.491531   21.527102 C.3        1 MOL1        -0.1760
      11    H7      19.051146   18.948341   20.596546 H          1 MOL1         0.0833
      12    H8      17.895186   20.022834   21.354827 H          1 MOL1         0.0833
      13    C5      19.942001   20.555719   21.763437 C.3        1 MOL1         0.1219
      14    H9      19.745168   21.076129   22.710170 H          1 MOL1         0.0790
      15    C6      21.385343   19.988884   21.768923 C.3        1 MOL1        -0.1760
      16    H10     21.421734   19.038243   21.227170 H          1 MOL1         0.0833
      17    H11     22.039857   20.659578   21.195865 H          1 MOL1         0.0833
      18    C7      22.022377   19.828729   23.173847 C.3        1 MOL1        -0.1684
      19    H12     22.345602   20.822986   23.511531 H          1 MOL1         0.0833
      20    H13     22.940187   19.232109   23.083470 H          1 MOL1         0.0833
      21    C8      21.127919   19.226872   24.286493 C.3        1 MOL1        -0.1684
      22    H14     20.256266   19.866224   24.467192 H          1 MOL1         0.0833
      23    H15     21.700359   19.269552   25.223134 H          1 MOL1         0.0833
      24    O1      19.842332   21.507063   20.711215 O.3        1 MOL1        -0.5508
      25    H16     20.017172   21.019606   19.880095 H          1 MOL1         0.3780
@<TRIPOS>BOND
    1     1     2    1
    2     1     3    1
    3     1     4    1
    4     4     5    1
    5     4     6    1
    6     4     7    1
    7     7     8    1
    8     7     9    1
    9     7    10    1
   10    10    11    1
   11    10    12    1
   12    10    13    1
   13    13    14    1
   14    13    15    1
   15    15    16    1
   16    15    17    1
   17    15    18    1
   18    18    19    1
   19    18    20    1
   20     1    21    1
   21    18    21    1
   22    21    22    1
   23    21    23    1
   24    13    24    1
   25    24    25    1
@<TRIPOS>SUBSTRUCTURE
       1 MOL1            1 RESIDUE      1      MOL     
@<SCITEGIC>MOL_PROPERTY
VConf Rank
SciTegic.value.IntegerValue
202

@<SCITEGIC>MOL_PROPERTY
Conf_Id
SciTegic.value.IntegerValue
68

@<SCITEGIC>MOL_PROPERTY
Delta U+W
SciTegic.value.DoubleValue
-1.765

@<SCITEGIC>MOL_PROPERTY
U+W
SciTegic.value.DoubleValue
9.148

@<SCITEGIC>MOL_PROPERTY
Grad RMS
SciTegic.value.DoubleValue
0.000000

@<SCITEGIC>MOL_PROPERTY
U
SciTegic.value.DoubleValue
11.181

@<SCITEGIC>MOL_PROPERTY
W
SciTegic.value.DoubleValue
-2.032

@<SCITEGIC>MOL_PROPERTY
W(PB)
SciTegic.value.DoubleValue
-4.147

@<SCITEGIC>MOL_PROPERTY
W(SA)
SciTegic.value.DoubleValue
2.114

@<SCITEGIC>MOL_PROPERTY
Valence
SciTegic.value.DoubleValue
16.955

@<SCITEGIC>MOL_PROPERTY
Coulomb
SciTegic.value.DoubleValue
-8.661

@<SCITEGIC>MOL_PROPERTY
VdW
SciTegic.value.DoubleValue
2.887

@<SCITEGIC>MOL_PROPERTY
VdW6
SciTegic.value.DoubleValue
-12.561

@<SCITEGIC>MOL_PROPERTY
VdW12
SciTegic.value.DoubleValue
15.448

@<SCITEGIC>MOL_PROPERTY
Bond
SciTegic.value.DoubleValue
0.433

@<SCITEGIC>MOL_PROPERTY
Angle
SciTegic.value.DoubleValue
5.121

@<SCITEGIC>MOL_PROPERTY
Pdih
SciTegic.value.DoubleValue
11.402

@<SCITEGIC>MOL_PROPERTY
Idih
SciTegic.value.DoubleValue
0.000

@<SCITEGIC>MOL_PROPERTY
Tether
SciTegic.value.DoubleValue
0.000

@<TRIPOS>MOLECULE
guest-s17_confgen4.mol2 : confsearch ligand conformer 203
          25          25           1
SMALL
USER_CHARGES
 
@<TRIPOS>ATOM
       1    C1      20.180071   18.754038   20.845770 C.3        1 MOL1        -0.1684
       2    H1      20.025285   18.488496   19.790969 H          1 MOL1         0.0833
       3    H2      21.252224   18.598029   21.010211 H          1 MOL1         0.0833
       4    C2      19.346982   17.776503   21.715074 C.3        1 MOL1        -0.1684
       5    H3      18.368556   18.205774   21.966116 H          1 MOL1         0.0833
       6    H4      19.122494   16.895605   21.098110 H          1 MOL1         0.0833
       7    C3      20.066774   17.263996   22.990158 C.3        1 MOL1        -0.1684
       8    H5      21.020115   16.796763   22.707478 H          1 MOL1         0.0833
       9    H6      19.457105   16.454857   23.414928 H          1 MOL1         0.0833
      10    C4      20.319070   18.304556   24.113606 C.3        1 MOL1        -0.1760
      11    H7      19.373557   18.760858   24.430388 H          1 MOL1         0.0833
      12    H8      20.676313   17.744617   24.988510 H          1 MOL1         0.0833
      13    C5      21.367665   19.390957   23.759953 C.3        1 MOL1         0.1219
      14    H9      21.987954   19.032283   22.930412 H          1 MOL1         0.0790
      15    C6      20.771849   20.771246   23.388672 C.3        1 MOL1        -0.1760
      16    H10     20.463976   21.277866   24.312862 H          1 MOL1         0.0833
      17    H11     21.571003   21.389283   22.959176 H          1 MOL1         0.0833
      18    C7      19.554956   20.781986   22.427881 C.3        1 MOL1        -0.1684
      19    H12     19.219716   21.824097   22.336546 H          1 MOL1         0.0833
      20    H13     18.705337   20.256958   22.879324 H          1 MOL1         0.0833
      21    C8      19.814292   20.253720   20.994766 C.3        1 MOL1        -0.1684
      22    H14     20.597176   20.860472   20.519863 H          1 MOL1         0.0833
      23    H15     18.902866   20.435351   20.408839 H          1 MOL1         0.0833
      24    O1      22.219191   19.581155   24.883079 O.3        1 MOL1        -0.5508
      25    H16     21.646074   19.883666   25.617186 H          1 MOL1         0.3780
@<TRIPOS>BOND
    1     1     2    1
    2     1     3    1
    3     1     4    1
    4     4     5    1
    5     4     6    1
    6     4     7    1
    7     7     8    1
    8     7     9    1
    9     7    10    1
   10    10    11    1
   11    10    12    1
   12    10    13    1
   13    13    14    1
   14    13    15    1
   15    15    16    1
   16    15    17    1
   17    15    18    1
   18    18    19    1
   19    18    20    1
   20     1    21    1
   21    18    21    1
   22    21    22    1
   23    21    23    1
   24    13    24    1
   25    24    25    1
@<TRIPOS>SUBSTRUCTURE
       1 MOL1            1 RESIDUE      1      MOL     
@<SCITEGIC>MOL_PROPERTY
VConf Rank
SciTegic.value.IntegerValue
203

@<SCITEGIC>MOL_PROPERTY
Conf_Id
SciTegic.value.IntegerValue
165

@<SCITEGIC>MOL_PROPERTY
Delta U+W
SciTegic.value.DoubleValue
-1.999

@<SCITEGIC>MOL_PROPERTY
U+W
SciTegic.value.DoubleValue
8.915

@<SCITEGIC>MOL_PROPERTY
Grad RMS
SciTegic.value.DoubleValue
0.000000

@<SCITEGIC>MOL_PROPERTY
U
SciTegic.value.DoubleValue
10.935

@<SCITEGIC>MOL_PROPERTY
W
SciTegic.value.DoubleValue
-2.020

@<SCITEGIC>MOL_PROPERTY
W(PB)
SciTegic.value.DoubleValue
-4.135

@<SCITEGIC>MOL_PROPERTY
W(SA)
SciTegic.value.DoubleValue
2.115

@<SCITEGIC>MOL_PROPERTY
Valence
SciTegic.value.DoubleValue
16.757

@<SCITEGIC>MOL_PROPERTY
Coulomb
SciTegic.value.DoubleValue
-8.731

@<SCITEGIC>MOL_PROPERTY
VdW
SciTegic.value.DoubleValue
2.908

@<SCITEGIC>MOL_PROPERTY
VdW6
SciTegic.value.DoubleValue
-12.597

@<SCITEGIC>MOL_PROPERTY
VdW12
SciTegic.value.DoubleValue
15.506

@<SCITEGIC>MOL_PROPERTY
Bond
SciTegic.value.DoubleValue
0.434

@<SCITEGIC>MOL_PROPERTY
Angle
SciTegic.value.DoubleValue
5.069

@<SCITEGIC>MOL_PROPERTY
Pdih
SciTegic.value.DoubleValue
11.254

@<SCITEGIC>MOL_PROPERTY
Idih
SciTegic.value.DoubleValue
0.000

@<SCITEGIC>MOL_PROPERTY
Tether
SciTegic.value.DoubleValue
0.000

@<TRIPOS>MOLECULE
guest-s17_confgen4.mol2 : confsearch ligand conformer 204
          25          25           1
SMALL
USER_CHARGES
 
@<TRIPOS>ATOM
       1    C1      19.190216   18.540926   23.966978 C.3        1 MOL1        -0.1684
       2    H1      18.468171   18.127304   24.684371 H          1 MOL1         0.0833
       3    H2      20.027816   18.876772   24.588618 H          1 MOL1         0.0833
       4    C2      18.502114   19.746010   23.274347 C.3        1 MOL1        -0.1684
       5    H3      17.464251   19.458454   23.057186 H          1 MOL1         0.0833
       6    H4      18.435243   20.577588   23.988893 H          1 MOL1         0.0833
       7    C3      19.126206   20.255624   21.951040 C.3        1 MOL1        -0.1684
       8    H5      18.462676   21.036687   21.555605 H          1 MOL1         0.0833
       9    H6      19.106204   19.465704   21.191488 H          1 MOL1         0.0833
      10    C4      20.546610   20.867878   22.058880 C.3        1 MOL1        -0.1760
      11    H7      20.803697   21.277530   21.072672 H          1 MOL1         0.0833
      12    H8      20.512020   21.725331   22.743201 H          1 MOL1         0.0833
      13    C5      21.691052   19.924472   22.503850 C.3        1 MOL1         0.1219
      14    H9      21.640023   19.780936   23.589508 H          1 MOL1         0.0790
      15    C6      21.690579   18.536823   21.812031 C.3        1 MOL1        -0.1760
      16    H10     21.150892   18.576215   20.858457 H          1 MOL1         0.0833
      17    H11     22.725066   18.282390   21.544386 H          1 MOL1         0.0833
      18    C7      21.153895   17.377113   22.692958 C.3        1 MOL1        -0.1684
      19    H12     21.728712   17.336133   23.628315 H          1 MOL1         0.0833
      20    H13     21.371042   16.434348   22.172560 H          1 MOL1         0.0833
      21    C8      19.637712   17.396093   23.021135 C.3        1 MOL1        -0.1684
      22    H14     19.406367   16.445507   23.521013 H          1 MOL1         0.0833
      23    H15     19.040075   17.387145   22.100614 H          1 MOL1         0.0833
      24    O1      22.920581   20.576940   22.207107 O.3        1 MOL1        -0.5508
      25    H16     22.912317   21.428665   22.691809 H          1 MOL1         0.3780
@<TRIPOS>BOND
    1     1     2    1
    2     1     3    1
    3     1     4    1
    4     4     5    1
    5     4     6    1
    6     4     7    1
    7     7     8    1
    8     7     9    1
    9     7    10    1
   10    10    11    1
   11    10    12    1
   12    10    13    1
   13    13    14    1
   14    13    15    1
   15    15    16    1
   16    15    17    1
   17    15    18    1
   18    18    19    1
   19    18    20    1
   20     1    21    1
   21    18    21    1
   22    21    22    1
   23    21    23    1
   24    13    24    1
   25    24    25    1
@<TRIPOS>SUBSTRUCTURE
       1 MOL1            1 RESIDUE      1      MOL     
@<SCITEGIC>MOL_PROPERTY
VConf Rank
SciTegic.value.IntegerValue
204

@<SCITEGIC>MOL_PROPERTY
Conf_Id
SciTegic.value.IntegerValue
133

@<SCITEGIC>MOL_PROPERTY
Delta U+W
SciTegic.value.DoubleValue
-2.139

@<SCITEGIC>MOL_PROPERTY
U+W
SciTegic.value.DoubleValue
8.774

@<SCITEGIC>MOL_PROPERTY
Grad RMS
SciTegic.value.DoubleValue
0.000000

@<SCITEGIC>MOL_PROPERTY
U
SciTegic.value.DoubleValue
10.905

@<SCITEGIC>MOL_PROPERTY
W
SciTegic.value.DoubleValue
-2.131

@<SCITEGIC>MOL_PROPERTY
W(PB)
SciTegic.value.DoubleValue
-4.281

@<SCITEGIC>MOL_PROPERTY
W(SA)
SciTegic.value.DoubleValue
2.150

@<SCITEGIC>MOL_PROPERTY
Valence
SciTegic.value.DoubleValue
16.378

@<SCITEGIC>MOL_PROPERTY
Coulomb
SciTegic.value.DoubleValue
-8.448

@<SCITEGIC>MOL_PROPERTY
VdW
SciTegic.value.DoubleValue
2.976

@<SCITEGIC>MOL_PROPERTY
VdW6
SciTegic.value.DoubleValue
-12.570

@<SCITEGIC>MOL_PROPERTY
VdW12
SciTegic.value.DoubleValue
15.545

@<SCITEGIC>MOL_PROPERTY
Bond
SciTegic.value.DoubleValue
0.439

@<SCITEGIC>MOL_PROPERTY
Angle
SciTegic.value.DoubleValue
5.049

@<SCITEGIC>MOL_PROPERTY
Pdih
SciTegic.value.DoubleValue
10.889

@<SCITEGIC>MOL_PROPERTY
Idih
SciTegic.value.DoubleValue
0.000

@<SCITEGIC>MOL_PROPERTY
Tether
SciTegic.value.DoubleValue
0.000

@<TRIPOS>MOLECULE
guest-s17_confgen4.mol2 : confsearch ligand conformer 205
          25          25           1
SMALL
USER_CHARGES
 
@<TRIPOS>ATOM
       1    C1      18.996681   18.106651   23.309049 C.3        1 MOL1        -0.1684
       2    H1      18.192267   17.499868   23.747019 H          1 MOL1         0.0833
       3    H2      19.611591   17.385281   22.759217 H          1 MOL1         0.0833
       4    C2      19.806687   18.740932   24.469695 C.3        1 MOL1        -0.1684
       5    H3      19.446818   19.752696   24.696492 H          1 MOL1         0.0833
       6    H4      19.599909   18.154604   25.375495 H          1 MOL1         0.0833
       7    C3      21.345104   18.736175   24.269385 C.3        1 MOL1        -0.1684
       8    H5      21.686494   17.706863   24.093433 H          1 MOL1         0.0833
       9    H6      21.806302   19.040965   25.218686 H          1 MOL1         0.0833
      10    C4      21.905371   19.659516   23.154695 C.3        1 MOL1        -0.1760
      11    H7      21.602270   20.698771   23.328468 H          1 MOL1         0.0833
      12    H8      22.998785   19.659617   23.259468 H          1 MOL1         0.0833
      13    C5      21.551869   19.215249   21.711835 C.3        1 MOL1         0.1219
      14    H9      21.270081   18.155867   21.724571 H          1 MOL1         0.0790
      15    C6      20.422626   20.036270   21.042146 C.3        1 MOL1        -0.1760
      16    H10     20.842582   20.999295   20.721621 H          1 MOL1         0.0833
      17    H11     20.110894   19.521429   20.124280 H          1 MOL1         0.0833
      18    C7      19.165618   20.339926   21.897569 C.3        1 MOL1        -0.1684
      19    H12     18.510296   20.986106   21.297816 H          1 MOL1         0.0833
      20    H13     19.432911   20.949664   22.768240 H          1 MOL1         0.0833
      21    C8      18.327915   19.112730   22.336416 C.3        1 MOL1        -0.1684
      22    H14     17.981746   18.571283   21.445590 H          1 MOL1         0.0833
      23    H15     17.419369   19.493734   22.822609 H          1 MOL1         0.0833
      24    O1      22.713669   19.348189   20.900626 O.3        1 MOL1        -0.5508
      25    H16     22.474514   19.019232   20.008982 H          1 MOL1         0.3780
@<TRIPOS>BOND
    1     1     2    1
    2     1     3    1
    3     1     4    1
    4     4     5    1
    5     4     6    1
    6     4     7    1
    7     7     8    1
    8     7     9    1
    9     7    10    1
   10    10    11    1
   11    10    12    1
   12    10    13    1
   13    13    14    1
   14    13    15    1
   15    15    16    1
   16    15    17    1
   17    15    18    1
   18    18    19    1
   19    18    20    1
   20     1    21    1
   21    18    21    1
   22    21    22    1
   23    21    23    1
   24    13    24    1
   25    24    25    1
@<TRIPOS>SUBSTRUCTURE
       1 MOL1            1 RESIDUE      1      MOL     
@<SCITEGIC>MOL_PROPERTY
VConf Rank
SciTegic.value.IntegerValue
205

@<SCITEGIC>MOL_PROPERTY
Conf_Id
SciTegic.value.IntegerValue
95

@<SCITEGIC>MOL_PROPERTY
Delta U+W
SciTegic.value.DoubleValue
-2.190

@<SCITEGIC>MOL_PROPERTY
U+W
SciTegic.value.DoubleValue
8.723

@<SCITEGIC>MOL_PROPERTY
Grad RMS
SciTegic.value.DoubleValue
0.000000

@<SCITEGIC>MOL_PROPERTY
U
SciTegic.value.DoubleValue
10.905

@<SCITEGIC>MOL_PROPERTY
W
SciTegic.value.DoubleValue
-2.182

@<SCITEGIC>MOL_PROPERTY
W(PB)
SciTegic.value.DoubleValue
-4.296

@<SCITEGIC>MOL_PROPERTY
W(SA)
SciTegic.value.DoubleValue
2.114

@<SCITEGIC>MOL_PROPERTY
Valence
SciTegic.value.DoubleValue
16.377

@<SCITEGIC>MOL_PROPERTY
Coulomb
SciTegic.value.DoubleValue
-8.448

@<SCITEGIC>MOL_PROPERTY
VdW
SciTegic.value.DoubleValue
2.976

@<SCITEGIC>MOL_PROPERTY
VdW6
SciTegic.value.DoubleValue
-12.570

@<SCITEGIC>MOL_PROPERTY
VdW12
SciTegic.value.DoubleValue
15.546

@<SCITEGIC>MOL_PROPERTY
Bond
SciTegic.value.DoubleValue
0.439

@<SCITEGIC>MOL_PROPERTY
Angle
SciTegic.value.DoubleValue
5.049

@<SCITEGIC>MOL_PROPERTY
Pdih
SciTegic.value.DoubleValue
10.889

@<SCITEGIC>MOL_PROPERTY
Idih
SciTegic.value.DoubleValue
0.000

@<SCITEGIC>MOL_PROPERTY
Tether
SciTegic.value.DoubleValue
0.000

@<TRIPOS>MOLECULE
guest-s17_confgen4.mol2 : confsearch ligand conformer 206
          25          25           1
SMALL
USER_CHARGES
 
@<TRIPOS>ATOM
       1    C1      21.305825   19.962203   23.958987 C.3        1 MOL1        -0.1684
       2    H1      21.907461   20.538228   24.675318 H          1 MOL1         0.0833
       3    H2      21.548846   18.922767   24.201370 H          1 MOL1         0.0833
       4    C2      21.812706   20.335547   22.534941 C.3        1 MOL1        -0.1684
       5    H3      22.099735   21.395773   22.556756 H          1 MOL1         0.0833
       6    H4      22.741754   19.785910   22.331866 H          1 MOL1         0.0833
       7    C3      20.839808   20.156508   21.339989 C.3        1 MOL1        -0.1684
       8    H5      21.325713   20.578367   20.449624 H          1 MOL1         0.0833
       9    H6      19.967136   20.801126   21.484698 H          1 MOL1         0.0833
      10    C4      20.403896   18.704831   20.980636 C.3        1 MOL1        -0.1760
      11    H7      19.475390   18.747616   20.396326 H          1 MOL1         0.0833
      12    H8      21.164528   18.300335   20.300134 H          1 MOL1         0.0833
      13    C5      20.230000   17.684266   22.133850 C.3        1 MOL1         0.1219
      14    H9      21.178735   17.620939   22.676720 H          1 MOL1         0.0790
      15    C6      19.072001   17.947174   23.139091 C.3        1 MOL1        -0.1760
      16    H10     18.156816   17.504306   22.723615 H          1 MOL1         0.0833
      17    H11     19.280095   17.385741   24.058753 H          1 MOL1         0.0833
      18    C7      18.733015   19.416089   23.511102 C.3        1 MOL1        -0.1684
      19    H12     17.831215   19.399752   24.138160 H          1 MOL1         0.0833
      20    H13     18.409933   19.951289   22.612631 H          1 MOL1         0.0833
      21    C8      19.812321   20.230386   24.282806 C.3        1 MOL1        -0.1684
      22    H14     19.675220   20.025661   25.353394 H          1 MOL1         0.0833
      23    H15     19.603162   21.301782   24.161121 H          1 MOL1         0.0833
      24    O1      19.995968   16.411166   21.543038 O.3        1 MOL1        -0.5508
      25    H16     20.761802   16.224184   20.961151 H          1 MOL1         0.3780
@<TRIPOS>BOND
    1     1     2    1
    2     1     3    1
    3     1     4    1
    4     4     5    1
    5     4     6    1
    6     4     7    1
    7     7     8    1
    8     7     9    1
    9     7    10    1
   10    10    11    1
   11    10    12    1
   12    10    13    1
   13    13    14    1
   14    13    15    1
   15    15    16    1
   16    15    17    1
   17    15    18    1
   18    18    19    1
   19    18    20    1
   20     1    21    1
   21    18    21    1
   22    21    22    1
   23    21    23    1
   24    13    24    1
   25    24    25    1
@<TRIPOS>SUBSTRUCTURE
       1 MOL1            1 RESIDUE      1      MOL     
@<SCITEGIC>MOL_PROPERTY
VConf Rank
SciTegic.value.IntegerValue
206

@<SCITEGIC>MOL_PROPERTY
Conf_Id
SciTegic.value.IntegerValue
161

@<SCITEGIC>MOL_PROPERTY
Delta U+W
SciTegic.value.DoubleValue
2.120

@<SCITEGIC>MOL_PROPERTY
U+W
SciTegic.value.DoubleValue
13.033

@<SCITEGIC>MOL_PROPERTY
Grad RMS
SciTegic.value.DoubleValue
0.000000

@<SCITEGIC>MOL_PROPERTY
U
SciTegic.value.DoubleValue
15.076

@<SCITEGIC>MOL_PROPERTY
W
SciTegic.value.DoubleValue
-2.043

@<SCITEGIC>MOL_PROPERTY
W(PB)
SciTegic.value.DoubleValue
-4.186

@<SCITEGIC>MOL_PROPERTY
W(SA)
SciTegic.value.DoubleValue
2.143

@<SCITEGIC>MOL_PROPERTY
Valence
SciTegic.value.DoubleValue
18.884

@<SCITEGIC>MOL_PROPERTY
Coulomb
SciTegic.value.DoubleValue
-8.074

@<SCITEGIC>MOL_PROPERTY
VdW
SciTegic.value.DoubleValue
4.266

@<SCITEGIC>MOL_PROPERTY
VdW6
SciTegic.value.DoubleValue
-13.486

@<SCITEGIC>MOL_PROPERTY
VdW12
SciTegic.value.DoubleValue
17.752

@<SCITEGIC>MOL_PROPERTY
Bond
SciTegic.value.DoubleValue
0.713

@<SCITEGIC>MOL_PROPERTY
Angle
SciTegic.value.DoubleValue
8.955

@<SCITEGIC>MOL_PROPERTY
Pdih
SciTegic.value.DoubleValue
9.215

@<SCITEGIC>MOL_PROPERTY
Idih
SciTegic.value.DoubleValue
0.000

@<SCITEGIC>MOL_PROPERTY
Tether
SciTegic.value.DoubleValue
0.000

@<TRIPOS>MOLECULE
guest-s17_confgen4.mol2 : confsearch ligand conformer 207
          25          25           1
SMALL
USER_CHARGES
 
@<TRIPOS>ATOM
       1    C1      19.908288   21.065175   22.104193 C.3        1 MOL1        -0.1684
       2    H1      19.892461   22.064247   21.647473 H          1 MOL1         0.0833
       3    H2      19.228006   21.139299   22.962071 H          1 MOL1         0.0833
       4    C2      21.350626   20.786763   22.595952 C.3        1 MOL1        -0.1684
       5    H3      21.962721   20.361267   21.789429 H          1 MOL1         0.0833
       6    H4      21.804006   21.762020   22.820659 H          1 MOL1         0.0833
       7    C3      21.454802   19.933561   23.890759 C.3        1 MOL1        -0.1684
       8    H5      20.649326   20.181812   24.594937 H          1 MOL1         0.0833
       9    H6      22.383659   20.234243   24.394758 H          1 MOL1         0.0833
      10    C4      21.540442   18.401199   23.669385 C.3        1 MOL1        -0.1760
      11    H7      22.093803   18.188822   22.746533 H          1 MOL1         0.0833
      12    H8      22.159945   17.982286   24.473351 H          1 MOL1         0.0833
      13    C5      20.197432   17.628427   23.700682 C.3        1 MOL1         0.1219
      14    H9      19.830958   17.630612   24.737246 H          1 MOL1         0.0790
      15    C6      19.063514   18.182713   22.807441 C.3        1 MOL1        -0.1760
      16    H10     18.270059   17.425662   22.749231 H          1 MOL1         0.0833
      17    H11     18.593410   19.031841   23.315128 H          1 MOL1         0.0833
      18    C7      19.494691   18.567779   21.366941 C.3        1 MOL1        -0.1684
      19    H12     18.878992   18.005601   20.651678 H          1 MOL1         0.0833
      20    H13     20.523785   18.251300   21.162231 H          1 MOL1         0.0833
      21    C8      19.350178   20.075084   21.047834 C.3        1 MOL1        -0.1684
      22    H14     18.286503   20.302744   20.894289 H          1 MOL1         0.0833
      23    H15     19.839629   20.271082   20.084090 H          1 MOL1         0.0833
      24    O1      20.454342   16.287118   23.309207 O.3        1 MOL1        -0.5508
      25    H16     20.641366   16.319398   22.349108 H          1 MOL1         0.3780
@<TRIPOS>BOND
    1     1     2    1
    2     1     3    1
    3     1     4    1
    4     4     5    1
    5     4     6    1
    6     4     7    1
    7     7     8    1
    8     7     9    1
    9     7    10    1
   10    10    11    1
   11    10    12    1
   12    10    13    1
   13    13    14    1
   14    13    15    1
   15    15    16    1
   16    15    17    1
   17    15    18    1
   18    18    19    1
   19    18    20    1
   20     1    21    1
   21    18    21    1
   22    21    22    1
   23    21    23    1
   24    13    24    1
   25    24    25    1
@<TRIPOS>SUBSTRUCTURE
       1 MOL1            1 RESIDUE      1      MOL     
@<SCITEGIC>MOL_PROPERTY
VConf Rank
SciTegic.value.IntegerValue
207

@<SCITEGIC>MOL_PROPERTY
Conf_Id
SciTegic.value.IntegerValue
164

@<SCITEGIC>MOL_PROPERTY
Delta U+W
SciTegic.value.DoubleValue
0.008

@<SCITEGIC>MOL_PROPERTY
U+W
SciTegic.value.DoubleValue
10.922

@<SCITEGIC>MOL_PROPERTY
Grad RMS
SciTegic.value.DoubleValue
0.000000

@<SCITEGIC>MOL_PROPERTY
U
SciTegic.value.DoubleValue
12.433

@<SCITEGIC>MOL_PROPERTY
W
SciTegic.value.DoubleValue
-1.511

@<SCITEGIC>MOL_PROPERTY
W(PB)
SciTegic.value.DoubleValue
-3.669

@<SCITEGIC>MOL_PROPERTY
W(SA)
SciTegic.value.DoubleValue
2.157

@<SCITEGIC>MOL_PROPERTY
Valence
SciTegic.value.DoubleValue
19.007

@<SCITEGIC>MOL_PROPERTY
Coulomb
SciTegic.value.DoubleValue
-9.373

@<SCITEGIC>MOL_PROPERTY
VdW
SciTegic.value.DoubleValue
2.799

@<SCITEGIC>MOL_PROPERTY
VdW6
SciTegic.value.DoubleValue
-12.597

@<SCITEGIC>MOL_PROPERTY
VdW12
SciTegic.value.DoubleValue
15.396

@<SCITEGIC>MOL_PROPERTY
Bond
SciTegic.value.DoubleValue
0.425

@<SCITEGIC>MOL_PROPERTY
Angle
SciTegic.value.DoubleValue
4.784

@<SCITEGIC>MOL_PROPERTY
Pdih
SciTegic.value.DoubleValue
13.799

@<SCITEGIC>MOL_PROPERTY
Idih
SciTegic.value.DoubleValue
0.000

@<SCITEGIC>MOL_PROPERTY
Tether
SciTegic.value.DoubleValue
0.000

@<TRIPOS>MOLECULE
guest-s17_confgen4.mol2 : confsearch ligand conformer 208
          25          25           1
SMALL
USER_CHARGES
 
@<TRIPOS>ATOM
       1    C1      21.031084   18.786579   24.252423 C.3        1 MOL1        -0.1684
       2    H1      20.080369   18.243131   24.210886 H          1 MOL1         0.0833
       3    H2      21.457019   18.523802   25.230278 H          1 MOL1         0.0833
       4    C2      20.780278   20.315239   24.256035 C.3        1 MOL1        -0.1684
       5    H3      20.173403   20.546786   25.142033 H          1 MOL1         0.0833
       6    H4      21.734215   20.839113   24.404586 H          1 MOL1         0.0833
       7    C3      20.063237   20.916783   23.020414 C.3        1 MOL1        -0.1684
       8    H5      20.779860   21.103757   22.212606 H          1 MOL1         0.0833
       9    H6      19.706283   21.915393   23.307407 H          1 MOL1         0.0833
      10    C4      18.851531   20.101436   22.495289 C.3        1 MOL1        -0.1760
      11    H7      18.421307   19.481110   23.290829 H          1 MOL1         0.0833
      12    H8      18.064752   20.820492   22.230380 H          1 MOL1         0.0833
      13    C5      19.135068   19.254575   21.229230 C.3        1 MOL1         0.1219
      14    H9      19.568373   19.915552   20.465059 H          1 MOL1         0.0790
      15    C6      20.078398   18.038354   21.406468 C.3        1 MOL1        -0.1760
      16    H10     19.688519   17.350166   22.166187 H          1 MOL1         0.0833
      17    H11     20.054657   17.474316   20.464377 H          1 MOL1         0.0833
      18    C7      21.561116   18.397961   21.691090 C.3        1 MOL1        -0.1684
      19    H12     21.792801   19.400420   21.313647 H          1 MOL1         0.0833
      20    H13     22.196894   17.727185   21.097077 H          1 MOL1         0.0833
      21    C8      22.004276   18.256973   23.169771 C.3        1 MOL1        -0.1684
      22    H14     22.983710   18.737970   23.295696 H          1 MOL1         0.0833
      23    H15     22.169837   17.189595   23.370257 H          1 MOL1         0.0833
      24    O1      17.889576   18.767312   20.749102 O.3        1 MOL1        -0.5508
      25    H16     17.532079   18.184806   21.450294 H          1 MOL1         0.3780
@<TRIPOS>BOND
    1     1     2    1
    2     1     3    1
    3     1     4    1
    4     4     5    1
    5     4     6    1
    6     4     7    1
    7     7     8    1
    8     7     9    1
    9     7    10    1
   10    10    11    1
   11    10    12    1
   12    10    13    1
   13    13    14    1
   14    13    15    1
   15    15    16    1
   16    15    17    1
   17    15    18    1
   18    18    19    1
   19    18    20    1
   20     1    21    1
   21    18    21    1
   22    21    22    1
   23    21    23    1
   24    13    24    1
   25    24    25    1
@<TRIPOS>SUBSTRUCTURE
       1 MOL1            1 RESIDUE      1      MOL     
@<SCITEGIC>MOL_PROPERTY
VConf Rank
SciTegic.value.IntegerValue
208

@<SCITEGIC>MOL_PROPERTY
Conf_Id
SciTegic.value.IntegerValue
15

@<SCITEGIC>MOL_PROPERTY
Delta U+W
SciTegic.value.DoubleValue
-1.271

@<SCITEGIC>MOL_PROPERTY
U+W
SciTegic.value.DoubleValue
9.643

@<SCITEGIC>MOL_PROPERTY
Grad RMS
SciTegic.value.DoubleValue
0.000000

@<SCITEGIC>MOL_PROPERTY
U
SciTegic.value.DoubleValue
11.413

@<SCITEGIC>MOL_PROPERTY
W
SciTegic.value.DoubleValue
-1.770

@<SCITEGIC>MOL_PROPERTY
W(PB)
SciTegic.value.DoubleValue
-3.908

@<SCITEGIC>MOL_PROPERTY
W(SA)
SciTegic.value.DoubleValue
2.138

@<SCITEGIC>MOL_PROPERTY
Valence
SciTegic.value.DoubleValue
17.496

@<SCITEGIC>MOL_PROPERTY
Coulomb
SciTegic.value.DoubleValue
-8.736

@<SCITEGIC>MOL_PROPERTY
VdW
SciTegic.value.DoubleValue
2.653

@<SCITEGIC>MOL_PROPERTY
VdW6
SciTegic.value.DoubleValue
-12.485

@<SCITEGIC>MOL_PROPERTY
VdW12
SciTegic.value.DoubleValue
15.138

@<SCITEGIC>MOL_PROPERTY
Bond
SciTegic.value.DoubleValue
0.414

@<SCITEGIC>MOL_PROPERTY
Angle
SciTegic.value.DoubleValue
5.295

@<SCITEGIC>MOL_PROPERTY
Pdih
SciTegic.value.DoubleValue
11.787

@<SCITEGIC>MOL_PROPERTY
Idih
SciTegic.value.DoubleValue
0.000

@<SCITEGIC>MOL_PROPERTY
Tether
SciTegic.value.DoubleValue
0.000

@<TRIPOS>MOLECULE
guest-s17_confgen4.mol2 : confsearch ligand conformer 209
          25          25           1
SMALL
USER_CHARGES
 
@<TRIPOS>ATOM
       1    C1      18.983061   17.872059   22.529829 C.3        1 MOL1        -0.1684
       2    H1      18.359654   16.974534   22.416714 H          1 MOL1         0.0833
       3    H2      18.315543   18.708545   22.287185 H          1 MOL1         0.0833
       4    C2      19.420778   17.935115   24.016857 C.3        1 MOL1        -0.1684
       5    H3      18.526394   18.118012   24.627963 H          1 MOL1         0.0833
       6    H4      19.792441   16.946851   24.320133 H          1 MOL1         0.0833
       7    C3      20.493724   18.989541   24.380593 C.3        1 MOL1        -0.1684
       8    H5      21.483760   18.621910   24.086574 H          1 MOL1         0.0833
       9    H6      20.537399   19.067664   25.475479 H          1 MOL1         0.0833
      10    C4      20.223697   20.398361   23.790876 C.3        1 MOL1        -0.1760
      11    H7      19.225526   20.449728   23.342092 H          1 MOL1         0.0833
      12    H8      20.199213   21.121277   24.616703 H          1 MOL1         0.0833
      13    C5      21.286124   20.883845   22.778048 C.3        1 MOL1         0.1219
      14    H9      22.188961   21.150861   23.345867 H          1 MOL1         0.0790
      15    C6      21.717081   19.870483   21.686328 C.3        1 MOL1        -0.1760
      16    H10     22.333685   20.421279   20.963308 H          1 MOL1         0.0833
      17    H11     22.398047   19.125046   22.114255 H          1 MOL1         0.0833
      18    C7      20.583499   19.155802   20.903217 C.3        1 MOL1        -0.1684
      19    H12     20.974305   18.951806   19.896838 H          1 MOL1         0.0833
      20    H13     19.725608   19.823055   20.749566 H          1 MOL1         0.0833
      21    C8      20.129701   17.791507   21.491898 C.3        1 MOL1        -0.1684
      22    H14     20.982564   17.229144   21.895083 H          1 MOL1         0.0833
      23    H15     19.756872   17.190466   20.651110 H          1 MOL1         0.0833
      24    O1      20.788462   22.050679   22.138331 O.3        1 MOL1        -0.5508
      25    H16     20.048540   21.750974   21.572789 H          1 MOL1         0.3780
@<TRIPOS>BOND
    1     1     2    1
    2     1     3    1
    3     1     4    1
    4     4     5    1
    5     4     6    1
    6     4     7    1
    7     7     8    1
    8     7     9    1
    9     7    10    1
   10    10    11    1
   11    10    12    1
   12    10    13    1
   13    13    14    1
   14    13    15    1
   15    15    16    1
   16    15    17    1
   17    15    18    1
   18    18    19    1
   19    18    20    1
   20     1    21    1
   21    18    21    1
   22    21    22    1
   23    21    23    1
   24    13    24    1
   25    24    25    1
@<TRIPOS>SUBSTRUCTURE
       1 MOL1            1 RESIDUE      1      MOL     
@<SCITEGIC>MOL_PROPERTY
VConf Rank
SciTegic.value.IntegerValue
209

@<SCITEGIC>MOL_PROPERTY
Conf_Id
SciTegic.value.IntegerValue
115

@<SCITEGIC>MOL_PROPERTY
Delta U+W
SciTegic.value.DoubleValue
0.038

@<SCITEGIC>MOL_PROPERTY
U+W
SciTegic.value.DoubleValue
10.952

@<SCITEGIC>MOL_PROPERTY
Grad RMS
SciTegic.value.DoubleValue
0.000000

@<SCITEGIC>MOL_PROPERTY
U
SciTegic.value.DoubleValue
12.526

@<SCITEGIC>MOL_PROPERTY
W
SciTegic.value.DoubleValue
-1.575

@<SCITEGIC>MOL_PROPERTY
W(PB)
SciTegic.value.DoubleValue
-3.698

@<SCITEGIC>MOL_PROPERTY
W(SA)
SciTegic.value.DoubleValue
2.123

@<SCITEGIC>MOL_PROPERTY
Valence
SciTegic.value.DoubleValue
19.016

@<SCITEGIC>MOL_PROPERTY
Coulomb
SciTegic.value.DoubleValue
-9.226

@<SCITEGIC>MOL_PROPERTY
VdW
SciTegic.value.DoubleValue
2.737

@<SCITEGIC>MOL_PROPERTY
VdW6
SciTegic.value.DoubleValue
-12.612

@<SCITEGIC>MOL_PROPERTY
VdW12
SciTegic.value.DoubleValue
15.349

@<SCITEGIC>MOL_PROPERTY
Bond
SciTegic.value.DoubleValue
0.421

@<SCITEGIC>MOL_PROPERTY
Angle
SciTegic.value.DoubleValue
4.883

@<SCITEGIC>MOL_PROPERTY
Pdih
SciTegic.value.DoubleValue
13.711

@<SCITEGIC>MOL_PROPERTY
Idih
SciTegic.value.DoubleValue
0.000

@<SCITEGIC>MOL_PROPERTY
Tether
SciTegic.value.DoubleValue
0.000

@<TRIPOS>MOLECULE
guest-s17_confgen4.mol2 : confsearch ligand conformer 210
          25          25           1
SMALL
USER_CHARGES
 
@<TRIPOS>ATOM
       1    C1      19.706160   17.778329   21.238757 C.3        1 MOL1        -0.1684
       2    H1      19.247468   16.823246   20.948232 H          1 MOL1         0.0833
       3    H2      19.813978   18.348539   20.306174 H          1 MOL1         0.0833
       4    C2      21.099001   17.459286   21.830146 C.3        1 MOL1        -0.1684
       5    H3      20.997412   16.787284   22.693100 H          1 MOL1         0.0833
       6    H4      21.653422   16.886614   21.074062 H          1 MOL1         0.0833
       7    C3      21.949777   18.692954   22.211115 C.3        1 MOL1        -0.1684
       8    H5      21.860347   19.470460   21.440748 H          1 MOL1         0.0833
       9    H6      23.003906   18.383750   22.191941 H          1 MOL1         0.0833
      10    C4      21.655971   19.259338   23.626328 C.3        1 MOL1        -0.1760
      11    H7      21.062071   18.555114   24.222283 H          1 MOL1         0.0833
      12    H8      22.617579   19.346755   24.149996 H          1 MOL1         0.0833
      13    C5      20.985323   20.651518   23.630764 C.3        1 MOL1         0.1219
      14    H9      21.387186   21.242713   22.795500 H          1 MOL1         0.0790
      15    C6      19.443998   20.624482   23.530666 C.3        1 MOL1        -0.1760
      16    H10     19.022097   20.089800   24.391888 H          1 MOL1         0.0833
      17    H11     19.088403   21.659509   23.618323 H          1 MOL1         0.0833
      18    C7      18.874007   20.045420   22.212916 C.3        1 MOL1        -0.1684
      19    H12     19.457858   20.402291   21.353967 H          1 MOL1         0.0833
      20    H13     17.869315   20.469067   22.077464 H          1 MOL1         0.0833
      21    C8      18.731336   18.500938   22.197971 C.3        1 MOL1        -0.1684
      22    H14     17.711239   18.268787   21.862245 H          1 MOL1         0.0833
      23    H15     18.806552   18.080075   23.209428 H          1 MOL1         0.0833
      24    O1      21.322861   21.298792   24.851728 O.3        1 MOL1        -0.5508
      25    H16     20.934576   22.197699   24.812554 H          1 MOL1         0.3780
@<TRIPOS>BOND
    1     1     2    1
    2     1     3    1
    3     1     4    1
    4     4     5    1
    5     4     6    1
    6     4     7    1
    7     7     8    1
    8     7     9    1
    9     7    10    1
   10    10    11    1
   11    10    12    1
   12    10    13    1
   13    13    14    1
   14    13    15    1
   15    15    16    1
   16    15    17    1
   17    15    18    1
   18    18    19    1
   19    18    20    1
   20     1    21    1
   21    18    21    1
   22    21    22    1
   23    21    23    1
   24    13    24    1
   25    24    25    1
@<TRIPOS>SUBSTRUCTURE
       1 MOL1            1 RESIDUE      1      MOL     
@<SCITEGIC>MOL_PROPERTY
VConf Rank
SciTegic.value.IntegerValue
210

@<SCITEGIC>MOL_PROPERTY
Conf_Id
SciTegic.value.IntegerValue
30

@<SCITEGIC>MOL_PROPERTY
Delta U+W
SciTegic.value.DoubleValue
0.000

@<SCITEGIC>MOL_PROPERTY
U+W
SciTegic.value.DoubleValue
10.913

@<SCITEGIC>MOL_PROPERTY
Grad RMS
SciTegic.value.DoubleValue
0.000000

@<SCITEGIC>MOL_PROPERTY
U
SciTegic.value.DoubleValue
13.140

@<SCITEGIC>MOL_PROPERTY
W
SciTegic.value.DoubleValue
-2.227

@<SCITEGIC>MOL_PROPERTY
W(PB)
SciTegic.value.DoubleValue
-4.367

@<SCITEGIC>MOL_PROPERTY
W(SA)
SciTegic.value.DoubleValue
2.140

@<SCITEGIC>MOL_PROPERTY
Valence
SciTegic.value.DoubleValue
19.155

@<SCITEGIC>MOL_PROPERTY
Coulomb
SciTegic.value.DoubleValue
-8.157

@<SCITEGIC>MOL_PROPERTY
VdW
SciTegic.value.DoubleValue
2.142

@<SCITEGIC>MOL_PROPERTY
VdW6
SciTegic.value.DoubleValue
-11.576

@<SCITEGIC>MOL_PROPERTY
VdW12
SciTegic.value.DoubleValue
13.718

@<SCITEGIC>MOL_PROPERTY
Bond
SciTegic.value.DoubleValue
0.294

@<SCITEGIC>MOL_PROPERTY
Angle
SciTegic.value.DoubleValue
3.547

@<SCITEGIC>MOL_PROPERTY
Pdih
SciTegic.value.DoubleValue
15.314

@<SCITEGIC>MOL_PROPERTY
Idih
SciTegic.value.DoubleValue
0.000

@<SCITEGIC>MOL_PROPERTY
Tether
SciTegic.value.DoubleValue
0.000

@<TRIPOS>MOLECULE
guest-s17_confgen4.mol2 : confsearch ligand conformer 211
          25          25           1
SMALL
USER_CHARGES
 
@<TRIPOS>ATOM
       1    C1      20.899250   18.142164   20.923219 C.3        1 MOL1        -0.1684
       2    H1      20.777901   18.313251   19.844859 H          1 MOL1         0.0833
       3    H2      21.388104   17.162697   21.015075 H          1 MOL1         0.0833
       4    C2      19.493849   18.044777   21.566217 C.3        1 MOL1        -0.1684
       5    H3      18.867183   17.418763   20.916397 H          1 MOL1         0.0833
       6    H4      19.557766   17.488256   22.508424 H          1 MOL1         0.0833
       7    C3      18.786854   19.408691   21.770417 C.3        1 MOL1        -0.1684
       8    H5      17.810437   19.378630   21.268031 H          1 MOL1         0.0833
       9    H6      19.334650   20.214886   21.268815 H          1 MOL1         0.0833
      10    C4      18.551328   19.782532   23.255788 C.3        1 MOL1        -0.1760
      11    H7      18.225337   20.830072   23.302145 H          1 MOL1         0.0833
      12    H8      17.709614   19.188020   23.634257 H          1 MOL1         0.0833
      13    C5      19.742524   19.580751   24.225589 C.3        1 MOL1         0.1219
      14    H9      19.904803   18.505676   24.380075 H          1 MOL1         0.0790
      15    C6      21.076400   20.222111   23.770915 C.3        1 MOL1        -0.1760
      16    H10     20.882977   21.129152   23.184046 H          1 MOL1         0.0833
      17    H11     21.612884   20.564672   24.665807 H          1 MOL1         0.0833
      18    C7      22.038660   19.265315   23.011740 C.3        1 MOL1        -0.1684
      19    H12     22.001852   18.250210   23.429623 H          1 MOL1         0.0833
      20    H13     23.059984   19.622271   23.203358 H          1 MOL1         0.0833
      21    C8      21.855095   19.233650   21.474176 C.3        1 MOL1        -0.1684
      22    H14     22.839629   19.054425   21.020701 H          1 MOL1         0.0833
      23    H15     21.557889   20.225930   21.111716 H          1 MOL1         0.0833
      24    O1      19.370290   20.154709   25.473079 O.3        1 MOL1        -0.5508
      25    H16     20.093376   19.953688   26.103310 H          1 MOL1         0.3780
@<TRIPOS>BOND
    1     1     2    1
    2     1     3    1
    3     1     4    1
    4     4     5    1
    5     4     6    1
    6     4     7    1
    7     7     8    1
    8     7     9    1
    9     7    10    1
   10    10    11    1
   11    10    12    1
   12    10    13    1
   13    13    14    1
   14    13    15    1
   15    15    16    1
   16    15    17    1
   17    15    18    1
   18    18    19    1
   19    18    20    1
   20     1    21    1
   21    18    21    1
   22    21    22    1
   23    21    23    1
   24    13    24    1
   25    24    25    1
@<TRIPOS>SUBSTRUCTURE
       1 MOL1            1 RESIDUE      1      MOL     
@<SCITEGIC>MOL_PROPERTY
VConf Rank
SciTegic.value.IntegerValue
211

@<SCITEGIC>MOL_PROPERTY
Conf_Id
SciTegic.value.IntegerValue
162

@<SCITEGIC>MOL_PROPERTY
Delta U+W
SciTegic.value.DoubleValue
0.219

@<SCITEGIC>MOL_PROPERTY
U+W
SciTegic.value.DoubleValue
11.132

@<SCITEGIC>MOL_PROPERTY
Grad RMS
SciTegic.value.DoubleValue
0.000000

@<SCITEGIC>MOL_PROPERTY
U
SciTegic.value.DoubleValue
13.296

@<SCITEGIC>MOL_PROPERTY
W
SciTegic.value.DoubleValue
-2.164

@<SCITEGIC>MOL_PROPERTY
W(PB)
SciTegic.value.DoubleValue
-4.311

@<SCITEGIC>MOL_PROPERTY
W(SA)
SciTegic.value.DoubleValue
2.148

@<SCITEGIC>MOL_PROPERTY
Valence
SciTegic.value.DoubleValue
18.607

@<SCITEGIC>MOL_PROPERTY
Coulomb
SciTegic.value.DoubleValue
-8.339

@<SCITEGIC>MOL_PROPERTY
VdW
SciTegic.value.DoubleValue
3.028

@<SCITEGIC>MOL_PROPERTY
VdW6
SciTegic.value.DoubleValue
-12.271

@<SCITEGIC>MOL_PROPERTY
VdW12
SciTegic.value.DoubleValue
15.299

@<SCITEGIC>MOL_PROPERTY
Bond
SciTegic.value.DoubleValue
0.423

@<SCITEGIC>MOL_PROPERTY
Angle
SciTegic.value.DoubleValue
4.488

@<SCITEGIC>MOL_PROPERTY
Pdih
SciTegic.value.DoubleValue
13.696

@<SCITEGIC>MOL_PROPERTY
Idih
SciTegic.value.DoubleValue
0.000

@<SCITEGIC>MOL_PROPERTY
Tether
SciTegic.value.DoubleValue
0.000

@<TRIPOS>MOLECULE
guest-s17_confgen4.mol2 : confsearch ligand conformer 212
          25          25           1
SMALL
USER_CHARGES
 
@<TRIPOS>ATOM
       1    C1      21.483926   18.795458   21.078261 C.3        1 MOL1        -0.1684
       2    H1      21.488123   19.867759   20.845136 H          1 MOL1         0.0833
       3    H2      22.121038   18.339345   20.308187 H          1 MOL1         0.0833
       4    C2      22.149564   18.551341   22.455590 C.3        1 MOL1        -0.1684
       5    H3      21.849984   17.577771   22.866254 H          1 MOL1         0.0833
       6    H4      23.230674   18.471072   22.276994 H          1 MOL1         0.0833
       7    C3      21.948794   19.686366   23.498169 C.3        1 MOL1        -0.1684
       8    H5      21.970840   20.674166   23.018656 H          1 MOL1         0.0833
       9    H6      22.824369   19.666172   24.161563 H          1 MOL1         0.0833
      10    C4      20.697560   19.539991   24.402700 C.3        1 MOL1        -0.1760
      11    H7      20.498593   18.478969   24.597479 H          1 MOL1         0.0833
      12    H8      20.941763   19.966489   25.384371 H          1 MOL1         0.0833
      13    C5      19.411068   20.255499   23.918643 C.3        1 MOL1         0.1219
      14    H9      19.566552   21.338447   24.028823 H          1 MOL1         0.0790
      15    C6      18.994762   19.997757   22.450885 C.3        1 MOL1        -0.1760
      16    H10     17.976597   20.380840   22.303960 H          1 MOL1         0.0833
      17    H11     19.615460   20.614111   21.791781 H          1 MOL1         0.0833
      18    C7      19.034734   18.508901   22.015931 C.3        1 MOL1        -0.1684
      19    H12     18.038182   18.219140   21.656373 H          1 MOL1         0.0833
      20    H13     19.222098   17.854785   22.875662 H          1 MOL1         0.0833
      21    C8      20.061211   18.202379   20.898715 C.3        1 MOL1        -0.1684
      22    H14     19.659056   18.563296   19.942289 H          1 MOL1         0.0833
      23    H15     20.141675   17.111635   20.796164 H          1 MOL1         0.0833
      24    O1      18.343992   19.853677   24.769518 O.3        1 MOL1        -0.5508
      25    H16     17.540093   20.311953   24.448818 H          1 MOL1         0.3780
@<TRIPOS>BOND
    1     1     2    1
    2     1     3    1
    3     1     4    1
    4     4     5    1
    5     4     6    1
    6     4     7    1
    7     7     8    1
    8     7     9    1
    9     7    10    1
   10    10    11    1
   11    10    12    1
   12    10    13    1
   13    13    14    1
   14    13    15    1
   15    15    16    1
   16    15    17    1
   17    15    18    1
   18    18    19    1
   19    18    20    1
   20     1    21    1
   21    18    21    1
   22    21    22    1
   23    21    23    1
   24    13    24    1
   25    24    25    1
@<TRIPOS>SUBSTRUCTURE
       1 MOL1            1 RESIDUE      1      MOL     
@<SCITEGIC>MOL_PROPERTY
VConf Rank
SciTegic.value.IntegerValue
212

@<SCITEGIC>MOL_PROPERTY
Conf_Id
SciTegic.value.IntegerValue
155

@<SCITEGIC>MOL_PROPERTY
Delta U+W
SciTegic.value.DoubleValue
0.339

@<SCITEGIC>MOL_PROPERTY
U+W
SciTegic.value.DoubleValue
11.252

@<SCITEGIC>MOL_PROPERTY
Grad RMS
SciTegic.value.DoubleValue
0.000000

@<SCITEGIC>MOL_PROPERTY
U
SciTegic.value.DoubleValue
13.420

@<SCITEGIC>MOL_PROPERTY
W
SciTegic.value.DoubleValue
-2.167

@<SCITEGIC>MOL_PROPERTY
W(PB)
SciTegic.value.DoubleValue
-4.325

@<SCITEGIC>MOL_PROPERTY
W(SA)
SciTegic.value.DoubleValue
2.157

@<SCITEGIC>MOL_PROPERTY
Valence
SciTegic.value.DoubleValue
18.609

@<SCITEGIC>MOL_PROPERTY
Coulomb
SciTegic.value.DoubleValue
-8.052

@<SCITEGIC>MOL_PROPERTY
VdW
SciTegic.value.DoubleValue
2.863

@<SCITEGIC>MOL_PROPERTY
VdW6
SciTegic.value.DoubleValue
-12.524

@<SCITEGIC>MOL_PROPERTY
VdW12
SciTegic.value.DoubleValue
15.387

@<SCITEGIC>MOL_PROPERTY
Bond
SciTegic.value.DoubleValue
0.430

@<SCITEGIC>MOL_PROPERTY
Angle
SciTegic.value.DoubleValue
4.724

@<SCITEGIC>MOL_PROPERTY
Pdih
SciTegic.value.DoubleValue
13.455

@<SCITEGIC>MOL_PROPERTY
Idih
SciTegic.value.DoubleValue
0.000

@<SCITEGIC>MOL_PROPERTY
Tether
SciTegic.value.DoubleValue
0.000

@<TRIPOS>MOLECULE
guest-s17_confgen4.mol2 : confsearch ligand conformer 213
          25          25           1
SMALL
USER_CHARGES
 
@<TRIPOS>ATOM
       1    C1      20.950627   17.360899   22.217513 C.3        1 MOL1        -0.1684
       2    H1      21.405743   16.811126   23.052354 H          1 MOL1         0.0833
       3    H2      20.962341   16.664491   21.368007 H          1 MOL1         0.0833
       4    C2      19.461505   17.646990   22.545364 C.3        1 MOL1        -0.1684
       5    H3      18.977029   18.089624   21.669294 H          1 MOL1         0.0833
       6    H4      18.954523   16.678941   22.657461 H          1 MOL1         0.0833
       7    C3      19.152700   18.475675   23.826432 C.3        1 MOL1        -0.1684
       8    H5      19.109874   17.773505   24.670041 H          1 MOL1         0.0833
       9    H6      18.141458   18.896567   23.743008 H          1 MOL1         0.0833
      10    C4      20.141923   19.604483   24.225347 C.3        1 MOL1        -0.1760
      11    H7      19.838386   19.972175   25.214269 H          1 MOL1         0.0833
      12    H8      21.126974   19.168849   24.414165 H          1 MOL1         0.0833
      13    C5      20.267487   20.833810   23.278091 C.3        1 MOL1         0.1219
      14    H9      21.248822   21.295956   23.457455 H          1 MOL1         0.0790
      15    C6      20.129323   20.586107   21.754906 C.3        1 MOL1        -0.1760
      16    H10     19.133449   20.184064   21.547261 H          1 MOL1         0.0833
      17    H11     20.120828   21.566592   21.260737 H          1 MOL1         0.0833
      18    C7      21.228768   19.733870   21.052610 C.3        1 MOL1        -0.1684
      19    H12     22.044657   20.414763   20.774136 H          1 MOL1         0.0833
      20    H13     20.829564   19.352054   20.103308 H          1 MOL1         0.0833
      21    C8      21.867189   18.563132   21.845376 C.3        1 MOL1        -0.1684
      22    H14     22.371550   18.957706   22.733018 H          1 MOL1         0.0833
      23    H15     22.691642   18.163580   21.239148 H          1 MOL1         0.0833
      24    O1      19.255514   21.767523   23.639029 O.3        1 MOL1        -0.5508
      25    H16     19.376850   21.962390   24.591157 H          1 MOL1         0.3780
@<TRIPOS>BOND
    1     1     2    1
    2     1     3    1
    3     1     4    1
    4     4     5    1
    5     4     6    1
    6     4     7    1
    7     7     8    1
    8     7     9    1
    9     7    10    1
   10    10    11    1
   11    10    12    1
   12    10    13    1
   13    13    14    1
   14    13    15    1
   15    15    16    1
   16    15    17    1
   17    15    18    1
   18    18    19    1
   19    18    20    1
   20     1    21    1
   21    18    21    1
   22    21    22    1
   23    21    23    1
   24    13    24    1
   25    24    25    1
@<TRIPOS>SUBSTRUCTURE
       1 MOL1            1 RESIDUE      1      MOL     
@<SCITEGIC>MOL_PROPERTY
VConf Rank
SciTegic.value.IntegerValue
213

@<SCITEGIC>MOL_PROPERTY
Conf_Id
SciTegic.value.IntegerValue
146

@<SCITEGIC>MOL_PROPERTY
Delta U+W
SciTegic.value.DoubleValue
2.553

@<SCITEGIC>MOL_PROPERTY
U+W
SciTegic.value.DoubleValue
13.466

@<SCITEGIC>MOL_PROPERTY
Grad RMS
SciTegic.value.DoubleValue
0.000000

@<SCITEGIC>MOL_PROPERTY
U
SciTegic.value.DoubleValue
15.643

@<SCITEGIC>MOL_PROPERTY
W
SciTegic.value.DoubleValue
-2.176

@<SCITEGIC>MOL_PROPERTY
W(PB)
SciTegic.value.DoubleValue
-4.307

@<SCITEGIC>MOL_PROPERTY
W(SA)
SciTegic.value.DoubleValue
2.131

@<SCITEGIC>MOL_PROPERTY
Valence
SciTegic.value.DoubleValue
18.916

@<SCITEGIC>MOL_PROPERTY
Coulomb
SciTegic.value.DoubleValue
-7.506

@<SCITEGIC>MOL_PROPERTY
VdW
SciTegic.value.DoubleValue
4.232

@<SCITEGIC>MOL_PROPERTY
VdW6
SciTegic.value.DoubleValue
-13.632

@<SCITEGIC>MOL_PROPERTY
VdW12
SciTegic.value.DoubleValue
17.864

@<SCITEGIC>MOL_PROPERTY
Bond
SciTegic.value.DoubleValue
0.735

@<SCITEGIC>MOL_PROPERTY
Angle
SciTegic.value.DoubleValue
9.140

@<SCITEGIC>MOL_PROPERTY
Pdih
SciTegic.value.DoubleValue
9.042

@<SCITEGIC>MOL_PROPERTY
Idih
SciTegic.value.DoubleValue
0.000

@<SCITEGIC>MOL_PROPERTY
Tether
SciTegic.value.DoubleValue
0.000

@<TRIPOS>MOLECULE
guest-s17_confgen4.mol2 : confsearch ligand conformer 214
          25          25           1
SMALL
USER_CHARGES
 
@<TRIPOS>ATOM
       1    C1      22.204744   18.704366   23.320805 C.3        1 MOL1        -0.1684
       2    H1      22.784481   17.896794   22.853646 H          1 MOL1         0.0833
       3    H2      22.834155   19.087669   24.135564 H          1 MOL1         0.0833
       4    C2      20.926777   18.110229   23.964187 C.3        1 MOL1        -0.1684
       5    H3      21.251062   17.389110   24.726832 H          1 MOL1         0.0833
       6    H4      20.388678   18.882148   24.526091 H          1 MOL1         0.0833
       7    C3      19.964210   17.364284   23.006370 C.3        1 MOL1        -0.1684
       8    H5      19.177447   16.904666   23.620159 H          1 MOL1         0.0833
       9    H6      20.498035   16.529453   22.532523 H          1 MOL1         0.0833
      10    C4      19.273087   18.209947   21.905050 C.3        1 MOL1        -0.1760
      11    H7      19.945760   18.346990   21.052524 H          1 MOL1         0.0833
      12    H8      18.445536   17.607176   21.507103 H          1 MOL1         0.0833
      13    C5      18.720569   19.579793   22.376559 C.3        1 MOL1         0.1219
      14    H9      18.594861   19.570387   23.467592 H          1 MOL1         0.0790
      15    C6      19.598737   20.790817   21.971585 C.3        1 MOL1        -0.1760
      16    H10     19.750013   20.778782   20.884069 H          1 MOL1         0.0833
      17    H11     19.030900   21.706619   22.181845 H          1 MOL1         0.0833
      18    C7      20.974196   20.928335   22.679261 C.3        1 MOL1        -0.1684
      19    H12     20.848549   20.982353   23.768340 H          1 MOL1         0.0833
      20    H13     21.387221   21.904388   22.389927 H          1 MOL1         0.0833
      21    C8      22.016906   19.848299   22.290977 C.3        1 MOL1        -0.1684
      22    H14     22.992030   20.341030   22.175274 H          1 MOL1         0.0833
      23    H15     21.797938   19.441480   21.297310 H          1 MOL1         0.0833
      24    O1      17.440744   19.768060   21.783304 O.3        1 MOL1        -0.5508
      25    H16     17.084464   20.608721   22.139076 H          1 MOL1         0.3780
@<TRIPOS>BOND
    1     1     2    1
    2     1     3    1
    3     1     4    1
    4     4     5    1
    5     4     6    1
    6     4     7    1
    7     7     8    1
    8     7     9    1
    9     7    10    1
   10    10    11    1
   11    10    12    1
   12    10    13    1
   13    13    14    1
   14    13    15    1
   15    15    16    1
   16    15    17    1
   17    15    18    1
   18    18    19    1
   19    18    20    1
   20     1    21    1
   21    18    21    1
   22    21    22    1
   23    21    23    1
   24    13    24    1
   25    24    25    1
@<TRIPOS>SUBSTRUCTURE
       1 MOL1            1 RESIDUE      1      MOL     
@<SCITEGIC>MOL_PROPERTY
VConf Rank
SciTegic.value.IntegerValue
214

@<SCITEGIC>MOL_PROPERTY
Conf_Id
SciTegic.value.IntegerValue
62

@<SCITEGIC>MOL_PROPERTY
Delta U+W
SciTegic.value.DoubleValue
-1.779

@<SCITEGIC>MOL_PROPERTY
U+W
SciTegic.value.DoubleValue
9.134

@<SCITEGIC>MOL_PROPERTY
Grad RMS
SciTegic.value.DoubleValue
0.000000

@<SCITEGIC>MOL_PROPERTY
U
SciTegic.value.DoubleValue
11.364

@<SCITEGIC>MOL_PROPERTY
W
SciTegic.value.DoubleValue
-2.230

@<SCITEGIC>MOL_PROPERTY
W(PB)
SciTegic.value.DoubleValue
-4.359

@<SCITEGIC>MOL_PROPERTY
W(SA)
SciTegic.value.DoubleValue
2.129

@<SCITEGIC>MOL_PROPERTY
Valence
SciTegic.value.DoubleValue
16.582

@<SCITEGIC>MOL_PROPERTY
Coulomb
SciTegic.value.DoubleValue
-8.150

@<SCITEGIC>MOL_PROPERTY
VdW
SciTegic.value.DoubleValue
2.933

@<SCITEGIC>MOL_PROPERTY
VdW6
SciTegic.value.DoubleValue
-12.531

@<SCITEGIC>MOL_PROPERTY
VdW12
SciTegic.value.DoubleValue
15.464

@<SCITEGIC>MOL_PROPERTY
Bond
SciTegic.value.DoubleValue
0.439

@<SCITEGIC>MOL_PROPERTY
Angle
SciTegic.value.DoubleValue
5.099

@<SCITEGIC>MOL_PROPERTY
Pdih
SciTegic.value.DoubleValue
11.044

@<SCITEGIC>MOL_PROPERTY
Idih
SciTegic.value.DoubleValue
0.000

@<SCITEGIC>MOL_PROPERTY
Tether
SciTegic.value.DoubleValue
0.000

@<TRIPOS>MOLECULE
guest-s17_confgen4.mol2 : confsearch ligand conformer 215
          25          25           1
SMALL
USER_CHARGES
 
@<TRIPOS>ATOM
       1    C1      21.347140   19.831155   21.212906 C.3        1 MOL1        -0.1684
       2    H1      22.107377   19.443043   21.900316 H          1 MOL1         0.0833
       3    H2      21.919042   20.222983   20.360826 H          1 MOL1         0.0833
       4    C2      20.599237   21.026763   21.853856 C.3        1 MOL1        -0.1684
       5    H3      21.345439   21.803284   22.070845 H          1 MOL1         0.0833
       6    H4      19.918386   21.467925   21.113374 H          1 MOL1         0.0833
       7    C3      19.811000   20.749215   23.159371 C.3        1 MOL1        -0.1684
       8    H5      18.821689   20.336691   22.931161 H          1 MOL1         0.0833
       9    H6      19.601952   21.722476   23.624222 H          1 MOL1         0.0833
      10    C4      20.544196   19.861950   24.200764 C.3        1 MOL1        -0.1760
      11    H7      21.631442   19.908372   24.062949 H          1 MOL1         0.0833
      12    H8      20.358930   20.302127   25.189331 H          1 MOL1         0.0833
      13    C5      20.066259   18.388839   24.254737 C.3        1 MOL1         0.1219
      14    H9      18.974513   18.385294   24.385353 H          1 MOL1         0.0790
      15    C6      20.406748   17.508908   23.026039 C.3        1 MOL1        -0.1760
      16    H10     21.490153   17.487086   22.857080 H          1 MOL1         0.0833
      17    H11     20.134852   16.477355   23.286386 H          1 MOL1         0.0833
      18    C7      19.643311   17.874929   21.724977 C.3        1 MOL1        -0.1684
      19    H12     18.707106   18.393030   21.961698 H          1 MOL1         0.0833
      20    H13     19.325641   16.941779   21.239935 H          1 MOL1         0.0833
      21    C8      20.460907   18.677424   20.680725 C.3        1 MOL1        -0.1684
      22    H14     19.776302   19.068582   19.916006 H          1 MOL1         0.0833
      23    H15     21.119842   17.971872   20.156434 H          1 MOL1         0.0833
      24    O1      20.664325   17.782660   25.393723 O.3        1 MOL1        -0.5508
      25    H16     20.386404   18.307990   26.172785 H          1 MOL1         0.3780
@<TRIPOS>BOND
    1     1     2    1
    2     1     3    1
    3     1     4    1
    4     4     5    1
    5     4     6    1
    6     4     7    1
    7     7     8    1
    8     7     9    1
    9     7    10    1
   10    10    11    1
   11    10    12    1
   12    10    13    1
   13    13    14    1
   14    13    15    1
   15    15    16    1
   16    15    17    1
   17    15    18    1
   18    18    19    1
   19    18    20    1
   20     1    21    1
   21    18    21    1
   22    21    22    1
   23    21    23    1
   24    13    24    1
   25    24    25    1
@<TRIPOS>SUBSTRUCTURE
       1 MOL1            1 RESIDUE      1      MOL     
@<SCITEGIC>MOL_PROPERTY
VConf Rank
SciTegic.value.IntegerValue
215

@<SCITEGIC>MOL_PROPERTY
Conf_Id
SciTegic.value.IntegerValue
121

@<SCITEGIC>MOL_PROPERTY
Delta U+W
SciTegic.value.DoubleValue
-1.283

@<SCITEGIC>MOL_PROPERTY
U+W
SciTegic.value.DoubleValue
9.630

@<SCITEGIC>MOL_PROPERTY
Grad RMS
SciTegic.value.DoubleValue
0.000000

@<SCITEGIC>MOL_PROPERTY
U
SciTegic.value.DoubleValue
11.876

@<SCITEGIC>MOL_PROPERTY
W
SciTegic.value.DoubleValue
-2.246

@<SCITEGIC>MOL_PROPERTY
W(PB)
SciTegic.value.DoubleValue
-4.376

@<SCITEGIC>MOL_PROPERTY
W(SA)
SciTegic.value.DoubleValue
2.130

@<SCITEGIC>MOL_PROPERTY
Valence
SciTegic.value.DoubleValue
17.153

@<SCITEGIC>MOL_PROPERTY
Coulomb
SciTegic.value.DoubleValue
-7.966

@<SCITEGIC>MOL_PROPERTY
VdW
SciTegic.value.DoubleValue
2.689

@<SCITEGIC>MOL_PROPERTY
VdW6
SciTegic.value.DoubleValue
-12.458

@<SCITEGIC>MOL_PROPERTY
VdW12
SciTegic.value.DoubleValue
15.147

@<SCITEGIC>MOL_PROPERTY
Bond
SciTegic.value.DoubleValue
0.421

@<SCITEGIC>MOL_PROPERTY
Angle
SciTegic.value.DoubleValue
5.258

@<SCITEGIC>MOL_PROPERTY
Pdih
SciTegic.value.DoubleValue
11.475

@<SCITEGIC>MOL_PROPERTY
Idih
SciTegic.value.DoubleValue
0.000

@<SCITEGIC>MOL_PROPERTY
Tether
SciTegic.value.DoubleValue
0.000

@<TRIPOS>MOLECULE
guest-s17_confgen4.mol2 : confsearch ligand conformer 216
          25          25           1
SMALL
USER_CHARGES
 
@<TRIPOS>ATOM
       1    C1      21.296003   17.660230   22.508048 C.3        1 MOL1        -0.1684
       2    H1      21.038079   17.712868   23.571923 H          1 MOL1         0.0833
       3    H2      21.840845   16.712293   22.402212 H          1 MOL1         0.0833
       4    C2      22.276945   18.799092   22.133257 C.3        1 MOL1        -0.1684
       5    H3      23.178671   18.671602   22.747684 H          1 MOL1         0.0833
       6    H4      22.605290   18.667866   21.093328 H          1 MOL1         0.0833
       7    C3      21.776505   20.253881   22.323184 C.3        1 MOL1        -0.1684
       8    H5      21.183614   20.573078   21.458580 H          1 MOL1         0.0833
       9    H6      22.660811   20.905519   22.305349 H          1 MOL1         0.0833
      10    C4      21.003496   20.522530   23.642221 C.3        1 MOL1        -0.1760
      11    H7      21.279506   19.798087   24.417972 H          1 MOL1         0.0833
      12    H8      21.337235   21.496056   24.025203 H          1 MOL1         0.0833
      13    C5      19.463324   20.599911   23.494586 C.3        1 MOL1         0.1219
      14    H9      19.232005   21.332339   22.707806 H          1 MOL1         0.0790
      15    C6      18.736557   19.274520   23.153214 C.3        1 MOL1        -0.1760
      16    H10     18.949206   18.512849   23.913404 H          1 MOL1         0.0833
      17    H11     17.657843   19.464567   23.228070 H          1 MOL1         0.0833
      18    C7      19.007820   18.729358   21.725445 C.3        1 MOL1        -0.1684
      19    H12     19.311925   19.541235   21.055094 H          1 MOL1         0.0833
      20    H13     18.056674   18.370902   21.308486 H          1 MOL1         0.0833
      21    C8      20.013480   17.552477   21.645969 C.3        1 MOL1        -0.1684
      22    H14     20.294333   17.393930   20.595980 H          1 MOL1         0.0833
      23    H15     19.486305   16.639028   21.953517 H          1 MOL1         0.0833
      24    O1      18.938774   21.074211   24.728405 O.3        1 MOL1        -0.5508
      25    H16     17.973320   21.184144   24.602055 H          1 MOL1         0.3780
@<TRIPOS>BOND
    1     1     2    1
    2     1     3    1
    3     1     4    1
    4     4     5    1
    5     4     6    1
    6     4     7    1
    7     7     8    1
    8     7     9    1
    9     7    10    1
   10    10    11    1
   11    10    12    1
   12    10    13    1
   13    13    14    1
   14    13    15    1
   15    15    16    1
   16    15    17    1
   17    15    18    1
   18    18    19    1
   19    18    20    1
   20     1    21    1
   21    18    21    1
   22    21    22    1
   23    21    23    1
   24    13    24    1
   25    24    25    1
@<TRIPOS>SUBSTRUCTURE
       1 MOL1            1 RESIDUE      1      MOL     
@<SCITEGIC>MOL_PROPERTY
VConf Rank
SciTegic.value.IntegerValue
216

@<SCITEGIC>MOL_PROPERTY
Conf_Id
SciTegic.value.IntegerValue
24

@<SCITEGIC>MOL_PROPERTY
Delta U+W
SciTegic.value.DoubleValue
-1.236

@<SCITEGIC>MOL_PROPERTY
U+W
SciTegic.value.DoubleValue
9.678

@<SCITEGIC>MOL_PROPERTY
Grad RMS
SciTegic.value.DoubleValue
0.000000

@<SCITEGIC>MOL_PROPERTY
U
SciTegic.value.DoubleValue
11.876

@<SCITEGIC>MOL_PROPERTY
W
SciTegic.value.DoubleValue
-2.199

@<SCITEGIC>MOL_PROPERTY
W(PB)
SciTegic.value.DoubleValue
-4.335

@<SCITEGIC>MOL_PROPERTY
W(SA)
SciTegic.value.DoubleValue
2.137

@<SCITEGIC>MOL_PROPERTY
Valence
SciTegic.value.DoubleValue
17.153

@<SCITEGIC>MOL_PROPERTY
Coulomb
SciTegic.value.DoubleValue
-7.966

@<SCITEGIC>MOL_PROPERTY
VdW
SciTegic.value.DoubleValue
2.689

@<SCITEGIC>MOL_PROPERTY
VdW6
SciTegic.value.DoubleValue
-12.458

@<SCITEGIC>MOL_PROPERTY
VdW12
SciTegic.value.DoubleValue
15.147

@<SCITEGIC>MOL_PROPERTY
Bond
SciTegic.value.DoubleValue
0.421

@<SCITEGIC>MOL_PROPERTY
Angle
SciTegic.value.DoubleValue
5.258

@<SCITEGIC>MOL_PROPERTY
Pdih
SciTegic.value.DoubleValue
11.475

@<SCITEGIC>MOL_PROPERTY
Idih
SciTegic.value.DoubleValue
0.000

@<SCITEGIC>MOL_PROPERTY
Tether
SciTegic.value.DoubleValue
0.000

@<TRIPOS>MOLECULE
guest-s17_confgen4.mol2 : confsearch ligand conformer 217
          25          25           1
SMALL
USER_CHARGES
 
@<TRIPOS>ATOM
       1    C1      19.412755   20.108229   20.901940 C.3        1 MOL1        -0.1684
       2    H1      19.908566   20.920227   20.352752 H          1 MOL1         0.0833
       3    H2      18.441914   19.965207   20.408112 H          1 MOL1         0.0833
       4    C2      20.236179   18.805173   20.722447 C.3        1 MOL1        -0.1684
       5    H3      19.626278   17.925937   20.965874 H          1 MOL1         0.0833
       6    H4      20.450350   18.707781   19.649268 H          1 MOL1         0.0833
       7    C3      21.583273   18.742045   21.484032 C.3        1 MOL1        -0.1684
       8    H5      22.051068   19.734671   21.532168 H          1 MOL1         0.0833
       9    H6      22.263886   18.128788   20.877498 H          1 MOL1         0.0833
      10    C4      21.516297   18.083751   22.891190 C.3        1 MOL1        -0.1760
      11    H7      20.802408   17.250214   22.898761 H          1 MOL1         0.0833
      12    H8      22.500459   17.630193   23.071907 H          1 MOL1         0.0833
      13    C5      21.224318   19.059939   24.056901 C.3        1 MOL1         0.1219
      14    H9      21.608270   20.052184   23.785410 H          1 MOL1         0.0790
      15    C6      19.733875   19.181380   24.463890 C.3        1 MOL1        -0.1760
      16    H10     19.421173   18.264079   24.979783 H          1 MOL1         0.0833
      17    H11     19.656683   19.986549   25.206430 H          1 MOL1         0.0833
      18    C7      18.719593   19.466821   23.327934 C.3        1 MOL1        -0.1684
      19    H12     17.765090   19.756144   23.788343 H          1 MOL1         0.0833
      20    H13     18.499087   18.538974   22.787409 H          1 MOL1         0.0833
      21    C8      19.160909   20.587279   22.352657 C.3        1 MOL1        -0.1684
      22    H14     20.048773   21.109878   22.727148 H          1 MOL1         0.0833
      23    H15     18.377222   21.356623   22.324104 H          1 MOL1         0.0833
      24    O1      21.938950   18.614636   25.202639 O.3        1 MOL1        -0.5508
      25    H16     21.595486   17.722219   25.413815 H          1 MOL1         0.3780
@<TRIPOS>BOND
    1     1     2    1
    2     1     3    1
    3     1     4    1
    4     4     5    1
    5     4     6    1
    6     4     7    1
    7     7     8    1
    8     7     9    1
    9     7    10    1
   10    10    11    1
   11    10    12    1
   12    10    13    1
   13    13    14    1
   14    13    15    1
   15    15    16    1
   16    15    17    1
   17    15    18    1
   18    18    19    1
   19    18    20    1
   20     1    21    1
   21    18    21    1
   22    21    22    1
   23    21    23    1
   24    13    24    1
   25    24    25    1
@<TRIPOS>SUBSTRUCTURE
       1 MOL1            1 RESIDUE      1      MOL     
@<SCITEGIC>MOL_PROPERTY
VConf Rank
SciTegic.value.IntegerValue
217

@<SCITEGIC>MOL_PROPERTY
Conf_Id
SciTegic.value.IntegerValue
167

@<SCITEGIC>MOL_PROPERTY
Delta U+W
SciTegic.value.DoubleValue
0.388

@<SCITEGIC>MOL_PROPERTY
U+W
SciTegic.value.DoubleValue
11.301

@<SCITEGIC>MOL_PROPERTY
Grad RMS
SciTegic.value.DoubleValue
0.000000

@<SCITEGIC>MOL_PROPERTY
U
SciTegic.value.DoubleValue
13.202

@<SCITEGIC>MOL_PROPERTY
W
SciTegic.value.DoubleValue
-1.901

@<SCITEGIC>MOL_PROPERTY
W(PB)
SciTegic.value.DoubleValue
-4.065

@<SCITEGIC>MOL_PROPERTY
W(SA)
SciTegic.value.DoubleValue
2.163

@<SCITEGIC>MOL_PROPERTY
Valence
SciTegic.value.DoubleValue
18.957

@<SCITEGIC>MOL_PROPERTY
Coulomb
SciTegic.value.DoubleValue
-8.753

@<SCITEGIC>MOL_PROPERTY
VdW
SciTegic.value.DoubleValue
2.998

@<SCITEGIC>MOL_PROPERTY
VdW6
SciTegic.value.DoubleValue
-12.294

@<SCITEGIC>MOL_PROPERTY
VdW12
SciTegic.value.DoubleValue
15.292

@<SCITEGIC>MOL_PROPERTY
Bond
SciTegic.value.DoubleValue
0.419

@<SCITEGIC>MOL_PROPERTY
Angle
SciTegic.value.DoubleValue
4.543

@<SCITEGIC>MOL_PROPERTY
Pdih
SciTegic.value.DoubleValue
13.996

@<SCITEGIC>MOL_PROPERTY
Idih
SciTegic.value.DoubleValue
0.000

@<SCITEGIC>MOL_PROPERTY
Tether
SciTegic.value.DoubleValue
0.000

@<TRIPOS>MOLECULE
guest-s17_confgen4.mol2 : confsearch ligand conformer 218
          25          25           1
SMALL
USER_CHARGES
 
@<TRIPOS>ATOM
       1    C1      20.654917   20.584293   24.179430 C.3        1 MOL1        -0.1684
       2    H1      21.250103   20.309347   25.060714 H          1 MOL1         0.0833
       3    H2      20.378096   21.637267   24.326175 H          1 MOL1         0.0833
       4    C2      19.348025   19.749233   24.175714 C.3        1 MOL1        -0.1684
       5    H3      19.549563   18.714600   24.475247 H          1 MOL1         0.0833
       6    H4      18.710458   20.145764   24.977777 H          1 MOL1         0.0833
       7    C3      18.537414   19.785184   22.854177 C.3        1 MOL1        -0.1684
       8    H5      18.741906   20.704643   22.290661 H          1 MOL1         0.0833
       9    H6      17.473316   19.843211   23.121075 H          1 MOL1         0.0833
      10    C4      18.709648   18.534666   21.949308 C.3        1 MOL1        -0.1760
      11    H7      18.460482   17.632180   22.522612 H          1 MOL1         0.0833
      12    H8      17.956038   18.596942   21.153079 H          1 MOL1         0.0833
      13    C5      20.090772   18.344434   21.274242 C.3        1 MOL1         0.1219
      14    H9      20.352942   19.260590   20.728273 H          1 MOL1         0.0790
      15    C6      21.230967   17.975170   22.258278 C.3        1 MOL1        -0.1760
      16    H10     20.813623   17.539393   23.171622 H          1 MOL1         0.0833
      17    H11     21.840620   17.170037   21.826969 H          1 MOL1         0.0833
      18    C7      22.193953   19.138223   22.611448 C.3        1 MOL1        -0.1684
      19    H12     22.882369   19.275094   21.766288 H          1 MOL1         0.0833
      20    H13     22.821605   18.835829   23.460660 H          1 MOL1         0.0833
      21    C8      21.549340   20.513890   22.916213 C.3        1 MOL1        -0.1684
      22    H14     21.003154   20.885782   22.041842 H          1 MOL1         0.0833
      23    H15     22.367918   21.232978   23.056449 H          1 MOL1         0.0833
      24    O1      19.958468   17.288528   20.329933 O.3        1 MOL1        -0.5508
      25    H16     20.816315   17.222565   19.860610 H          1 MOL1         0.3780
@<TRIPOS>BOND
    1     1     2    1
    2     1     3    1
    3     1     4    1
    4     4     5    1
    5     4     6    1
    6     4     7    1
    7     7     8    1
    8     7     9    1
    9     7    10    1
   10    10    11    1
   11    10    12    1
   12    10    13    1
   13    13    14    1
   14    13    15    1
   15    15    16    1
   16    15    17    1
   17    15    18    1
   18    18    19    1
   19    18    20    1
   20     1    21    1
   21    18    21    1
   22    21    22    1
   23    21    23    1
   24    13    24    1
   25    24    25    1
@<TRIPOS>SUBSTRUCTURE
       1 MOL1            1 RESIDUE      1      MOL     
@<SCITEGIC>MOL_PROPERTY
VConf Rank
SciTegic.value.IntegerValue
218

@<SCITEGIC>MOL_PROPERTY
Conf_Id
SciTegic.value.IntegerValue
60

@<SCITEGIC>MOL_PROPERTY
Delta U+W
SciTegic.value.DoubleValue
-1.838

@<SCITEGIC>MOL_PROPERTY
U+W
SciTegic.value.DoubleValue
9.075

@<SCITEGIC>MOL_PROPERTY
Grad RMS
SciTegic.value.DoubleValue
0.000000

@<SCITEGIC>MOL_PROPERTY
U
SciTegic.value.DoubleValue
11.150

@<SCITEGIC>MOL_PROPERTY
W
SciTegic.value.DoubleValue
-2.074

@<SCITEGIC>MOL_PROPERTY
W(PB)
SciTegic.value.DoubleValue
-4.196

@<SCITEGIC>MOL_PROPERTY
W(SA)
SciTegic.value.DoubleValue
2.121

@<SCITEGIC>MOL_PROPERTY
Valence
SciTegic.value.DoubleValue
16.582

@<SCITEGIC>MOL_PROPERTY
Coulomb
SciTegic.value.DoubleValue
-8.361

@<SCITEGIC>MOL_PROPERTY
VdW
SciTegic.value.DoubleValue
2.928

@<SCITEGIC>MOL_PROPERTY
VdW6
SciTegic.value.DoubleValue
-12.539

@<SCITEGIC>MOL_PROPERTY
VdW12
SciTegic.value.DoubleValue
15.467

@<SCITEGIC>MOL_PROPERTY
Bond
SciTegic.value.DoubleValue
0.441

@<SCITEGIC>MOL_PROPERTY
Angle
SciTegic.value.DoubleValue
5.093

@<SCITEGIC>MOL_PROPERTY
Pdih
SciTegic.value.DoubleValue
11.049

@<SCITEGIC>MOL_PROPERTY
Idih
SciTegic.value.DoubleValue
0.000

@<SCITEGIC>MOL_PROPERTY
Tether
SciTegic.value.DoubleValue
0.000

@<TRIPOS>MOLECULE
guest-s17_confgen4.mol2 : confsearch ligand conformer 219
          25          25           1
SMALL
USER_CHARGES
 
@<TRIPOS>ATOM
       1    C1      20.508492   17.286226   21.877350 C.3        1 MOL1        -0.1684
       2    H1      20.817973   17.122241   20.836276 H          1 MOL1         0.0833
       3    H2      20.327208   16.285662   22.293193 H          1 MOL1         0.0833
       4    C2      19.157915   18.045351   21.895677 C.3        1 MOL1        -0.1684
       5    H3      18.422234   17.413367   21.379739 H          1 MOL1         0.0833
       6    H4      18.780347   18.125812   22.921404 H          1 MOL1         0.0833
       7    C3      19.142767   19.429443   21.199309 C.3        1 MOL1        -0.1684
       8    H5      18.103384   19.785222   21.192309 H          1 MOL1         0.0833
       9    H6      19.422773   19.307532   20.144186 H          1 MOL1         0.0833
      10    C4      20.022721   20.540726   21.828192 C.3        1 MOL1        -0.1760
      11    H7      21.062581   20.427392   21.505517 H          1 MOL1         0.0833
      12    H8      19.703669   21.494427   21.387055 H          1 MOL1         0.0833
      13    C5      19.951477   20.636477   23.374310 C.3        1 MOL1         0.1219
      14    H9      19.040959   20.140234   23.736044 H          1 MOL1         0.0790
      15    C6      21.179431   20.035309   24.102411 C.3        1 MOL1        -0.1760
      16    H10     22.093497   20.506945   23.718633 H          1 MOL1         0.0833
      17    H11     21.116186   20.328532   25.158728 H          1 MOL1         0.0833
      18    C7      21.336268   18.490832   24.055064 C.3        1 MOL1        -0.1684
      19    H12     20.449518   17.996489   24.472280 H          1 MOL1         0.0833
      20    H13     22.156980   18.231234   24.737666 H          1 MOL1         0.0833
      21    C8      21.690945   17.914872   22.659600 C.3        1 MOL1        -0.1684
      22    H14     22.441827   17.124819   22.797535 H          1 MOL1         0.0833
      23    H15     22.199839   18.669929   22.049911 H          1 MOL1         0.0833
      24    O1      19.878542   22.011527   23.732195 O.3        1 MOL1        -0.5508
      25    H16     19.061183   22.365090   23.323009 H          1 MOL1         0.3780
@<TRIPOS>BOND
    1     1     2    1
    2     1     3    1
    3     1     4    1
    4     4     5    1
    5     4     6    1
    6     4     7    1
    7     7     8    1
    8     7     9    1
    9     7    10    1
   10    10    11    1
   11    10    12    1
   12    10    13    1
   13    13    14    1
   14    13    15    1
   15    15    16    1
   16    15    17    1
   17    15    18    1
   18    18    19    1
   19    18    20    1
   20     1    21    1
   21    18    21    1
   22    21    22    1
   23    21    23    1
   24    13    24    1
   25    24    25    1
@<TRIPOS>SUBSTRUCTURE
       1 MOL1            1 RESIDUE      1      MOL     
@<SCITEGIC>MOL_PROPERTY
VConf Rank
SciTegic.value.IntegerValue
219

@<SCITEGIC>MOL_PROPERTY
Conf_Id
SciTegic.value.IntegerValue
129

@<SCITEGIC>MOL_PROPERTY
Delta U+W
SciTegic.value.DoubleValue
-1.846

@<SCITEGIC>MOL_PROPERTY
U+W
SciTegic.value.DoubleValue
9.067

@<SCITEGIC>MOL_PROPERTY
Grad RMS
SciTegic.value.DoubleValue
0.000000

@<SCITEGIC>MOL_PROPERTY
U
SciTegic.value.DoubleValue
11.150

@<SCITEGIC>MOL_PROPERTY
W
SciTegic.value.DoubleValue
-2.083

@<SCITEGIC>MOL_PROPERTY
W(PB)
SciTegic.value.DoubleValue
-4.217

@<SCITEGIC>MOL_PROPERTY
W(SA)
SciTegic.value.DoubleValue
2.134

@<SCITEGIC>MOL_PROPERTY
Valence
SciTegic.value.DoubleValue
16.583

@<SCITEGIC>MOL_PROPERTY
Coulomb
SciTegic.value.DoubleValue
-8.361

@<SCITEGIC>MOL_PROPERTY
VdW
SciTegic.value.DoubleValue
2.928

@<SCITEGIC>MOL_PROPERTY
VdW6
SciTegic.value.DoubleValue
-12.539

@<SCITEGIC>MOL_PROPERTY
VdW12
SciTegic.value.DoubleValue
15.467

@<SCITEGIC>MOL_PROPERTY
Bond
SciTegic.value.DoubleValue
0.441

@<SCITEGIC>MOL_PROPERTY
Angle
SciTegic.value.DoubleValue
5.093

@<SCITEGIC>MOL_PROPERTY
Pdih
SciTegic.value.DoubleValue
11.049

@<SCITEGIC>MOL_PROPERTY
Idih
SciTegic.value.DoubleValue
0.000

@<SCITEGIC>MOL_PROPERTY
Tether
SciTegic.value.DoubleValue
0.000

@<TRIPOS>MOLECULE
guest-s17_confgen4.mol2 : confsearch ligand conformer 220
          25          25           1
SMALL
USER_CHARGES
 
@<TRIPOS>ATOM
       1    C1      21.244093   19.926903   20.977865 C.3        1 MOL1        -0.1684
       2    H1      21.797520   20.875171   21.009666 H          1 MOL1         0.0833
       3    H2      21.369170   19.545265   19.955305 H          1 MOL1         0.0833
       4    C2      19.734707   20.208414   21.184558 C.3        1 MOL1        -0.1684
       5    H3      19.409591   20.860900   20.362751 H          1 MOL1         0.0833
       6    H4      19.153577   19.288648   21.052204 H          1 MOL1         0.0833
       7    C3      19.346476   20.910898   22.509722 C.3        1 MOL1        -0.1684
       8    H5      18.274223   21.144649   22.457882 H          1 MOL1         0.0833
       9    H6      19.859814   21.880048   22.570768 H          1 MOL1         0.0833
      10    C4      19.597519   20.124356   23.822584 C.3        1 MOL1        -0.1760
      11    H7      20.644982   20.220591   24.126061 H          1 MOL1         0.0833
      12    H8      19.031799   20.634603   24.613928 H          1 MOL1         0.0833
      13    C5      19.184899   18.630153   23.781653 C.3        1 MOL1         0.1219
      14    H9      18.467226   18.466587   22.966753 H          1 MOL1         0.0790
      15    C6      20.371159   17.646078   23.622647 C.3        1 MOL1        -0.1760
      16    H10     21.105552   17.827221   24.418304 H          1 MOL1         0.0833
      17    H11     19.988175   16.631424   23.795960 H          1 MOL1         0.0833
      18    C7      21.097658   17.639651   22.250358 C.3        1 MOL1        -0.1684
      19    H12     20.393748   17.417723   21.437922 H          1 MOL1         0.0833
      20    H13     21.797556   16.792909   22.262085 H          1 MOL1         0.0833
      21    C8      21.918845   18.918775   21.943700 C.3        1 MOL1        -0.1684
      22    H14     22.866609   18.613008   21.479695 H          1 MOL1         0.0833
      23    H15     22.218787   19.415852   22.873081 H          1 MOL1         0.0833
      24    O1      18.536159   18.314688   25.007125 O.3        1 MOL1        -0.5508
      25    H16     19.195527   18.463897   25.715583 H          1 MOL1         0.3780
@<TRIPOS>BOND
    1     1     2    1
    2     1     3    1
    3     1     4    1
    4     4     5    1
    5     4     6    1
    6     4     7    1
    7     7     8    1
    8     7     9    1
    9     7    10    1
   10    10    11    1
   11    10    12    1
   12    10    13    1
   13    13    14    1
   14    13    15    1
   15    15    16    1
   16    15    17    1
   17    15    18    1
   18    18    19    1
   19    18    20    1
   20     1    21    1
   21    18    21    1
   22    21    22    1
   23    21    23    1
   24    13    24    1
   25    24    25    1
@<TRIPOS>SUBSTRUCTURE
       1 MOL1            1 RESIDUE      1      MOL     
@<SCITEGIC>MOL_PROPERTY
VConf Rank
SciTegic.value.IntegerValue
220

@<SCITEGIC>MOL_PROPERTY
Conf_Id
SciTegic.value.IntegerValue
140

@<SCITEGIC>MOL_PROPERTY
Delta U+W
SciTegic.value.DoubleValue
-1.702

@<SCITEGIC>MOL_PROPERTY
U+W
SciTegic.value.DoubleValue
9.211

@<SCITEGIC>MOL_PROPERTY
Grad RMS
SciTegic.value.DoubleValue
0.000000

@<SCITEGIC>MOL_PROPERTY
U
SciTegic.value.DoubleValue
11.181

@<SCITEGIC>MOL_PROPERTY
W
SciTegic.value.DoubleValue
-1.969

@<SCITEGIC>MOL_PROPERTY
W(PB)
SciTegic.value.DoubleValue
-4.093

@<SCITEGIC>MOL_PROPERTY
W(SA)
SciTegic.value.DoubleValue
2.124

@<SCITEGIC>MOL_PROPERTY
Valence
SciTegic.value.DoubleValue
16.954

@<SCITEGIC>MOL_PROPERTY
Coulomb
SciTegic.value.DoubleValue
-8.661

@<SCITEGIC>MOL_PROPERTY
VdW
SciTegic.value.DoubleValue
2.887

@<SCITEGIC>MOL_PROPERTY
VdW6
SciTegic.value.DoubleValue
-12.561

@<SCITEGIC>MOL_PROPERTY
VdW12
SciTegic.value.DoubleValue
15.448

@<SCITEGIC>MOL_PROPERTY
Bond
SciTegic.value.DoubleValue
0.433

@<SCITEGIC>MOL_PROPERTY
Angle
SciTegic.value.DoubleValue
5.120

@<SCITEGIC>MOL_PROPERTY
Pdih
SciTegic.value.DoubleValue
11.401

@<SCITEGIC>MOL_PROPERTY
Idih
SciTegic.value.DoubleValue
0.000

@<SCITEGIC>MOL_PROPERTY
Tether
SciTegic.value.DoubleValue
0.000

@<TRIPOS>MOLECULE
guest-s17_confgen4.mol2 : confsearch ligand conformer 221
          25          25           1
SMALL
USER_CHARGES
 
@<TRIPOS>ATOM
       1    C1      19.778747   21.149578   22.305317 C.3        1 MOL1        -0.1684
       2    H1      18.733641   21.483187   22.359766 H          1 MOL1         0.0833
       3    H2      20.361832   22.043796   22.045884 H          1 MOL1         0.0833
       4    C2      19.922946   20.137470   21.139430 C.3        1 MOL1        -0.1684
       5    H3      19.065680   19.455464   21.111772 H          1 MOL1         0.0833
       6    H4      19.846574   20.709732   20.204691 H          1 MOL1         0.0833
       7    C3      21.253524   19.341706   21.109964 C.3        1 MOL1        -0.1684
       8    H5      22.054707   19.892427   21.619482 H          1 MOL1         0.0833
       9    H6      21.574571   19.274017   20.061484 H          1 MOL1         0.0833
      10    C4      21.154891   17.888641   21.648375 C.3        1 MOL1        -0.1760
      11    H7      20.376566   17.350261   21.091982 H          1 MOL1         0.0833
      12    H8      22.099084   17.383466   21.404383 H          1 MOL1         0.0833
      13    C5      20.911167   17.721159   23.169375 C.3        1 MOL1         0.1219
      14    H9      21.673465   18.285881   23.722423 H          1 MOL1         0.0790
      15    C6      19.497800   18.152307   23.639563 C.3        1 MOL1        -0.1760
      16    H10     18.794480   18.125965   22.801001 H          1 MOL1         0.0833
      17    H11     19.110199   17.409284   24.349703 H          1 MOL1         0.0833
      18    C7      19.433734   19.530216   24.348459 C.3        1 MOL1        -0.1684
      19    H12     19.802072   19.397402   25.374977 H          1 MOL1         0.0833
      20    H13     18.382288   19.832534   24.446253 H          1 MOL1         0.0833
      21    C8      20.241922   20.687354   23.709607 C.3        1 MOL1        -0.1684
      22    H14     21.311723   20.449402   23.699190 H          1 MOL1         0.0833
      23    H15     20.158215   21.552591   24.381294 H          1 MOL1         0.0833
      24    O1      21.079523   16.342498   23.474511 O.3        1 MOL1        -0.5508
      25    H16     20.393392   15.861277   22.967960 H          1 MOL1         0.3780
@<TRIPOS>BOND
    1     1     2    1
    2     1     3    1
    3     1     4    1
    4     4     5    1
    5     4     6    1
    6     4     7    1
    7     7     8    1
    8     7     9    1
    9     7    10    1
   10    10    11    1
   11    10    12    1
   12    10    13    1
   13    13    14    1
   14    13    15    1
   15    15    16    1
   16    15    17    1
   17    15    18    1
   18    18    19    1
   19    18    20    1
   20     1    21    1
   21    18    21    1
   22    21    22    1
   23    21    23    1
   24    13    24    1
   25    24    25    1
@<TRIPOS>SUBSTRUCTURE
       1 MOL1            1 RESIDUE      1      MOL     
@<SCITEGIC>MOL_PROPERTY
VConf Rank
SciTegic.value.IntegerValue
221

@<SCITEGIC>MOL_PROPERTY
Conf_Id
SciTegic.value.IntegerValue
68

@<SCITEGIC>MOL_PROPERTY
Delta U+W
SciTegic.value.DoubleValue
-1.765

@<SCITEGIC>MOL_PROPERTY
U+W
SciTegic.value.DoubleValue
9.148

@<SCITEGIC>MOL_PROPERTY
Grad RMS
SciTegic.value.DoubleValue
0.000000

@<SCITEGIC>MOL_PROPERTY
U
SciTegic.value.DoubleValue
11.181

@<SCITEGIC>MOL_PROPERTY
W
SciTegic.value.DoubleValue
-2.032

@<SCITEGIC>MOL_PROPERTY
W(PB)
SciTegic.value.DoubleValue
-4.147

@<SCITEGIC>MOL_PROPERTY
W(SA)
SciTegic.value.DoubleValue
2.114

@<SCITEGIC>MOL_PROPERTY
Valence
SciTegic.value.DoubleValue
16.955

@<SCITEGIC>MOL_PROPERTY
Coulomb
SciTegic.value.DoubleValue
-8.661

@<SCITEGIC>MOL_PROPERTY
VdW
SciTegic.value.DoubleValue
2.887

@<SCITEGIC>MOL_PROPERTY
VdW6
SciTegic.value.DoubleValue
-12.561

@<SCITEGIC>MOL_PROPERTY
VdW12
SciTegic.value.DoubleValue
15.448

@<SCITEGIC>MOL_PROPERTY
Bond
SciTegic.value.DoubleValue
0.433

@<SCITEGIC>MOL_PROPERTY
Angle
SciTegic.value.DoubleValue
5.121

@<SCITEGIC>MOL_PROPERTY
Pdih
SciTegic.value.DoubleValue
11.402

@<SCITEGIC>MOL_PROPERTY
Idih
SciTegic.value.DoubleValue
0.000

@<SCITEGIC>MOL_PROPERTY
Tether
SciTegic.value.DoubleValue
0.000

@<TRIPOS>MOLECULE
guest-s17_confgen4.mol2 : confsearch ligand conformer 222
          25          25           1
SMALL
USER_CHARGES
 
@<TRIPOS>ATOM
       1    C1      18.448308   19.618732   22.363455 C.3        1 MOL1        -0.1684
       2    H1      17.366224   19.768471   22.246205 H          1 MOL1         0.0833
       3    H2      18.897818   20.317955   21.649368 H          1 MOL1         0.0833
       4    C2      18.776287   18.154097   21.972842 C.3        1 MOL1        -0.1684
       5    H3      18.800678   17.504655   22.857287 H          1 MOL1         0.0833
       6    H4      17.940445   17.779247   21.366315 H          1 MOL1         0.0833
       7    C3      20.063980   17.978962   21.125626 C.3        1 MOL1        -0.1684
       8    H5      19.994125   18.602118   20.223478 H          1 MOL1         0.0833
       9    H6      20.087724   16.941413   20.765403 H          1 MOL1         0.0833
      10    C4      21.412148   18.261374   21.840636 C.3        1 MOL1        -0.1760
      11    H7      21.513521   17.625966   22.728633 H          1 MOL1         0.0833
      12    H8      22.207030   17.931643   21.157956 H          1 MOL1         0.0833
      13    C5      21.651828   19.751875   22.195385 C.3        1 MOL1         0.1219
      14    H9      20.997412   20.376264   21.576173 H          1 MOL1         0.0790
      15    C6      21.431067   20.107524   23.686298 C.3        1 MOL1        -0.1760
      16    H10     22.302691   19.764417   24.259121 H          1 MOL1         0.0833
      17    H11     21.419153   21.200912   23.783483 H          1 MOL1         0.0833
      18    C7      20.168252   19.526754   24.373369 C.3        1 MOL1        -0.1684
      19    H12     20.211779   19.812944   25.433049 H          1 MOL1         0.0833
      20    H13     20.205507   18.431373   24.381222 H          1 MOL1         0.0833
      21    C8      18.806326   20.015043   23.819409 C.3        1 MOL1        -0.1684
      22    H14     18.744887   21.107433   23.916859 H          1 MOL1         0.0833
      23    H15     18.022699   19.614707   24.477175 H          1 MOL1         0.0833
      24    O1      22.996196   20.084038   21.871308 O.3        1 MOL1        -0.5508
      25    H16     23.564516   19.505215   22.419821 H          1 MOL1         0.3780
@<TRIPOS>BOND
    1     1     2    1
    2     1     3    1
    3     1     4    1
    4     4     5    1
    5     4     6    1
    6     4     7    1
    7     7     8    1
    8     7     9    1
    9     7    10    1
   10    10    11    1
   11    10    12    1
   12    10    13    1
   13    13    14    1
   14    13    15    1
   15    15    16    1
   16    15    17    1
   17    15    18    1
   18    18    19    1
   19    18    20    1
   20     1    21    1
   21    18    21    1
   22    21    22    1
   23    21    23    1
   24    13    24    1
   25    24    25    1
@<TRIPOS>SUBSTRUCTURE
       1 MOL1            1 RESIDUE      1      MOL     
@<SCITEGIC>MOL_PROPERTY
VConf Rank
SciTegic.value.IntegerValue
222

@<SCITEGIC>MOL_PROPERTY
Conf_Id
SciTegic.value.IntegerValue
165

@<SCITEGIC>MOL_PROPERTY
Delta U+W
SciTegic.value.DoubleValue
-1.999

@<SCITEGIC>MOL_PROPERTY
U+W
SciTegic.value.DoubleValue
8.915

@<SCITEGIC>MOL_PROPERTY
Grad RMS
SciTegic.value.DoubleValue
0.000000

@<SCITEGIC>MOL_PROPERTY
U
SciTegic.value.DoubleValue
10.935

@<SCITEGIC>MOL_PROPERTY
W
SciTegic.value.DoubleValue
-2.020

@<SCITEGIC>MOL_PROPERTY
W(PB)
SciTegic.value.DoubleValue
-4.135

@<SCITEGIC>MOL_PROPERTY
W(SA)
SciTegic.value.DoubleValue
2.115

@<SCITEGIC>MOL_PROPERTY
Valence
SciTegic.value.DoubleValue
16.757

@<SCITEGIC>MOL_PROPERTY
Coulomb
SciTegic.value.DoubleValue
-8.731

@<SCITEGIC>MOL_PROPERTY
VdW
SciTegic.value.DoubleValue
2.908

@<SCITEGIC>MOL_PROPERTY
VdW6
SciTegic.value.DoubleValue
-12.597

@<SCITEGIC>MOL_PROPERTY
VdW12
SciTegic.value.DoubleValue
15.506

@<SCITEGIC>MOL_PROPERTY
Bond
SciTegic.value.DoubleValue
0.434

@<SCITEGIC>MOL_PROPERTY
Angle
SciTegic.value.DoubleValue
5.069

@<SCITEGIC>MOL_PROPERTY
Pdih
SciTegic.value.DoubleValue
11.254

@<SCITEGIC>MOL_PROPERTY
Idih
SciTegic.value.DoubleValue
0.000

@<SCITEGIC>MOL_PROPERTY
Tether
SciTegic.value.DoubleValue
0.000

@<TRIPOS>MOLECULE
guest-s17_confgen4.mol2 : confsearch ligand conformer 223
          25          25           1
SMALL
USER_CHARGES
 
@<TRIPOS>ATOM
       1    C1      18.599026   18.951762   22.032097 C.3        1 MOL1        -0.1684
       2    H1      17.588940   18.888792   21.604494 H          1 MOL1         0.0833
       3    H2      18.701749   18.033363   22.620989 H          1 MOL1         0.0833
       4    C2      18.625315   20.200223   22.951937 C.3        1 MOL1        -0.1684
       5    H3      18.088435   21.007374   22.434953 H          1 MOL1         0.0833
       6    H4      18.040461   19.988589   23.857323 H          1 MOL1         0.0833
       7    C3      20.014164   20.755072   23.356390 C.3        1 MOL1        -0.1684
       8    H5      19.844763   21.683636   23.918327 H          1 MOL1         0.0833
       9    H6      20.572810   21.068511   22.467030 H          1 MOL1         0.0833
      10    C4      20.885012   19.830111   24.245267 C.3        1 MOL1        -0.1760
      11    H7      21.779000   20.398929   24.534657 H          1 MOL1         0.0833
      12    H8      20.343837   19.621945   25.177208 H          1 MOL1         0.0833
      13    C5      21.345501   18.486364   23.628781 C.3        1 MOL1         0.1219
      14    H9      20.513293   17.773138   23.653235 H          1 MOL1         0.0790
      15    C6      21.876878   18.590304   22.175847 C.3        1 MOL1        -0.1760
      16    H10     22.214166   19.610022   21.955550 H          1 MOL1         0.0833
      17    H11     22.777275   17.966987   22.090451 H          1 MOL1         0.0833
      18    C7      20.883348   18.099599   21.089064 C.3        1 MOL1        -0.1684
      19    H12     20.583252   17.066494   21.311826 H          1 MOL1         0.0833
      20    H13     21.428462   18.048840   20.136674 H          1 MOL1         0.0833
      21    C8      19.616511   18.965772   20.861608 C.3        1 MOL1        -0.1684
      22    H14     19.106826   18.561373   19.976344 H          1 MOL1         0.0833
      23    H15     19.891041   19.992717   20.588427 H          1 MOL1         0.0833
      24    O1      22.384836   17.972926   24.454419 O.3        1 MOL1        -0.5508
      25    H16     22.008637   17.875744   25.354124 H          1 MOL1         0.3780
@<TRIPOS>BOND
    1     1     2    1
    2     1     3    1
    3     1     4    1
    4     4     5    1
    5     4     6    1
    6     4     7    1
    7     7     8    1
    8     7     9    1
    9     7    10    1
   10    10    11    1
   11    10    12    1
   12    10    13    1
   13    13    14    1
   14    13    15    1
   15    15    16    1
   16    15    17    1
   17    15    18    1
   18    18    19    1
   19    18    20    1
   20     1    21    1
   21    18    21    1
   22    21    22    1
   23    21    23    1
   24    13    24    1
   25    24    25    1
@<TRIPOS>SUBSTRUCTURE
       1 MOL1            1 RESIDUE      1      MOL     
@<SCITEGIC>MOL_PROPERTY
VConf Rank
SciTegic.value.IntegerValue
223

@<SCITEGIC>MOL_PROPERTY
Conf_Id
SciTegic.value.IntegerValue
133

@<SCITEGIC>MOL_PROPERTY
Delta U+W
SciTegic.value.DoubleValue
-2.139

@<SCITEGIC>MOL_PROPERTY
U+W
SciTegic.value.DoubleValue
8.774

@<SCITEGIC>MOL_PROPERTY
Grad RMS
SciTegic.value.DoubleValue
0.000000

@<SCITEGIC>MOL_PROPERTY
U
SciTegic.value.DoubleValue
10.905

@<SCITEGIC>MOL_PROPERTY
W
SciTegic.value.DoubleValue
-2.131

@<SCITEGIC>MOL_PROPERTY
W(PB)
SciTegic.value.DoubleValue
-4.281

@<SCITEGIC>MOL_PROPERTY
W(SA)
SciTegic.value.DoubleValue
2.150

@<SCITEGIC>MOL_PROPERTY
Valence
SciTegic.value.DoubleValue
16.378

@<SCITEGIC>MOL_PROPERTY
Coulomb
SciTegic.value.DoubleValue
-8.448

@<SCITEGIC>MOL_PROPERTY
VdW
SciTegic.value.DoubleValue
2.976

@<SCITEGIC>MOL_PROPERTY
VdW6
SciTegic.value.DoubleValue
-12.570

@<SCITEGIC>MOL_PROPERTY
VdW12
SciTegic.value.DoubleValue
15.545

@<SCITEGIC>MOL_PROPERTY
Bond
SciTegic.value.DoubleValue
0.439

@<SCITEGIC>MOL_PROPERTY
Angle
SciTegic.value.DoubleValue
5.049

@<SCITEGIC>MOL_PROPERTY
Pdih
SciTegic.value.DoubleValue
10.889

@<SCITEGIC>MOL_PROPERTY
Idih
SciTegic.value.DoubleValue
0.000

@<SCITEGIC>MOL_PROPERTY
Tether
SciTegic.value.DoubleValue
0.000

@<TRIPOS>MOLECULE
guest-s17_confgen4.mol2 : confsearch ligand conformer 224
          25          25           1
SMALL
USER_CHARGES
 
@<TRIPOS>ATOM
       1    C1      21.639850   17.995450   22.717710 C.3        1 MOL1        -0.1684
       2    H1      22.503702   17.319356   22.778895 H          1 MOL1         0.0833
       3    H2      20.852782   17.388433   22.256347 H          1 MOL1         0.0833
       4    C2      22.023167   19.183004   21.796675 C.3        1 MOL1        -0.1684
       5    H3      22.388711   20.036039   22.382609 H          1 MOL1         0.0833
       6    H4      22.881378   18.865508   21.188660 H          1 MOL1         0.0833
       7    C3      20.910971   19.628646   20.811131 C.3        1 MOL1        -0.1684
       8    H5      20.597331   18.769231   20.202835 H          1 MOL1         0.0833
       9    H6      21.357045   20.341998   20.104789 H          1 MOL1         0.0833
      10    C4      19.657818   20.301111   21.432732 C.3        1 MOL1        -0.1760
      11    H7      19.945622   21.181456   22.019488 H          1 MOL1         0.0833
      12    H8      19.060708   20.695942   20.599606 H          1 MOL1         0.0833
      13    C5      18.763330   19.349178   22.268135 C.3        1 MOL1         0.1219
      14    H9      18.985541   18.313296   21.986306 H          1 MOL1         0.0790
      15    C6      18.911557   19.504451   23.801649 C.3        1 MOL1        -0.1760
      16    H10     18.365935   20.406746   24.109346 H          1 MOL1         0.0833
      17    H11     18.404638   18.662639   24.290631 H          1 MOL1         0.0833
      18    C7      20.351374   19.617960   24.365625 C.3        1 MOL1        -0.1684
      19    H12     20.266137   19.795605   25.446308 H          1 MOL1         0.0833
      20    H13     20.845609   20.515459   23.976371 H          1 MOL1         0.0833
      21    C8      21.258382   18.376947   24.171807 C.3        1 MOL1        -0.1684
      22    H14     20.794959   17.508145   24.658624 H          1 MOL1         0.0833
      23    H15     22.189966   18.563180   24.723600 H          1 MOL1         0.0833
      24    O1      17.401927   19.607436   21.943486 O.3        1 MOL1        -0.5508
      25    H16     16.863930   18.963697   22.450040 H          1 MOL1         0.3780
@<TRIPOS>BOND
    1     1     2    1
    2     1     3    1
    3     1     4    1
    4     4     5    1
    5     4     6    1
    6     4     7    1
    7     7     8    1
    8     7     9    1
    9     7    10    1
   10    10    11    1
   11    10    12    1
   12    10    13    1
   13    13    14    1
   14    13    15    1
   15    15    16    1
   16    15    17    1
   17    15    18    1
   18    18    19    1
   19    18    20    1
   20     1    21    1
   21    18    21    1
   22    21    22    1
   23    21    23    1
   24    13    24    1
   25    24    25    1
@<TRIPOS>SUBSTRUCTURE
       1 MOL1            1 RESIDUE      1      MOL     
@<SCITEGIC>MOL_PROPERTY
VConf Rank
SciTegic.value.IntegerValue
224

@<SCITEGIC>MOL_PROPERTY
Conf_Id
SciTegic.value.IntegerValue
95

@<SCITEGIC>MOL_PROPERTY
Delta U+W
SciTegic.value.DoubleValue
-2.190

@<SCITEGIC>MOL_PROPERTY
U+W
SciTegic.value.DoubleValue
8.723

@<SCITEGIC>MOL_PROPERTY
Grad RMS
SciTegic.value.DoubleValue
0.000000

@<SCITEGIC>MOL_PROPERTY
U
SciTegic.value.DoubleValue
10.905

@<SCITEGIC>MOL_PROPERTY
W
SciTegic.value.DoubleValue
-2.182

@<SCITEGIC>MOL_PROPERTY
W(PB)
SciTegic.value.DoubleValue
-4.296

@<SCITEGIC>MOL_PROPERTY
W(SA)
SciTegic.value.DoubleValue
2.114

@<SCITEGIC>MOL_PROPERTY
Valence
SciTegic.value.DoubleValue
16.377

@<SCITEGIC>MOL_PROPERTY
Coulomb
SciTegic.value.DoubleValue
-8.448

@<SCITEGIC>MOL_PROPERTY
VdW
SciTegic.value.DoubleValue
2.976

@<SCITEGIC>MOL_PROPERTY
VdW6
SciTegic.value.DoubleValue
-12.570

@<SCITEGIC>MOL_PROPERTY
VdW12
SciTegic.value.DoubleValue
15.546

@<SCITEGIC>MOL_PROPERTY
Bond
SciTegic.value.DoubleValue
0.439

@<SCITEGIC>MOL_PROPERTY
Angle
SciTegic.value.DoubleValue
5.049

@<SCITEGIC>MOL_PROPERTY
Pdih
SciTegic.value.DoubleValue
10.889

@<SCITEGIC>MOL_PROPERTY
Idih
SciTegic.value.DoubleValue
0.000

@<SCITEGIC>MOL_PROPERTY
Tether
SciTegic.value.DoubleValue
0.000

@<TRIPOS>MOLECULE
guest-s17_confgen4.mol2 : confsearch ligand conformer 225
          25          25           1
SMALL
USER_CHARGES
 
@<TRIPOS>ATOM
       1    C1      20.106628   20.718742   21.705789 C.3        1 MOL1        -0.1684
       2    H1      20.049441   21.704107   21.223413 H          1 MOL1         0.0833
       3    H2      19.348555   20.132639   21.176598 H          1 MOL1         0.0833
       4    C2      19.713837   20.919427   23.198993 C.3        1 MOL1        -0.1684
       5    H3      20.092062   21.903519   23.507942 H          1 MOL1         0.0833
       6    H4      18.620283   20.990686   23.273372 H          1 MOL1         0.0833
       7    C3      20.232141   19.890840   24.238159 C.3        1 MOL1        -0.1684
       8    H5      19.957912   20.259444   25.236031 H          1 MOL1         0.0833
       9    H6      21.326457   19.909562   24.250436 H          1 MOL1         0.0833
      10    C4      19.703359   18.429814   24.127196 C.3        1 MOL1        -0.1760
      11    H7      20.397297   17.760534   24.652445 H          1 MOL1         0.0833
      12    H8      18.762958   18.384939   24.691905 H          1 MOL1         0.0833
      13    C5      19.418985   17.857695   22.715281 C.3        1 MOL1         0.1219
      14    H9      18.691205   18.512046   22.224388 H          1 MOL1         0.0790
      15    C6      20.644319   17.648243   21.779718 C.3        1 MOL1        -0.1760
      16    H10     21.072741   16.661184   21.999911 H          1 MOL1         0.0833
      17    H11     20.281893   17.588398   20.745621 H          1 MOL1         0.0833
      18    C7      21.810874   18.670836   21.846565 C.3        1 MOL1        -0.1684
      19    H12     22.616961   18.297089   21.200616 H          1 MOL1         0.0833
      20    H13     22.254125   18.648815   22.847123 H          1 MOL1         0.0833
      21    C8      21.511817   20.133499   21.405333 C.3        1 MOL1        -0.1684
      22    H14     21.653471   20.183881   20.317094 H          1 MOL1         0.0833
      23    H15     22.277527   20.796277   21.830607 H          1 MOL1         0.0833
      24    O1      18.797317   16.589488   22.887887 O.3        1 MOL1        -0.5508
      25    H16     17.990916   16.740242   23.423655 H          1 MOL1         0.3780
@<TRIPOS>BOND
    1     1     2    1
    2     1     3    1
    3     1     4    1
    4     4     5    1
    5     4     6    1
    6     4     7    1
    7     7     8    1
    8     7     9    1
    9     7    10    1
   10    10    11    1
   11    10    12    1
   12    10    13    1
   13    13    14    1
   14    13    15    1
   15    15    16    1
   16    15    17    1
   17    15    18    1
   18    18    19    1
   19    18    20    1
   20     1    21    1
   21    18    21    1
   22    21    22    1
   23    21    23    1
   24    13    24    1
   25    24    25    1
@<TRIPOS>SUBSTRUCTURE
       1 MOL1            1 RESIDUE      1      MOL     
@<SCITEGIC>MOL_PROPERTY
VConf Rank
SciTegic.value.IntegerValue
225

@<SCITEGIC>MOL_PROPERTY
Conf_Id
SciTegic.value.IntegerValue
161

@<SCITEGIC>MOL_PROPERTY
Delta U+W
SciTegic.value.DoubleValue
2.120

@<SCITEGIC>MOL_PROPERTY
U+W
SciTegic.value.DoubleValue
13.033

@<SCITEGIC>MOL_PROPERTY
Grad RMS
SciTegic.value.DoubleValue
0.000000

@<SCITEGIC>MOL_PROPERTY
U
SciTegic.value.DoubleValue
15.076

@<SCITEGIC>MOL_PROPERTY
W
SciTegic.value.DoubleValue
-2.043

@<SCITEGIC>MOL_PROPERTY
W(PB)
SciTegic.value.DoubleValue
-4.186

@<SCITEGIC>MOL_PROPERTY
W(SA)
SciTegic.value.DoubleValue
2.143

@<SCITEGIC>MOL_PROPERTY
Valence
SciTegic.value.DoubleValue
18.884

@<SCITEGIC>MOL_PROPERTY
Coulomb
SciTegic.value.DoubleValue
-8.074

@<SCITEGIC>MOL_PROPERTY
VdW
SciTegic.value.DoubleValue
4.266

@<SCITEGIC>MOL_PROPERTY
VdW6
SciTegic.value.DoubleValue
-13.486

@<SCITEGIC>MOL_PROPERTY
VdW12
SciTegic.value.DoubleValue
17.752

@<SCITEGIC>MOL_PROPERTY
Bond
SciTegic.value.DoubleValue
0.713

@<SCITEGIC>MOL_PROPERTY
Angle
SciTegic.value.DoubleValue
8.955

@<SCITEGIC>MOL_PROPERTY
Pdih
SciTegic.value.DoubleValue
9.215

@<SCITEGIC>MOL_PROPERTY
Idih
SciTegic.value.DoubleValue
0.000

@<SCITEGIC>MOL_PROPERTY
Tether
SciTegic.value.DoubleValue
0.000

@<TRIPOS>MOLECULE
guest-s17_confgen4.mol2 : confsearch ligand conformer 226
          25          25           1
SMALL
USER_CHARGES
 
@<TRIPOS>ATOM
       1    C1      20.030730   17.710277   21.368164 C.3        1 MOL1        -0.1684
       2    H1      19.736222   17.065753   20.528615 H          1 MOL1         0.0833
       3    H2      20.420941   17.020056   22.126824 H          1 MOL1         0.0833
       4    C2      18.757760   18.415072   21.899662 C.3        1 MOL1        -0.1684
       5    H3      18.560033   19.338609   21.339152 H          1 MOL1         0.0833
       6    H4      17.910288   17.752644   21.675721 H          1 MOL1         0.0833
       7    C3      18.734945   18.671746   23.432284 C.3        1 MOL1        -0.1684
       8    H5      19.198428   17.840437   23.980367 H          1 MOL1         0.0833
       9    H6      17.679793   18.668712   23.738627 H          1 MOL1         0.0833
      10    C4      19.329639   20.030208   23.885486 C.3        1 MOL1        -0.1760
      11    H7      19.122298   20.797843   23.130030 H          1 MOL1         0.0833
      12    H8      18.777668   20.354859   24.777429 H          1 MOL1         0.0833
      13    C5      20.829949   20.025760   24.273917 C.3        1 MOL1         0.1219
      14    H9      20.932467   19.471481   25.217865 H          1 MOL1         0.0790
      15    C6      21.802809   19.388697   23.254810 C.3        1 MOL1        -0.1760
      16    H10     22.827861   19.657090   23.543457 H          1 MOL1         0.0833
      17    H11     21.766131   18.299136   23.360987 H          1 MOL1         0.0833
      18    C7      21.571836   19.809789   21.778814 C.3        1 MOL1        -0.1684
      19    H12     22.500510   20.246041   21.386414 H          1 MOL1         0.0833
      20    H13     20.830527   20.613722   21.706328 H          1 MOL1         0.0833
      21    C8      21.155393   18.644865   20.849186 C.3        1 MOL1        -0.1684
      22    H14     22.040284   18.029553   20.636649 H          1 MOL1         0.0833
      23    H15     20.847451   19.068629   19.883589 H          1 MOL1         0.0833
      24    O1      21.231268   21.371685   24.487917 O.3        1 MOL1        -0.5508
      25    H16     21.257715   21.787393   23.602312 H          1 MOL1         0.3780
@<TRIPOS>BOND
    1     1     2    1
    2     1     3    1
    3     1     4    1
    4     4     5    1
    5     4     6    1
    6     4     7    1
    7     7     8    1
    8     7     9    1
    9     7    10    1
   10    10    11    1
   11    10    12    1
   12    10    13    1
   13    13    14    1
   14    13    15    1
   15    15    16    1
   16    15    17    1
   17    15    18    1
   18    18    19    1
   19    18    20    1
   20     1    21    1
   21    18    21    1
   22    21    22    1
   23    21    23    1
   24    13    24    1
   25    24    25    1
@<TRIPOS>SUBSTRUCTURE
       1 MOL1            1 RESIDUE      1      MOL     
@<SCITEGIC>MOL_PROPERTY
VConf Rank
SciTegic.value.IntegerValue
226

@<SCITEGIC>MOL_PROPERTY
Conf_Id
SciTegic.value.IntegerValue
164

@<SCITEGIC>MOL_PROPERTY
Delta U+W
SciTegic.value.DoubleValue
0.008

@<SCITEGIC>MOL_PROPERTY
U+W
SciTegic.value.DoubleValue
10.922

@<SCITEGIC>MOL_PROPERTY
Grad RMS
SciTegic.value.DoubleValue
0.000000

@<SCITEGIC>MOL_PROPERTY
U
SciTegic.value.DoubleValue
12.433

@<SCITEGIC>MOL_PROPERTY
W
SciTegic.value.DoubleValue
-1.511

@<SCITEGIC>MOL_PROPERTY
W(PB)
SciTegic.value.DoubleValue
-3.669

@<SCITEGIC>MOL_PROPERTY
W(SA)
SciTegic.value.DoubleValue
2.157

@<SCITEGIC>MOL_PROPERTY
Valence
SciTegic.value.DoubleValue
19.007

@<SCITEGIC>MOL_PROPERTY
Coulomb
SciTegic.value.DoubleValue
-9.373

@<SCITEGIC>MOL_PROPERTY
VdW
SciTegic.value.DoubleValue
2.799

@<SCITEGIC>MOL_PROPERTY
VdW6
SciTegic.value.DoubleValue
-12.597

@<SCITEGIC>MOL_PROPERTY
VdW12
SciTegic.value.DoubleValue
15.396

@<SCITEGIC>MOL_PROPERTY
Bond
SciTegic.value.DoubleValue
0.425

@<SCITEGIC>MOL_PROPERTY
Angle
SciTegic.value.DoubleValue
4.784

@<SCITEGIC>MOL_PROPERTY
Pdih
SciTegic.value.DoubleValue
13.799

@<SCITEGIC>MOL_PROPERTY
Idih
SciTegic.value.DoubleValue
0.000

@<SCITEGIC>MOL_PROPERTY
Tether
SciTegic.value.DoubleValue
0.000

@<TRIPOS>MOLECULE
guest-s17_confgen4.mol2 : confsearch ligand conformer 227
          25          25           1
SMALL
USER_CHARGES
 
@<TRIPOS>ATOM
       1    C1      20.967728   18.130508   23.944186 C.3        1 MOL1        -0.1684
       2    H1      21.781783   18.827209   23.714306 H          1 MOL1         0.0833
       3    H2      21.372978   17.482884   24.733507 H          1 MOL1         0.0833
       4    C2      20.665299   17.229807   22.720669 C.3        1 MOL1        -0.1684
       5    H3      21.583619   16.674201   22.486379 H          1 MOL1         0.0833
       6    H4      19.923254   16.470883   23.003356 H          1 MOL1         0.0833
       7    C3      20.194279   17.934943   21.423100 C.3        1 MOL1        -0.1684
       8    H5      19.116677   18.130931   21.460863 H          1 MOL1         0.0833
       9    H6      20.313849   17.215240   20.601678 H          1 MOL1         0.0833
      10    C4      20.969898   19.227040   21.052052 C.3        1 MOL1        -0.1760
      11    H7      21.974488   19.221923   21.491999 H          1 MOL1         0.0833
      12    H8      21.128836   19.211339   19.965438 H          1 MOL1         0.0833
      13    C5      20.231063   20.548317   21.381937 C.3        1 MOL1         0.1219
      14    H9      19.231471   20.504668   20.926404 H          1 MOL1         0.0790
      15    C6      20.062637   20.891390   22.883407 C.3        1 MOL1        -0.1760
      16    H10     21.037387   20.941027   23.383584 H          1 MOL1         0.0833
      17    H11     19.657306   21.910803   22.935771 H          1 MOL1         0.0833
      18    C7      19.086617   19.966939   23.659008 C.3        1 MOL1        -0.1684
      19    H12     18.367614   19.505060   22.972884 H          1 MOL1         0.0833
      20    H13     18.472091   20.593959   24.319469 H          1 MOL1         0.0833
      21    C8      19.760168   18.890262   24.547750 C.3        1 MOL1        -0.1684
      22    H14     18.999270   18.165927   24.868499 H          1 MOL1         0.0833
      23    H15     20.107285   19.382529   25.466491 H          1 MOL1         0.0833
      24    O1      20.955811   21.609918   20.776180 O.3        1 MOL1        -0.5508
      25    H16     21.837235   21.621102   21.202506 H          1 MOL1         0.3780
@<TRIPOS>BOND
    1     1     2    1
    2     1     3    1
    3     1     4    1
    4     4     5    1
    5     4     6    1
    6     4     7    1
    7     7     8    1
    8     7     9    1
    9     7    10    1
   10    10    11    1
   11    10    12    1
   12    10    13    1
   13    13    14    1
   14    13    15    1
   15    15    16    1
   16    15    17    1
   17    15    18    1
   18    18    19    1
   19    18    20    1
   20     1    21    1
   21    18    21    1
   22    21    22    1
   23    21    23    1
   24    13    24    1
   25    24    25    1
@<TRIPOS>SUBSTRUCTURE
       1 MOL1            1 RESIDUE      1      MOL     
@<SCITEGIC>MOL_PROPERTY
VConf Rank
SciTegic.value.IntegerValue
227

@<SCITEGIC>MOL_PROPERTY
Conf_Id
SciTegic.value.IntegerValue
15

@<SCITEGIC>MOL_PROPERTY
Delta U+W
SciTegic.value.DoubleValue
-1.271

@<SCITEGIC>MOL_PROPERTY
U+W
SciTegic.value.DoubleValue
9.643

@<SCITEGIC>MOL_PROPERTY
Grad RMS
SciTegic.value.DoubleValue
0.000000

@<SCITEGIC>MOL_PROPERTY
U
SciTegic.value.DoubleValue
11.413

@<SCITEGIC>MOL_PROPERTY
W
SciTegic.value.DoubleValue
-1.770

@<SCITEGIC>MOL_PROPERTY
W(PB)
SciTegic.value.DoubleValue
-3.908

@<SCITEGIC>MOL_PROPERTY
W(SA)
SciTegic.value.DoubleValue
2.138

@<SCITEGIC>MOL_PROPERTY
Valence
SciTegic.value.DoubleValue
17.496

@<SCITEGIC>MOL_PROPERTY
Coulomb
SciTegic.value.DoubleValue
-8.736

@<SCITEGIC>MOL_PROPERTY
VdW
SciTegic.value.DoubleValue
2.653

@<SCITEGIC>MOL_PROPERTY
VdW6
SciTegic.value.DoubleValue
-12.485

@<SCITEGIC>MOL_PROPERTY
VdW12
SciTegic.value.DoubleValue
15.138

@<SCITEGIC>MOL_PROPERTY
Bond
SciTegic.value.DoubleValue
0.414

@<SCITEGIC>MOL_PROPERTY
Angle
SciTegic.value.DoubleValue
5.295

@<SCITEGIC>MOL_PROPERTY
Pdih
SciTegic.value.DoubleValue
11.787

@<SCITEGIC>MOL_PROPERTY
Idih
SciTegic.value.DoubleValue
0.000

@<SCITEGIC>MOL_PROPERTY
Tether
SciTegic.value.DoubleValue
0.000

@<TRIPOS>MOLECULE
guest-s17_confgen4.mol2 : confsearch ligand conformer 228
          25          25           1
SMALL
USER_CHARGES
 
@<TRIPOS>ATOM
       1    C1      21.881104   20.243933   23.153438 C.3        1 MOL1        -0.1684
       2    H1      22.702217   20.958220   23.303604 H          1 MOL1         0.0833
       3    H2      22.299674   19.271801   23.443132 H          1 MOL1         0.0833
       4    C2      20.738962   20.657240   24.118588 C.3        1 MOL1        -0.1684
       5    H3      21.086961   20.494814   25.147830 H          1 MOL1         0.0833
       6    H4      20.570836   21.739015   24.027637 H          1 MOL1         0.0833
       7    C3      19.380827   19.938075   23.935273 C.3        1 MOL1        -0.1684
       8    H5      18.845167   20.376941   23.085429 H          1 MOL1         0.0833
       9    H6      18.754492   20.164765   24.808831 H          1 MOL1         0.0833
      10    C4      19.493483   18.398149   23.789020 C.3        1 MOL1        -0.1760
      11    H7      20.513504   18.058786   24.000633 H          1 MOL1         0.0833
      12    H8      18.873736   17.929730   24.564709 H          1 MOL1         0.0833
      13    C5      19.024306   17.847891   22.422507 C.3        1 MOL1         0.1219
      14    H9      17.926309   17.900975   22.402176 H          1 MOL1         0.0790
      15    C6      19.540158   18.589885   21.162419 C.3        1 MOL1        -0.1760
      16    H10     19.259672   17.979214   20.293660 H          1 MOL1         0.0833
      17    H11     18.988052   19.527616   21.026950 H          1 MOL1         0.0833
      18    C7      21.065765   18.864204   21.082970 C.3        1 MOL1        -0.1684
      19    H12     21.333742   18.854764   20.017493 H          1 MOL1         0.0833
      20    H13     21.640392   18.043874   21.532051 H          1 MOL1         0.0833
      21    C8      21.522226   20.238045   21.646871 C.3        1 MOL1        -0.1684
      22    H14     20.791516   21.024909   21.416449 H          1 MOL1         0.0833
      23    H15     22.433448   20.519055   21.101083 H          1 MOL1         0.0833
      24    O1      19.416321   16.485154   22.334882 O.3        1 MOL1        -0.5508
      25    H16     20.391768   16.491494   22.259999 H          1 MOL1         0.3780
@<TRIPOS>BOND
    1     1     2    1
    2     1     3    1
    3     1     4    1
    4     4     5    1
    5     4     6    1
    6     4     7    1
    7     7     8    1
    8     7     9    1
    9     7    10    1
   10    10    11    1
   11    10    12    1
   12    10    13    1
   13    13    14    1
   14    13    15    1
   15    15    16    1
   16    15    17    1
   17    15    18    1
   18    18    19    1
   19    18    20    1
   20     1    21    1
   21    18    21    1
   22    21    22    1
   23    21    23    1
   24    13    24    1
   25    24    25    1
@<TRIPOS>SUBSTRUCTURE
       1 MOL1            1 RESIDUE      1      MOL     
@<SCITEGIC>MOL_PROPERTY
VConf Rank
SciTegic.value.IntegerValue
228

@<SCITEGIC>MOL_PROPERTY
Conf_Id
SciTegic.value.IntegerValue
115

@<SCITEGIC>MOL_PROPERTY
Delta U+W
SciTegic.value.DoubleValue
0.038

@<SCITEGIC>MOL_PROPERTY
U+W
SciTegic.value.DoubleValue
10.952

@<SCITEGIC>MOL_PROPERTY
Grad RMS
SciTegic.value.DoubleValue
0.000000

@<SCITEGIC>MOL_PROPERTY
U
SciTegic.value.DoubleValue
12.526

@<SCITEGIC>MOL_PROPERTY
W
SciTegic.value.DoubleValue
-1.575

@<SCITEGIC>MOL_PROPERTY
W(PB)
SciTegic.value.DoubleValue
-3.698

@<SCITEGIC>MOL_PROPERTY
W(SA)
SciTegic.value.DoubleValue
2.123

@<SCITEGIC>MOL_PROPERTY
Valence
SciTegic.value.DoubleValue
19.016

@<SCITEGIC>MOL_PROPERTY
Coulomb
SciTegic.value.DoubleValue
-9.226

@<SCITEGIC>MOL_PROPERTY
VdW
SciTegic.value.DoubleValue
2.737

@<SCITEGIC>MOL_PROPERTY
VdW6
SciTegic.value.DoubleValue
-12.612

@<SCITEGIC>MOL_PROPERTY
VdW12
SciTegic.value.DoubleValue
15.349

@<SCITEGIC>MOL_PROPERTY
Bond
SciTegic.value.DoubleValue
0.421

@<SCITEGIC>MOL_PROPERTY
Angle
SciTegic.value.DoubleValue
4.883

@<SCITEGIC>MOL_PROPERTY
Pdih
SciTegic.value.DoubleValue
13.711

@<SCITEGIC>MOL_PROPERTY
Idih
SciTegic.value.DoubleValue
0.000

@<SCITEGIC>MOL_PROPERTY
Tether
SciTegic.value.DoubleValue
0.000

@<TRIPOS>MOLECULE
guest-s17_confgen4.mol2 : confsearch ligand conformer 229
          25          25           1
SMALL
USER_CHARGES
 
@<TRIPOS>ATOM
       1    C1      21.880999   18.917621   24.098588 C.3        1 MOL1        -0.1684
       2    H1      22.257004   18.681531   25.103510 H          1 MOL1         0.0833
       3    H2      22.751373   18.839777   23.433106 H          1 MOL1         0.0833
       4    C2      21.365558   20.375305   24.130398 C.3        1 MOL1        -0.1684
       5    H3      20.575241   20.479470   24.886139 H          1 MOL1         0.0833
       6    H4      22.192713   21.008524   24.479464 H          1 MOL1         0.0833
       7    C3      20.881448   20.931262   22.771191 C.3        1 MOL1        -0.1684
       8    H5      21.563318   20.621736   21.967931 H          1 MOL1         0.0833
       9    H6      20.962446   22.026051   22.816347 H          1 MOL1         0.0833
      10    C4      19.407014   20.586831   22.428624 C.3        1 MOL1        -0.1760
      11    H7      18.871699   20.206792   23.307724 H          1 MOL1         0.0833
      12    H8      18.904229   21.526968   22.164220 H          1 MOL1         0.0833
      13    C5      19.237970   19.609189   21.243890 C.3        1 MOL1         0.1219
      14    H9      20.017641   19.816900   20.497138 H          1 MOL1         0.0790
      15    C6      19.297109   18.114249   21.628716 C.3        1 MOL1        -0.1760
      16    H10     18.485151   17.875170   22.328112 H          1 MOL1         0.0833
      17    H11     19.091577   17.530614   20.721777 H          1 MOL1         0.0833
      18    C7      20.651772   17.628299   22.199162 C.3        1 MOL1        -0.1684
      19    H12     21.484636   18.066446   21.633126 H          1 MOL1         0.0833
      20    H13     20.713886   16.546564   22.016897 H          1 MOL1         0.0833
      21    C8      20.824422   17.851718   23.724377 C.3        1 MOL1        -0.1684
      22    H14     21.153895   16.898590   24.160494 H          1 MOL1         0.0833
      23    H15     19.865125   18.076263   24.209307 H          1 MOL1         0.0833
      24    O1      17.965861   19.848448   20.653854 O.3        1 MOL1        -0.5508
      25    H16     17.899756   19.258439   19.874205 H          1 MOL1         0.3780
@<TRIPOS>BOND
    1     1     2    1
    2     1     3    1
    3     1     4    1
    4     4     5    1
    5     4     6    1
    6     4     7    1
    7     7     8    1
    8     7     9    1
    9     7    10    1
   10    10    11    1
   11    10    12    1
   12    10    13    1
   13    13    14    1
   14    13    15    1
   15    15    16    1
   16    15    17    1
   17    15    18    1
   18    18    19    1
   19    18    20    1
   20     1    21    1
   21    18    21    1
   22    21    22    1
   23    21    23    1
   24    13    24    1
   25    24    25    1
@<TRIPOS>SUBSTRUCTURE
       1 MOL1            1 RESIDUE      1      MOL     
@<SCITEGIC>MOL_PROPERTY
VConf Rank
SciTegic.value.IntegerValue
229

@<SCITEGIC>MOL_PROPERTY
Conf_Id
SciTegic.value.IntegerValue
30

@<SCITEGIC>MOL_PROPERTY
Delta U+W
SciTegic.value.DoubleValue
0.000

@<SCITEGIC>MOL_PROPERTY
U+W
SciTegic.value.DoubleValue
10.913

@<SCITEGIC>MOL_PROPERTY
Grad RMS
SciTegic.value.DoubleValue
0.000000

@<SCITEGIC>MOL_PROPERTY
U
SciTegic.value.DoubleValue
13.140

@<SCITEGIC>MOL_PROPERTY
W
SciTegic.value.DoubleValue
-2.227

@<SCITEGIC>MOL_PROPERTY
W(PB)
SciTegic.value.DoubleValue
-4.367

@<SCITEGIC>MOL_PROPERTY
W(SA)
SciTegic.value.DoubleValue
2.140

@<SCITEGIC>MOL_PROPERTY
Valence
SciTegic.value.DoubleValue
19.155

@<SCITEGIC>MOL_PROPERTY
Coulomb
SciTegic.value.DoubleValue
-8.157

@<SCITEGIC>MOL_PROPERTY
VdW
SciTegic.value.DoubleValue
2.142

@<SCITEGIC>MOL_PROPERTY
VdW6
SciTegic.value.DoubleValue
-11.576

@<SCITEGIC>MOL_PROPERTY
VdW12
SciTegic.value.DoubleValue
13.718

@<SCITEGIC>MOL_PROPERTY
Bond
SciTegic.value.DoubleValue
0.294

@<SCITEGIC>MOL_PROPERTY
Angle
SciTegic.value.DoubleValue
3.547

@<SCITEGIC>MOL_PROPERTY
Pdih
SciTegic.value.DoubleValue
15.314

@<SCITEGIC>MOL_PROPERTY
Idih
SciTegic.value.DoubleValue
0.000

@<SCITEGIC>MOL_PROPERTY
Tether
SciTegic.value.DoubleValue
0.000

@<TRIPOS>MOLECULE
guest-s17_confgen4.mol2 : confsearch ligand conformer 230
          25          25           1
SMALL
USER_CHARGES
 
@<TRIPOS>ATOM
       1    C1      21.909495   17.913256   22.207342 C.3        1 MOL1        -0.1684
       2    H1      22.374175   17.086289   22.761468 H          1 MOL1         0.0833
       3    H2      22.500092   18.022976   21.287598 H          1 MOL1         0.0833
       4    C2      22.063319   19.209919   23.039860 C.3        1 MOL1        -0.1684
       5    H3      23.088655   19.239780   23.433136 H          1 MOL1         0.0833
       6    H4      21.994896   20.081946   22.379221 H          1 MOL1         0.0833
       7    C3      21.074417   19.330106   24.227054 C.3        1 MOL1        -0.1684
       8    H5      21.649132   19.480063   25.151121 H          1 MOL1         0.0833
       9    H6      20.532330   18.390405   24.384343 H          1 MOL1         0.0833
      10    C4      20.065810   20.499086   24.093804 C.3        1 MOL1        -0.1760
      11    H7      19.300426   20.387133   24.873171 H          1 MOL1         0.0833
      12    H8      20.589804   21.437190   24.318652 H          1 MOL1         0.0833
      13    C5      19.367967   20.668248   22.721005 C.3        1 MOL1         0.1219
      14    H9      20.098138   21.034368   21.986980 H          1 MOL1         0.0790
      15    C6      18.701778   19.388124   22.159959 C.3        1 MOL1        -0.1760
      16    H10     18.341835   18.754440   22.980591 H          1 MOL1         0.0833
      17    H11     17.800871   19.686380   21.607323 H          1 MOL1         0.0833
      18    C7      19.581466   18.570080   21.172689 C.3        1 MOL1        -0.1684
      19    H12     20.184103   19.231160   20.535332 H          1 MOL1         0.0833
      20    H13     18.895392   18.051997   20.488488 H          1 MOL1         0.0833
      21    C8      20.467321   17.482379   21.829171 C.3        1 MOL1        -0.1684
      22    H14     20.558852   16.648580   21.119615 H          1 MOL1         0.0833
      23    H15     19.952078   17.053514   22.698038 H          1 MOL1         0.0833
      24    O1      18.364468   21.664215   22.879925 O.3        1 MOL1        -0.5508
      25    H16     17.981815   21.823666   21.991890 H          1 MOL1         0.3780
@<TRIPOS>BOND
    1     1     2    1
    2     1     3    1
    3     1     4    1
    4     4     5    1
    5     4     6    1
    6     4     7    1
    7     7     8    1
    8     7     9    1
    9     7    10    1
   10    10    11    1
   11    10    12    1
   12    10    13    1
   13    13    14    1
   14    13    15    1
   15    15    16    1
   16    15    17    1
   17    15    18    1
   18    18    19    1
   19    18    20    1
   20     1    21    1
   21    18    21    1
   22    21    22    1
   23    21    23    1
   24    13    24    1
   25    24    25    1
@<TRIPOS>SUBSTRUCTURE
       1 MOL1            1 RESIDUE      1      MOL     
@<SCITEGIC>MOL_PROPERTY
VConf Rank
SciTegic.value.IntegerValue
230

@<SCITEGIC>MOL_PROPERTY
Conf_Id
SciTegic.value.IntegerValue
162

@<SCITEGIC>MOL_PROPERTY
Delta U+W
SciTegic.value.DoubleValue
0.219

@<SCITEGIC>MOL_PROPERTY
U+W
SciTegic.value.DoubleValue
11.132

@<SCITEGIC>MOL_PROPERTY
Grad RMS
SciTegic.value.DoubleValue
0.000000

@<SCITEGIC>MOL_PROPERTY
U
SciTegic.value.DoubleValue
13.296

@<SCITEGIC>MOL_PROPERTY
W
SciTegic.value.DoubleValue
-2.164

@<SCITEGIC>MOL_PROPERTY
W(PB)
SciTegic.value.DoubleValue
-4.311

@<SCITEGIC>MOL_PROPERTY
W(SA)
SciTegic.value.DoubleValue
2.148

@<SCITEGIC>MOL_PROPERTY
Valence
SciTegic.value.DoubleValue
18.607

@<SCITEGIC>MOL_PROPERTY
Coulomb
SciTegic.value.DoubleValue
-8.339

@<SCITEGIC>MOL_PROPERTY
VdW
SciTegic.value.DoubleValue
3.028

@<SCITEGIC>MOL_PROPERTY
VdW6
SciTegic.value.DoubleValue
-12.271

@<SCITEGIC>MOL_PROPERTY
VdW12
SciTegic.value.DoubleValue
15.299

@<SCITEGIC>MOL_PROPERTY
Bond
SciTegic.value.DoubleValue
0.423

@<SCITEGIC>MOL_PROPERTY
Angle
SciTegic.value.DoubleValue
4.488

@<SCITEGIC>MOL_PROPERTY
Pdih
SciTegic.value.DoubleValue
13.696

@<SCITEGIC>MOL_PROPERTY
Idih
SciTegic.value.DoubleValue
0.000

@<SCITEGIC>MOL_PROPERTY
Tether
SciTegic.value.DoubleValue
0.000

@<TRIPOS>MOLECULE
guest-s17_confgen4.mol2 : confsearch ligand conformer 231
          25          25           1
SMALL
USER_CHARGES
 
@<TRIPOS>ATOM
       1    C1      21.333418   20.008924   24.235735 C.3        1 MOL1        -0.1684
       2    H1      22.201284   19.412018   23.927991 H          1 MOL1         0.0833
       3    H2      21.682721   20.582751   25.105031 H          1 MOL1         0.0833
       4    C2      20.960139   21.014302   23.117888 C.3        1 MOL1        -0.1684
       5    H3      19.923932   21.359308   23.233989 H          1 MOL1         0.0833
       6    H4      21.582393   21.906689   23.271464 H          1 MOL1         0.0833
       7    C3      21.229080   20.522249   21.668366 C.3        1 MOL1        -0.1684
       8    H5      22.148540   19.923856   21.616555 H          1 MOL1         0.0833
       9    H6      21.430058   21.416232   21.062121 H          1 MOL1         0.0833
      10    C4      20.047946   19.778462   20.992427 C.3        1 MOL1        -0.1760
      11    H7      19.094942   20.199282   21.335920 H          1 MOL1         0.0833
      12    H8      20.083452   19.999677   19.917710 H          1 MOL1         0.0833
      13    C5      20.040894   18.234532   21.124925 C.3        1 MOL1         0.1219
      14    H9      20.858785   17.839821   20.504965 H          1 MOL1         0.0790
      15    C6      20.231546   17.668534   22.552283 C.3        1 MOL1        -0.1760
      16    H10     19.996675   16.596335   22.537359 H          1 MOL1         0.0833
      17    H11     21.294583   17.710932   22.812535 H          1 MOL1         0.0833
      18    C7      19.366824   18.353069   23.643678 C.3        1 MOL1        -0.1684
      19    H12     18.749819   17.589303   24.135945 H          1 MOL1         0.0833
      20    H13     18.646260   19.046606   23.194339 H          1 MOL1         0.0833
      21    C8      20.185506   19.089763   24.731255 C.3        1 MOL1        -0.1684
      22    H14     20.615603   18.344150   25.413762 H          1 MOL1         0.0833
      23    H15     19.491063   19.685488   25.339180 H          1 MOL1         0.0833
      24    O1      18.802042   17.759924   20.611024 O.3        1 MOL1        -0.5508
      25    H16     18.813204   16.785112   20.704477 H          1 MOL1         0.3780
@<TRIPOS>BOND
    1     1     2    1
    2     1     3    1
    3     1     4    1
    4     4     5    1
    5     4     6    1
    6     4     7    1
    7     7     8    1
    8     7     9    1
    9     7    10    1
   10    10    11    1
   11    10    12    1
   12    10    13    1
   13    13    14    1
   14    13    15    1
   15    15    16    1
   16    15    17    1
   17    15    18    1
   18    18    19    1
   19    18    20    1
   20     1    21    1
   21    18    21    1
   22    21    22    1
   23    21    23    1
   24    13    24    1
   25    24    25    1
@<TRIPOS>SUBSTRUCTURE
       1 MOL1            1 RESIDUE      1      MOL     
@<SCITEGIC>MOL_PROPERTY
VConf Rank
SciTegic.value.IntegerValue
231

@<SCITEGIC>MOL_PROPERTY
Conf_Id
SciTegic.value.IntegerValue
155

@<SCITEGIC>MOL_PROPERTY
Delta U+W
SciTegic.value.DoubleValue
0.339

@<SCITEGIC>MOL_PROPERTY
U+W
SciTegic.value.DoubleValue
11.252

@<SCITEGIC>MOL_PROPERTY
Grad RMS
SciTegic.value.DoubleValue
0.000000

@<SCITEGIC>MOL_PROPERTY
U
SciTegic.value.DoubleValue
13.420

@<SCITEGIC>MOL_PROPERTY
W
SciTegic.value.DoubleValue
-2.167

@<SCITEGIC>MOL_PROPERTY
W(PB)
SciTegic.value.DoubleValue
-4.325

@<SCITEGIC>MOL_PROPERTY
W(SA)
SciTegic.value.DoubleValue
2.157

@<SCITEGIC>MOL_PROPERTY
Valence
SciTegic.value.DoubleValue
18.609

@<SCITEGIC>MOL_PROPERTY
Coulomb
SciTegic.value.DoubleValue
-8.052

@<SCITEGIC>MOL_PROPERTY
VdW
SciTegic.value.DoubleValue
2.863

@<SCITEGIC>MOL_PROPERTY
VdW6
SciTegic.value.DoubleValue
-12.524

@<SCITEGIC>MOL_PROPERTY
VdW12
SciTegic.value.DoubleValue
15.387

@<SCITEGIC>MOL_PROPERTY
Bond
SciTegic.value.DoubleValue
0.430

@<SCITEGIC>MOL_PROPERTY
Angle
SciTegic.value.DoubleValue
4.724

@<SCITEGIC>MOL_PROPERTY
Pdih
SciTegic.value.DoubleValue
13.455

@<SCITEGIC>MOL_PROPERTY
Idih
SciTegic.value.DoubleValue
0.000

@<SCITEGIC>MOL_PROPERTY
Tether
SciTegic.value.DoubleValue
0.000

@<TRIPOS>MOLECULE
guest-s17_confgen4.mol2 : confsearch ligand conformer 232
          25          25           1
SMALL
USER_CHARGES
 
@<TRIPOS>ATOM
       1    C1      19.639743   20.690695   23.842067 C.3        1 MOL1        -0.1684
       2    H1      19.856948   21.704656   23.480068 H          1 MOL1         0.0833
       3    H2      19.060070   20.827813   24.765084 H          1 MOL1         0.0833
       4    C2      18.709672   19.974280   22.827898 C.3        1 MOL1        -0.1684
       5    H3      18.398188   19.009982   23.241717 H          1 MOL1         0.0833
       6    H4      17.773035   20.545844   22.775544 H          1 MOL1         0.0833
       7    C3      19.226667   19.809479   21.368867 C.3        1 MOL1        -0.1684
       8    H5      18.966704   20.726095   20.822252 H          1 MOL1         0.0833
       9    H6      18.660828   19.005146   20.879383 H          1 MOL1         0.0833
      10    C4      20.745335   19.567270   21.152336 C.3        1 MOL1        -0.1760
      11    H7      20.935041   19.619647   20.072259 H          1 MOL1         0.0833
      12    H8      21.304834   20.421145   21.544268 H          1 MOL1         0.0833
      13    C5      21.354572   18.234618   21.678812 C.3        1 MOL1         0.1219
      14    H9      22.431622   18.395455   21.830018 H          1 MOL1         0.0790
      15    C6      20.772989   17.644851   22.988192 C.3        1 MOL1        -0.1760
      16    H10     19.713411   17.418311   22.838215 H          1 MOL1         0.0833
      17    H11     21.230198   16.657700   23.136911 H          1 MOL1         0.0833
      18    C7      20.987168   18.447086   24.306847 C.3        1 MOL1        -0.1684
      19    H12     21.962904   18.152029   24.716383 H          1 MOL1         0.0833
      20    H13     20.246881   18.116419   25.047764 H          1 MOL1         0.0833
      21    C8      20.977584   19.996620   24.232422 C.3        1 MOL1        -0.1684
      22    H14     21.794412   20.334487   23.586965 H          1 MOL1         0.0833
      23    H15     21.260400   20.377368   25.223344 H          1 MOL1         0.0833
      24    O1      21.182632   17.247266   20.667992 O.3        1 MOL1        -0.5508
      25    H16     21.596887   17.600611   19.853878 H          1 MOL1         0.3780
@<TRIPOS>BOND
    1     1     2    1
    2     1     3    1
    3     1     4    1
    4     4     5    1
    5     4     6    1
    6     4     7    1
    7     7     8    1
    8     7     9    1
    9     7    10    1
   10    10    11    1
   11    10    12    1
   12    10    13    1
   13    13    14    1
   14    13    15    1
   15    15    16    1
   16    15    17    1
   17    15    18    1
   18    18    19    1
   19    18    20    1
   20     1    21    1
   21    18    21    1
   22    21    22    1
   23    21    23    1
   24    13    24    1
   25    24    25    1
@<TRIPOS>SUBSTRUCTURE
       1 MOL1            1 RESIDUE      1      MOL     
@<SCITEGIC>MOL_PROPERTY
VConf Rank
SciTegic.value.IntegerValue
232

@<SCITEGIC>MOL_PROPERTY
Conf_Id
SciTegic.value.IntegerValue
146

@<SCITEGIC>MOL_PROPERTY
Delta U+W
SciTegic.value.DoubleValue
2.553

@<SCITEGIC>MOL_PROPERTY
U+W
SciTegic.value.DoubleValue
13.466

@<SCITEGIC>MOL_PROPERTY
Grad RMS
SciTegic.value.DoubleValue
0.000000

@<SCITEGIC>MOL_PROPERTY
U
SciTegic.value.DoubleValue
15.643

@<SCITEGIC>MOL_PROPERTY
W
SciTegic.value.DoubleValue
-2.176

@<SCITEGIC>MOL_PROPERTY
W(PB)
SciTegic.value.DoubleValue
-4.307

@<SCITEGIC>MOL_PROPERTY
W(SA)
SciTegic.value.DoubleValue
2.131

@<SCITEGIC>MOL_PROPERTY
Valence
SciTegic.value.DoubleValue
18.916

@<SCITEGIC>MOL_PROPERTY
Coulomb
SciTegic.value.DoubleValue
-7.506

@<SCITEGIC>MOL_PROPERTY
VdW
SciTegic.value.DoubleValue
4.232

@<SCITEGIC>MOL_PROPERTY
VdW6
SciTegic.value.DoubleValue
-13.632

@<SCITEGIC>MOL_PROPERTY
VdW12
SciTegic.value.DoubleValue
17.864

@<SCITEGIC>MOL_PROPERTY
Bond
SciTegic.value.DoubleValue
0.735

@<SCITEGIC>MOL_PROPERTY
Angle
SciTegic.value.DoubleValue
9.140

@<SCITEGIC>MOL_PROPERTY
Pdih
SciTegic.value.DoubleValue
9.042

@<SCITEGIC>MOL_PROPERTY
Idih
SciTegic.value.DoubleValue
0.000

@<SCITEGIC>MOL_PROPERTY
Tether
SciTegic.value.DoubleValue
0.000

@<TRIPOS>MOLECULE
guest-s17_confgen4.mol2 : confsearch ligand conformer 233
          25          25           1
SMALL
USER_CHARGES
 
@<TRIPOS>ATOM
       1    C1      21.123023   21.096444   22.170759 C.3        1 MOL1        -0.1684
       2    H1      21.918929   21.571522   22.760114 H          1 MOL1         0.0833
       3    H2      20.904391   21.794674   21.351255 H          1 MOL1         0.0833
       4    C2      19.843159   20.984408   23.036517 C.3        1 MOL1        -0.1684
       5    H3      19.547868   22.005210   23.315029 H          1 MOL1         0.0833
       6    H4      19.007214   20.610409   22.434466 H          1 MOL1         0.0833
       7    C3      19.975711   20.170475   24.348129 C.3        1 MOL1        -0.1684
       8    H5      19.033230   20.280054   24.901937 H          1 MOL1         0.0833
       9    H6      20.748273   20.626331   24.981994 H          1 MOL1         0.0833
      10    C4      20.269687   18.654028   24.207878 C.3        1 MOL1        -0.1760
      11    H7      21.339481   18.487275   24.047247 H          1 MOL1         0.0833
      12    H8      20.064060   18.193877   25.183846 H          1 MOL1         0.0833
      13    C5      19.444284   17.921458   23.118784 C.3        1 MOL1         0.1219
      14    H9      18.549977   18.510879   22.875799 H          1 MOL1         0.0790
      15    C6      20.232853   17.625415   21.817906 C.3        1 MOL1        -0.1760
      16    H10     21.143201   17.064620   22.067895 H          1 MOL1         0.0833
      17    H11     19.627421   16.948283   21.201233 H          1 MOL1         0.0833
      18    C7      20.608347   18.844280   20.931916 C.3        1 MOL1        -0.1684
      19    H12     19.710533   19.401295   20.634489 H          1 MOL1         0.0833
      20    H13     21.020734   18.444649   19.995319 H          1 MOL1         0.0833
      21    C8      21.674292   19.789873   21.543554 C.3        1 MOL1        -0.1684
      22    H14     22.368633   20.083984   20.744537 H          1 MOL1         0.0833
      23    H15     22.300245   19.250097   22.263031 H          1 MOL1         0.0833
      24    O1      19.021456   16.671140   23.651017 O.3        1 MOL1        -0.5508
      25    H16     18.454093   16.251216   22.971323 H          1 MOL1         0.3780
@<TRIPOS>BOND
    1     1     2    1
    2     1     3    1
    3     1     4    1
    4     4     5    1
    5     4     6    1
    6     4     7    1
    7     7     8    1
    8     7     9    1
    9     7    10    1
   10    10    11    1
   11    10    12    1
   12    10    13    1
   13    13    14    1
   14    13    15    1
   15    15    16    1
   16    15    17    1
   17    15    18    1
   18    18    19    1
   19    18    20    1
   20     1    21    1
   21    18    21    1
   22    21    22    1
   23    21    23    1
   24    13    24    1
   25    24    25    1
@<TRIPOS>SUBSTRUCTURE
       1 MOL1            1 RESIDUE      1      MOL     
@<SCITEGIC>MOL_PROPERTY
VConf Rank
SciTegic.value.IntegerValue
233

@<SCITEGIC>MOL_PROPERTY
Conf_Id
SciTegic.value.IntegerValue
62

@<SCITEGIC>MOL_PROPERTY
Delta U+W
SciTegic.value.DoubleValue
-1.779

@<SCITEGIC>MOL_PROPERTY
U+W
SciTegic.value.DoubleValue
9.134

@<SCITEGIC>MOL_PROPERTY
Grad RMS
SciTegic.value.DoubleValue
0.000000

@<SCITEGIC>MOL_PROPERTY
U
SciTegic.value.DoubleValue
11.364

@<SCITEGIC>MOL_PROPERTY
W
SciTegic.value.DoubleValue
-2.230

@<SCITEGIC>MOL_PROPERTY
W(PB)
SciTegic.value.DoubleValue
-4.359

@<SCITEGIC>MOL_PROPERTY
W(SA)
SciTegic.value.DoubleValue
2.129

@<SCITEGIC>MOL_PROPERTY
Valence
SciTegic.value.DoubleValue
16.582

@<SCITEGIC>MOL_PROPERTY
Coulomb
SciTegic.value.DoubleValue
-8.150

@<SCITEGIC>MOL_PROPERTY
VdW
SciTegic.value.DoubleValue
2.933

@<SCITEGIC>MOL_PROPERTY
VdW6
SciTegic.value.DoubleValue
-12.531

@<SCITEGIC>MOL_PROPERTY
VdW12
SciTegic.value.DoubleValue
15.464

@<SCITEGIC>MOL_PROPERTY
Bond
SciTegic.value.DoubleValue
0.439

@<SCITEGIC>MOL_PROPERTY
Angle
SciTegic.value.DoubleValue
5.099

@<SCITEGIC>MOL_PROPERTY
Pdih
SciTegic.value.DoubleValue
11.044

@<SCITEGIC>MOL_PROPERTY
Idih
SciTegic.value.DoubleValue
0.000

@<SCITEGIC>MOL_PROPERTY
Tether
SciTegic.value.DoubleValue
0.000

@<TRIPOS>MOLECULE
guest-s17_confgen4.mol2 : confsearch ligand conformer 234
          25          25           1
SMALL
USER_CHARGES
 
@<TRIPOS>ATOM
       1    C1      20.859326   17.823641   21.505985 C.3        1 MOL1        -0.1684
       2    H1      20.719544   17.321997   22.470317 H          1 MOL1         0.0833
       3    H2      21.168019   17.023103   20.820064 H          1 MOL1         0.0833
       4    C2      22.029216   18.835701   21.588121 C.3        1 MOL1        -0.1684
       5    H3      22.933288   18.272200   21.856461 H          1 MOL1         0.0833
       6    H4      22.222491   19.248741   20.588852 H          1 MOL1         0.0833
       7    C3      21.882939   20.004425   22.595796 C.3        1 MOL1        -0.1684
       8    H5      21.294968   20.818871   22.157665 H          1 MOL1         0.0833
       9    H6      22.883499   20.434814   22.739569 H          1 MOL1         0.0833
      10    C4      21.318832   19.613047   23.987888 C.3        1 MOL1        -0.1760
      11    H7      21.498243   18.552351   24.202335 H          1 MOL1         0.0833
      12    H8      21.900637   20.162499   24.739519 H          1 MOL1         0.0833
      13    C5      19.826636   19.966999   24.210285 C.3        1 MOL1         0.1219
      14    H9      19.686925   21.032651   23.978235 H          1 MOL1         0.0790
      15    C6      18.796145   19.155834   23.385657 C.3        1 MOL1        -0.1760
      16    H10     18.902949   18.082757   23.585376 H          1 MOL1         0.0833
      17    H11     17.801212   19.422199   23.766402 H          1 MOL1         0.0833
      18    C7      18.801560   19.445929   21.860736 C.3        1 MOL1        -0.1684
      19    H12     19.211184   20.442490   21.660683 H          1 MOL1         0.0833
      20    H13     17.759006   19.503975   21.519180 H          1 MOL1         0.0833
      21    C8      19.510291   18.380147   20.986248 C.3        1 MOL1        -0.1684
      22    H14     19.649968   18.784500   19.974580 H          1 MOL1         0.0833
      23    H15     18.825084   17.528840   20.873780 H          1 MOL1         0.0833
      24    O1      19.533814   19.757089   25.586010 O.3        1 MOL1        -0.5508
      25    H16     20.146416   20.326933   26.096054 H          1 MOL1         0.3780
@<TRIPOS>BOND
    1     1     2    1
    2     1     3    1
    3     1     4    1
    4     4     5    1
    5     4     6    1
    6     4     7    1
    7     7     8    1
    8     7     9    1
    9     7    10    1
   10    10    11    1
   11    10    12    1
   12    10    13    1
   13    13    14    1
   14    13    15    1
   15    15    16    1
   16    15    17    1
   17    15    18    1
   18    18    19    1
   19    18    20    1
   20     1    21    1
   21    18    21    1
   22    21    22    1
   23    21    23    1
   24    13    24    1
   25    24    25    1
@<TRIPOS>SUBSTRUCTURE
       1 MOL1            1 RESIDUE      1      MOL     
@<SCITEGIC>MOL_PROPERTY
VConf Rank
SciTegic.value.IntegerValue
234

@<SCITEGIC>MOL_PROPERTY
Conf_Id
SciTegic.value.IntegerValue
121

@<SCITEGIC>MOL_PROPERTY
Delta U+W
SciTegic.value.DoubleValue
-1.283

@<SCITEGIC>MOL_PROPERTY
U+W
SciTegic.value.DoubleValue
9.630

@<SCITEGIC>MOL_PROPERTY
Grad RMS
SciTegic.value.DoubleValue
0.000000

@<SCITEGIC>MOL_PROPERTY
U
SciTegic.value.DoubleValue
11.876

@<SCITEGIC>MOL_PROPERTY
W
SciTegic.value.DoubleValue
-2.246

@<SCITEGIC>MOL_PROPERTY
W(PB)
SciTegic.value.DoubleValue
-4.376

@<SCITEGIC>MOL_PROPERTY
W(SA)
SciTegic.value.DoubleValue
2.130

@<SCITEGIC>MOL_PROPERTY
Valence
SciTegic.value.DoubleValue
17.153

@<SCITEGIC>MOL_PROPERTY
Coulomb
SciTegic.value.DoubleValue
-7.966

@<SCITEGIC>MOL_PROPERTY
VdW
SciTegic.value.DoubleValue
2.689

@<SCITEGIC>MOL_PROPERTY
VdW6
SciTegic.value.DoubleValue
-12.458

@<SCITEGIC>MOL_PROPERTY
VdW12
SciTegic.value.DoubleValue
15.147

@<SCITEGIC>MOL_PROPERTY
Bond
SciTegic.value.DoubleValue
0.421

@<SCITEGIC>MOL_PROPERTY
Angle
SciTegic.value.DoubleValue
5.258

@<SCITEGIC>MOL_PROPERTY
Pdih
SciTegic.value.DoubleValue
11.475

@<SCITEGIC>MOL_PROPERTY
Idih
SciTegic.value.DoubleValue
0.000

@<SCITEGIC>MOL_PROPERTY
Tether
SciTegic.value.DoubleValue
0.000

@<TRIPOS>MOLECULE
guest-s17_confgen4.mol2 : confsearch ligand conformer 235
          25          25           1
SMALL
USER_CHARGES
 
@<TRIPOS>ATOM
       1    C1      20.017740   19.620481   20.867854 C.3        1 MOL1        -0.1684
       2    H1      19.083995   19.171237   21.224817 H          1 MOL1         0.0833
       3    H2      19.826196   19.853909   19.811699 H          1 MOL1         0.0833
       4    C2      21.166643   18.582172   20.908575 C.3        1 MOL1        -0.1684
       5    H3      20.876728   17.745588   20.258222 H          1 MOL1         0.0833
       6    H4      22.065254   19.016879   20.450305 H          1 MOL1         0.0833
       7    C3      21.541342   17.996794   22.294164 C.3        1 MOL1        -0.1684
       8    H5      22.223532   18.670402   22.825027 H          1 MOL1         0.0833
       9    H6      22.135812   17.090849   22.113013 H          1 MOL1         0.0833
      10    C4      20.339859   17.614608   23.199672 C.3        1 MOL1        -0.1760
      11    H7      19.442380   17.411985   22.602793 H          1 MOL1         0.0833
      12    H8      20.585218   16.660243   23.684230 H          1 MOL1         0.0833
      13    C5      20.023690   18.625994   24.329739 C.3        1 MOL1         0.1219
      14    H9      20.947818   18.802059   24.898922 H          1 MOL1         0.0790
      15    C6      19.456941   19.998652   23.887030 C.3        1 MOL1        -0.1760
      16    H10     18.535243   19.864987   23.307497 H          1 MOL1         0.0833
      17    H11     19.152254   20.534817   24.795345 H          1 MOL1         0.0833
      18    C7      20.463282   20.908935   23.133392 C.3        1 MOL1        -0.1684
      19    H12     21.493665   20.639418   23.391587 H          1 MOL1         0.0833
      20    H13     20.345703   21.934805   23.508611 H          1 MOL1         0.0833
      21    C8      20.284034   20.962315   21.594646 C.3        1 MOL1        -0.1684
      22    H14     21.163442   21.447510   21.149988 H          1 MOL1         0.0833
      23    H15     19.436803   21.627325   21.378200 H          1 MOL1         0.0833
      24    O1      19.066144   18.020878   25.189602 O.3        1 MOL1        -0.5508
      25    H16     18.924846   18.639731   25.936065 H          1 MOL1         0.3780
@<TRIPOS>BOND
    1     1     2    1
    2     1     3    1
    3     1     4    1
    4     4     5    1
    5     4     6    1
    6     4     7    1
    7     7     8    1
    8     7     9    1
    9     7    10    1
   10    10    11    1
   11    10    12    1
   12    10    13    1
   13    13    14    1
   14    13    15    1
   15    15    16    1
   16    15    17    1
   17    15    18    1
   18    18    19    1
   19    18    20    1
   20     1    21    1
   21    18    21    1
   22    21    22    1
   23    21    23    1
   24    13    24    1
   25    24    25    1
@<TRIPOS>SUBSTRUCTURE
       1 MOL1            1 RESIDUE      1      MOL     
@<SCITEGIC>MOL_PROPERTY
VConf Rank
SciTegic.value.IntegerValue
235

@<SCITEGIC>MOL_PROPERTY
Conf_Id
SciTegic.value.IntegerValue
24

@<SCITEGIC>MOL_PROPERTY
Delta U+W
SciTegic.value.DoubleValue
-1.236

@<SCITEGIC>MOL_PROPERTY
U+W
SciTegic.value.DoubleValue
9.678

@<SCITEGIC>MOL_PROPERTY
Grad RMS
SciTegic.value.DoubleValue
0.000000

@<SCITEGIC>MOL_PROPERTY
U
SciTegic.value.DoubleValue
11.876

@<SCITEGIC>MOL_PROPERTY
W
SciTegic.value.DoubleValue
-2.199

@<SCITEGIC>MOL_PROPERTY
W(PB)
SciTegic.value.DoubleValue
-4.335

@<SCITEGIC>MOL_PROPERTY
W(SA)
SciTegic.value.DoubleValue
2.137

@<SCITEGIC>MOL_PROPERTY
Valence
SciTegic.value.DoubleValue
17.153

@<SCITEGIC>MOL_PROPERTY
Coulomb
SciTegic.value.DoubleValue
-7.966

@<SCITEGIC>MOL_PROPERTY
VdW
SciTegic.value.DoubleValue
2.689

@<SCITEGIC>MOL_PROPERTY
VdW6
SciTegic.value.DoubleValue
-12.458

@<SCITEGIC>MOL_PROPERTY
VdW12
SciTegic.value.DoubleValue
15.147

@<SCITEGIC>MOL_PROPERTY
Bond
SciTegic.value.DoubleValue
0.421

@<SCITEGIC>MOL_PROPERTY
Angle
SciTegic.value.DoubleValue
5.258

@<SCITEGIC>MOL_PROPERTY
Pdih
SciTegic.value.DoubleValue
11.475

@<SCITEGIC>MOL_PROPERTY
Idih
SciTegic.value.DoubleValue
0.000

@<SCITEGIC>MOL_PROPERTY
Tether
SciTegic.value.DoubleValue
0.000

@<TRIPOS>MOLECULE
guest-s17_confgen4.mol2 : confsearch ligand conformer 236
          25          25           1
SMALL
USER_CHARGES
 
@<TRIPOS>ATOM
       1    C1      20.156543   20.767695   21.195733 C.3        1 MOL1        -0.1684
       2    H1      20.231044   20.592066   20.113892 H          1 MOL1         0.0833
       3    H2      20.092861   21.857805   21.315977 H          1 MOL1         0.0833
       4    C2      18.829655   20.151969   21.713854 C.3        1 MOL1        -0.1684
       5    H3      18.561354   20.576941   22.689409 H          1 MOL1         0.0833
       6    H4      18.034467   20.488638   21.034592 H          1 MOL1         0.0833
       7    C3      18.777404   18.605417   21.777945 C.3        1 MOL1        -0.1684
       8    H5      19.353093   18.161201   20.954714 H          1 MOL1         0.0833
       9    H6      17.734178   18.313851   21.593899 H          1 MOL1         0.0833
      10    C4      19.183862   17.986882   23.145474 C.3        1 MOL1        -0.1760
      11    H7      18.841362   18.616949   23.976250 H          1 MOL1         0.0833
      12    H8      18.626613   17.044932   23.241140 H          1 MOL1         0.0833
      13    C5      20.690324   17.662298   23.294792 C.3        1 MOL1         0.1219
      14    H9      21.101050   17.446938   22.299503 H          1 MOL1         0.0790
      15    C6      21.543038   18.764361   23.973131 C.3        1 MOL1        -0.1760
      16    H10     21.309315   18.797574   25.045345 H          1 MOL1         0.0833
      17    H11     22.595780   18.460332   23.902972 H          1 MOL1         0.0833
      18    C7      21.411172   20.199785   23.404967 C.3        1 MOL1        -0.1684
      19    H12     22.229631   20.805693   23.816982 H          1 MOL1         0.0833
      20    H13     20.496972   20.666967   23.789246 H          1 MOL1         0.0833
      21    C8      21.466627   20.275412   21.858177 C.3        1 MOL1        -0.1684
      22    H14     21.758087   19.311204   21.425730 H          1 MOL1         0.0833
      23    H15     22.272048   20.964298   21.569032 H          1 MOL1         0.0833
      24    O1      20.818228   16.485787   24.082935 O.3        1 MOL1        -0.5508
      25    H16     20.428157   16.693926   24.956718 H          1 MOL1         0.3780
@<TRIPOS>BOND
    1     1     2    1
    2     1     3    1
    3     1     4    1
    4     4     5    1
    5     4     6    1
    6     4     7    1
    7     7     8    1
    8     7     9    1
    9     7    10    1
   10    10    11    1
   11    10    12    1
   12    10    13    1
   13    13    14    1
   14    13    15    1
   15    15    16    1
   16    15    17    1
   17    15    18    1
   18    18    19    1
   19    18    20    1
   20     1    21    1
   21    18    21    1
   22    21    22    1
   23    21    23    1
   24    13    24    1
   25    24    25    1
@<TRIPOS>SUBSTRUCTURE
       1 MOL1            1 RESIDUE      1      MOL     
@<SCITEGIC>MOL_PROPERTY
VConf Rank
SciTegic.value.IntegerValue
236

@<SCITEGIC>MOL_PROPERTY
Conf_Id
SciTegic.value.IntegerValue
167

@<SCITEGIC>MOL_PROPERTY
Delta U+W
SciTegic.value.DoubleValue
0.388

@<SCITEGIC>MOL_PROPERTY
U+W
SciTegic.value.DoubleValue
11.301

@<SCITEGIC>MOL_PROPERTY
Grad RMS
SciTegic.value.DoubleValue
0.000000

@<SCITEGIC>MOL_PROPERTY
U
SciTegic.value.DoubleValue
13.202

@<SCITEGIC>MOL_PROPERTY
W
SciTegic.value.DoubleValue
-1.901

@<SCITEGIC>MOL_PROPERTY
W(PB)
SciTegic.value.DoubleValue
-4.065

@<SCITEGIC>MOL_PROPERTY
W(SA)
SciTegic.value.DoubleValue
2.163

@<SCITEGIC>MOL_PROPERTY
Valence
SciTegic.value.DoubleValue
18.957

@<SCITEGIC>MOL_PROPERTY
Coulomb
SciTegic.value.DoubleValue
-8.753

@<SCITEGIC>MOL_PROPERTY
VdW
SciTegic.value.DoubleValue
2.998

@<SCITEGIC>MOL_PROPERTY
VdW6
SciTegic.value.DoubleValue
-12.294

@<SCITEGIC>MOL_PROPERTY
VdW12
SciTegic.value.DoubleValue
15.292

@<SCITEGIC>MOL_PROPERTY
Bond
SciTegic.value.DoubleValue
0.419

@<SCITEGIC>MOL_PROPERTY
Angle
SciTegic.value.DoubleValue
4.543

@<SCITEGIC>MOL_PROPERTY
Pdih
SciTegic.value.DoubleValue
13.996

@<SCITEGIC>MOL_PROPERTY
Idih
SciTegic.value.DoubleValue
0.000

@<SCITEGIC>MOL_PROPERTY
Tether
SciTegic.value.DoubleValue
0.000

@<TRIPOS>MOLECULE
guest-s17_confgen4.mol2 : confsearch ligand conformer 237
          25          25           1
SMALL
USER_CHARGES
 
@<TRIPOS>ATOM
       1    C1      18.895125   17.806392   22.189537 C.3        1 MOL1        -0.1684
       2    H1      18.540154   17.668233   21.159289 H          1 MOL1         0.0833
       3    H2      18.372457   17.046845   22.786886 H          1 MOL1         0.0833
       4    C2      18.439126   19.199864   22.695112 C.3        1 MOL1        -0.1684
       5    H3      18.551119   19.952734   21.906793 H          1 MOL1         0.0833
       6    H4      17.355149   19.141900   22.864430 H          1 MOL1         0.0833
       7    C3      19.106332   19.683844   24.008673 C.3        1 MOL1        -0.1684
       8    H5      19.447261   18.834356   24.614403 H          1 MOL1         0.0833
       9    H6      18.329896   20.173185   24.612491 H          1 MOL1         0.0833
      10    C4      20.249399   20.717721   23.816986 C.3        1 MOL1        -0.1760
      11    H7      19.873442   21.575502   23.244177 H          1 MOL1         0.0833
      12    H8      20.506220   21.113615   24.808499 H          1 MOL1         0.0833
      13    C5      21.556455   20.202658   23.164511 C.3        1 MOL1         0.1219
      14    H9      21.913126   19.324593   23.719438 H          1 MOL1         0.0790
      15    C6      21.417819   19.852375   21.660248 C.3        1 MOL1        -0.1760
      16    H10     20.560401   20.378513   21.228638 H          1 MOL1         0.0833
      17    H11     22.283200   20.246675   21.111079 H          1 MOL1         0.0833
      18    C7      21.329418   18.336403   21.345958 C.3        1 MOL1        -0.1684
      19    H12     22.342752   17.917635   21.414752 H          1 MOL1         0.0833
      20    H13     21.024213   18.206760   20.298774 H          1 MOL1         0.0833
      21    C8      20.409253   17.484439   22.256081 C.3        1 MOL1        -0.1684
      22    H14     20.759488   17.514139   23.294157 H          1 MOL1         0.0833
      23    H15     20.532681   16.435690   21.953239 H          1 MOL1         0.0833
      24    O1      22.528690   21.233301   23.293728 O.3        1 MOL1        -0.5508
      25    H16     23.368834   20.872469   22.940917 H          1 MOL1         0.3780
@<TRIPOS>BOND
    1     1     2    1
    2     1     3    1
    3     1     4    1
    4     4     5    1
    5     4     6    1
    6     4     7    1
    7     7     8    1
    8     7     9    1
    9     7    10    1
   10    10    11    1
   11    10    12    1
   12    10    13    1
   13    13    14    1
   14    13    15    1
   15    15    16    1
   16    15    17    1
   17    15    18    1
   18    18    19    1
   19    18    20    1
   20     1    21    1
   21    18    21    1
   22    21    22    1
   23    21    23    1
   24    13    24    1
   25    24    25    1
@<TRIPOS>SUBSTRUCTURE
       1 MOL1            1 RESIDUE      1      MOL     
@<SCITEGIC>MOL_PROPERTY
VConf Rank
SciTegic.value.IntegerValue
237

@<SCITEGIC>MOL_PROPERTY
Conf_Id
SciTegic.value.IntegerValue
60

@<SCITEGIC>MOL_PROPERTY
Delta U+W
SciTegic.value.DoubleValue
-1.838

@<SCITEGIC>MOL_PROPERTY
U+W
SciTegic.value.DoubleValue
9.075

@<SCITEGIC>MOL_PROPERTY
Grad RMS
SciTegic.value.DoubleValue
0.000000

@<SCITEGIC>MOL_PROPERTY
U
SciTegic.value.DoubleValue
11.150

@<SCITEGIC>MOL_PROPERTY
W
SciTegic.value.DoubleValue
-2.074

@<SCITEGIC>MOL_PROPERTY
W(PB)
SciTegic.value.DoubleValue
-4.196

@<SCITEGIC>MOL_PROPERTY
W(SA)
SciTegic.value.DoubleValue
2.121

@<SCITEGIC>MOL_PROPERTY
Valence
SciTegic.value.DoubleValue
16.582

@<SCITEGIC>MOL_PROPERTY
Coulomb
SciTegic.value.DoubleValue
-8.361

@<SCITEGIC>MOL_PROPERTY
VdW
SciTegic.value.DoubleValue
2.928

@<SCITEGIC>MOL_PROPERTY
VdW6
SciTegic.value.DoubleValue
-12.539

@<SCITEGIC>MOL_PROPERTY
VdW12
SciTegic.value.DoubleValue
15.467

@<SCITEGIC>MOL_PROPERTY
Bond
SciTegic.value.DoubleValue
0.441

@<SCITEGIC>MOL_PROPERTY
Angle
SciTegic.value.DoubleValue
5.093

@<SCITEGIC>MOL_PROPERTY
Pdih
SciTegic.value.DoubleValue
11.049

@<SCITEGIC>MOL_PROPERTY
Idih
SciTegic.value.DoubleValue
0.000

@<SCITEGIC>MOL_PROPERTY
Tether
SciTegic.value.DoubleValue
0.000

@<TRIPOS>MOLECULE
guest-s17_confgen4.mol2 : confsearch ligand conformer 238
          25          25           1
SMALL
USER_CHARGES
 
@<TRIPOS>ATOM
       1    C1      19.457974   20.213579   21.086610 C.3        1 MOL1        -0.1684
       2    H1      19.356820   19.757425   20.092530 H          1 MOL1         0.0833
       3    H2      19.051700   21.229580   20.988624 H          1 MOL1         0.0833
       4    C2      20.961304   20.349334   21.436229 C.3        1 MOL1        -0.1684
       5    H3      21.414866   20.999863   20.676021 H          1 MOL1         0.0833
       6    H4      21.085329   20.897620   22.377052 H          1 MOL1         0.0833
       7    C3      21.778481   19.033095   21.460810 C.3        1 MOL1        -0.1684
       8    H5      22.834005   19.301323   21.605264 H          1 MOL1         0.0833
       9    H6      21.725328   18.554852   20.473384 H          1 MOL1         0.0833
      10    C4      21.398589   17.991767   22.545281 C.3        1 MOL1        -0.1760
      11    H7      20.531343   17.407719   22.221173 H          1 MOL1         0.0833
      12    H8      22.216536   17.260536   22.592251 H          1 MOL1         0.0833
      13    C5      21.148106   18.579126   23.958430 C.3        1 MOL1         0.1219
      14    H9      21.612214   19.571444   24.036299 H          1 MOL1         0.0790
      15    C6      19.651241   18.688464   24.341635 C.3        1 MOL1        -0.1760
      16    H10     19.177728   17.703985   24.232877 H          1 MOL1         0.0833
      17    H11     19.598547   18.925535   25.412525 H          1 MOL1         0.0833
      18    C7      18.809549   19.752641   23.585772 C.3        1 MOL1        -0.1684
      19    H12     19.241452   20.753534   23.714001 H          1 MOL1         0.0833
      20    H13     17.830148   19.797406   24.081430 H          1 MOL1         0.0833
      21    C8      18.559682   19.440981   22.087346 C.3        1 MOL1        -0.1684
      22    H14     17.518569   19.702646   21.853576 H          1 MOL1         0.0833
      23    H15     18.616344   18.362055   21.904281 H          1 MOL1         0.0833
      24    O1      21.767776   17.724220   24.912007 O.3        1 MOL1        -0.5508
      25    H16     22.725084   17.716960   24.702184 H          1 MOL1         0.3780
@<TRIPOS>BOND
    1     1     2    1
    2     1     3    1
    3     1     4    1
    4     4     5    1
    5     4     6    1
    6     4     7    1
    7     7     8    1
    8     7     9    1
    9     7    10    1
   10    10    11    1
   11    10    12    1
   12    10    13    1
   13    13    14    1
   14    13    15    1
   15    15    16    1
   16    15    17    1
   17    15    18    1
   18    18    19    1
   19    18    20    1
   20     1    21    1
   21    18    21    1
   22    21    22    1
   23    21    23    1
   24    13    24    1
   25    24    25    1
@<TRIPOS>SUBSTRUCTURE
       1 MOL1            1 RESIDUE      1      MOL     
@<SCITEGIC>MOL_PROPERTY
VConf Rank
SciTegic.value.IntegerValue
238

@<SCITEGIC>MOL_PROPERTY
Conf_Id
SciTegic.value.IntegerValue
129

@<SCITEGIC>MOL_PROPERTY
Delta U+W
SciTegic.value.DoubleValue
-1.846

@<SCITEGIC>MOL_PROPERTY
U+W
SciTegic.value.DoubleValue
9.067

@<SCITEGIC>MOL_PROPERTY
Grad RMS
SciTegic.value.DoubleValue
0.000000

@<SCITEGIC>MOL_PROPERTY
U
SciTegic.value.DoubleValue
11.150

@<SCITEGIC>MOL_PROPERTY
W
SciTegic.value.DoubleValue
-2.083

@<SCITEGIC>MOL_PROPERTY
W(PB)
SciTegic.value.DoubleValue
-4.217

@<SCITEGIC>MOL_PROPERTY
W(SA)
SciTegic.value.DoubleValue
2.134

@<SCITEGIC>MOL_PROPERTY
Valence
SciTegic.value.DoubleValue
16.583

@<SCITEGIC>MOL_PROPERTY
Coulomb
SciTegic.value.DoubleValue
-8.361

@<SCITEGIC>MOL_PROPERTY
VdW
SciTegic.value.DoubleValue
2.928

@<SCITEGIC>MOL_PROPERTY
VdW6
SciTegic.value.DoubleValue
-12.539

@<SCITEGIC>MOL_PROPERTY
VdW12
SciTegic.value.DoubleValue
15.467

@<SCITEGIC>MOL_PROPERTY
Bond
SciTegic.value.DoubleValue
0.441

@<SCITEGIC>MOL_PROPERTY
Angle
SciTegic.value.DoubleValue
5.093

@<SCITEGIC>MOL_PROPERTY
Pdih
SciTegic.value.DoubleValue
11.049

@<SCITEGIC>MOL_PROPERTY
Idih
SciTegic.value.DoubleValue
0.000

@<SCITEGIC>MOL_PROPERTY
Tether
SciTegic.value.DoubleValue
0.000

@<TRIPOS>MOLECULE
guest-s17_confgen4.mol2 : confsearch ligand conformer 239
          25          25           1
SMALL
USER_CHARGES
 
@<TRIPOS>ATOM
       1    C1      19.152477   20.784570   21.900822 C.3        1 MOL1        -0.1684
       2    H1      18.086250   20.886505   22.144288 H          1 MOL1         0.0833
       3    H2      19.392020   21.640905   21.255664 H          1 MOL1         0.0833
       4    C2      19.364878   19.499928   21.061301 C.3        1 MOL1        -0.1684
       5    H3      18.778112   19.612597   20.139446 H          1 MOL1         0.0833
       6    H4      20.404293   19.434985   20.719837 H          1 MOL1         0.0833
       7    C3      18.926549   18.170410   21.725016 C.3        1 MOL1        -0.1684
       8    H5      19.029077   17.376176   20.972864 H          1 MOL1         0.0833
       9    H6      17.855203   18.219100   21.962387 H          1 MOL1         0.0833
      10    C4      19.703513   17.727038   22.991911 C.3        1 MOL1        -0.1760
      11    H7      19.316319   18.247488   23.873814 H          1 MOL1         0.0833
      12    H8      19.457976   16.670264   23.163831 H          1 MOL1         0.0833
      13    C5      21.243600   17.886563   22.906717 C.3        1 MOL1         0.1219
      14    H9      21.551573   17.948837   21.854507 H          1 MOL1         0.0790
      15    C6      21.800393   19.111459   23.675164 C.3        1 MOL1        -0.1760
      16    H10     21.469046   19.068437   24.720905 H          1 MOL1         0.0833
      17    H11     22.894227   19.017276   23.705023 H          1 MOL1         0.0833
      18    C7      21.471107   20.512962   23.093461 C.3        1 MOL1        -0.1684
      19    H12     21.830414   20.600056   22.059968 H          1 MOL1         0.0833
      20    H13     22.060685   21.243538   23.664094 H          1 MOL1         0.0833
      21    C8      19.981256   20.928648   23.203441 C.3        1 MOL1        -0.1684
      22    H14     19.942749   21.987384   23.494379 H          1 MOL1         0.0833
      23    H15     19.494372   20.401070   24.031333 H          1 MOL1         0.0833
      24    O1      21.842265   16.726601   23.470855 O.3        1 MOL1        -0.5508
      25    H16     21.557018   16.695614   24.407133 H          1 MOL1         0.3780
@<TRIPOS>BOND
    1     1     2    1
    2     1     3    1
    3     1     4    1
    4     4     5    1
    5     4     6    1
    6     4     7    1
    7     7     8    1
    8     7     9    1
    9     7    10    1
   10    10    11    1
   11    10    12    1
   12    10    13    1
   13    13    14    1
   14    13    15    1
   15    15    16    1
   16    15    17    1
   17    15    18    1
   18    18    19    1
   19    18    20    1
   20     1    21    1
   21    18    21    1
   22    21    22    1
   23    21    23    1
   24    13    24    1
   25    24    25    1
@<TRIPOS>SUBSTRUCTURE
       1 MOL1            1 RESIDUE      1      MOL     
@<SCITEGIC>MOL_PROPERTY
VConf Rank
SciTegic.value.IntegerValue
239

@<SCITEGIC>MOL_PROPERTY
Conf_Id
SciTegic.value.IntegerValue
140

@<SCITEGIC>MOL_PROPERTY
Delta U+W
SciTegic.value.DoubleValue
-1.702

@<SCITEGIC>MOL_PROPERTY
U+W
SciTegic.value.DoubleValue
9.211

@<SCITEGIC>MOL_PROPERTY
Grad RMS
SciTegic.value.DoubleValue
0.000000

@<SCITEGIC>MOL_PROPERTY
U
SciTegic.value.DoubleValue
11.181

@<SCITEGIC>MOL_PROPERTY
W
SciTegic.value.DoubleValue
-1.969

@<SCITEGIC>MOL_PROPERTY
W(PB)
SciTegic.value.DoubleValue
-4.093

@<SCITEGIC>MOL_PROPERTY
W(SA)
SciTegic.value.DoubleValue
2.124

@<SCITEGIC>MOL_PROPERTY
Valence
SciTegic.value.DoubleValue
16.954

@<SCITEGIC>MOL_PROPERTY
Coulomb
SciTegic.value.DoubleValue
-8.661

@<SCITEGIC>MOL_PROPERTY
VdW
SciTegic.value.DoubleValue
2.887

@<SCITEGIC>MOL_PROPERTY
VdW6
SciTegic.value.DoubleValue
-12.561

@<SCITEGIC>MOL_PROPERTY
VdW12
SciTegic.value.DoubleValue
15.448

@<SCITEGIC>MOL_PROPERTY
Bond
SciTegic.value.DoubleValue
0.433

@<SCITEGIC>MOL_PROPERTY
Angle
SciTegic.value.DoubleValue
5.120

@<SCITEGIC>MOL_PROPERTY
Pdih
SciTegic.value.DoubleValue
11.401

@<SCITEGIC>MOL_PROPERTY
Idih
SciTegic.value.DoubleValue
0.000

@<SCITEGIC>MOL_PROPERTY
Tether
SciTegic.value.DoubleValue
0.000

@<TRIPOS>MOLECULE
guest-s17_confgen4.mol2 : confsearch ligand conformer 240
          25          25           1
SMALL
USER_CHARGES
 
@<TRIPOS>ATOM
       1    C1      20.776675   17.923233   24.207400 C.3        1 MOL1        -0.1684
       2    H1      21.515026   18.226178   24.962099 H          1 MOL1         0.0833
       3    H2      20.455336   16.913193   24.496330 H          1 MOL1         0.0833
       4    C2      21.480479   17.818551   22.829667 C.3        1 MOL1        -0.1684
       5    H3      22.184812   18.646637   22.691857 H          1 MOL1         0.0833
       6    H4      22.115413   16.922437   22.859483 H          1 MOL1         0.0833
       7    C3      20.534574   17.698492   21.606802 C.3        1 MOL1        -0.1684
       8    H5      19.566400   17.270212   21.896645 H          1 MOL1         0.0833
       9    H6      20.976986   16.965952   20.917873 H          1 MOL1         0.0833
      10    C4      20.337623   19.013401   20.804780 C.3        1 MOL1        -0.1760
      11    H7      21.318303   19.394946   20.491882 H          1 MOL1         0.0833
      12    H8      19.808287   18.756060   19.877519 H          1 MOL1         0.0833
      13    C5      19.541990   20.145598   21.501911 C.3        1 MOL1         0.1219
      14    H9      18.574204   19.752366   21.840483 H          1 MOL1         0.0790
      15    C6      20.283654   20.805402   22.693198 C.3        1 MOL1        -0.1760
      16    H10     21.363372   20.649544   22.601245 H          1 MOL1         0.0833
      17    H11     20.155556   21.895101   22.640639 H          1 MOL1         0.0833
      18    C7      19.796620   20.361081   24.096996 C.3        1 MOL1        -0.1684
      19    H12     18.857037   20.889385   24.309434 H          1 MOL1         0.0833
      20    H13     20.513271   20.713291   24.851223 H          1 MOL1         0.0833
      21    C8      19.537322   18.847795   24.304363 C.3        1 MOL1        -0.1684
      22    H14     18.746453   18.497305   23.631397 H          1 MOL1         0.0833
      23    H15     19.117080   18.724518   25.311837 H          1 MOL1         0.0833
      24    O1      19.290473   21.147940   20.525075 O.3        1 MOL1        -0.5508
      25    H16     20.165796   21.478996   20.236710 H          1 MOL1         0.3780
@<TRIPOS>BOND
    1     1     2    1
    2     1     3    1
    3     1     4    1
    4     4     5    1
    5     4     6    1
    6     4     7    1
    7     7     8    1
    8     7     9    1
    9     7    10    1
   10    10    11    1
   11    10    12    1
   12    10    13    1
   13    13    14    1
   14    13    15    1
   15    15    16    1
   16    15    17    1
   17    15    18    1
   18    18    19    1
   19    18    20    1
   20     1    21    1
   21    18    21    1
   22    21    22    1
   23    21    23    1
   24    13    24    1
   25    24    25    1
@<TRIPOS>SUBSTRUCTURE
       1 MOL1            1 RESIDUE      1      MOL     
@<SCITEGIC>MOL_PROPERTY
VConf Rank
SciTegic.value.IntegerValue
240

@<SCITEGIC>MOL_PROPERTY
Conf_Id
SciTegic.value.IntegerValue
68

@<SCITEGIC>MOL_PROPERTY
Delta U+W
SciTegic.value.DoubleValue
-1.765

@<SCITEGIC>MOL_PROPERTY
U+W
SciTegic.value.DoubleValue
9.148

@<SCITEGIC>MOL_PROPERTY
Grad RMS
SciTegic.value.DoubleValue
0.000000

@<SCITEGIC>MOL_PROPERTY
U
SciTegic.value.DoubleValue
11.181

@<SCITEGIC>MOL_PROPERTY
W
SciTegic.value.DoubleValue
-2.032

@<SCITEGIC>MOL_PROPERTY
W(PB)
SciTegic.value.DoubleValue
-4.147

@<SCITEGIC>MOL_PROPERTY
W(SA)
SciTegic.value.DoubleValue
2.114

@<SCITEGIC>MOL_PROPERTY
Valence
SciTegic.value.DoubleValue
16.955

@<SCITEGIC>MOL_PROPERTY
Coulomb
SciTegic.value.DoubleValue
-8.661

@<SCITEGIC>MOL_PROPERTY
VdW
SciTegic.value.DoubleValue
2.887

@<SCITEGIC>MOL_PROPERTY
VdW6
SciTegic.value.DoubleValue
-12.561

@<SCITEGIC>MOL_PROPERTY
VdW12
SciTegic.value.DoubleValue
15.448

@<SCITEGIC>MOL_PROPERTY
Bond
SciTegic.value.DoubleValue
0.433

@<SCITEGIC>MOL_PROPERTY
Angle
SciTegic.value.DoubleValue
5.121

@<SCITEGIC>MOL_PROPERTY
Pdih
SciTegic.value.DoubleValue
11.402

@<SCITEGIC>MOL_PROPERTY
Idih
SciTegic.value.DoubleValue
0.000

@<SCITEGIC>MOL_PROPERTY
Tether
SciTegic.value.DoubleValue
0.000

@<TRIPOS>MOLECULE
guest-s17_confgen4.mol2 : confsearch ligand conformer 241
          25          25           1
SMALL
USER_CHARGES
 
@<TRIPOS>ATOM
       1    C1      18.968802   18.996043   24.011530 C.3        1 MOL1        -0.1684
       2    H1      18.205343   18.999840   24.801589 H          1 MOL1         0.0833
       3    H2      19.448253   18.014839   24.102393 H          1 MOL1         0.0833
       4    C2      19.982828   20.129028   24.317141 C.3        1 MOL1        -0.1684
       5    H3      19.724579   21.047971   23.775416 H          1 MOL1         0.0833
       6    H4      19.880083   20.385915   25.380377 H          1 MOL1         0.0833
       7    C3      21.469639   19.752311   24.084584 C.3        1 MOL1        -0.1684
       8    H5      21.715534   18.858440   24.674164 H          1 MOL1         0.0833
       9    H6      22.087397   20.559161   24.501959 H          1 MOL1         0.0833
      10    C4      21.910829   19.533094   22.612902 C.3        1 MOL1        -0.1760
      11    H7      21.700445   20.427471   22.014248 H          1 MOL1         0.0833
      12    H8      23.005536   19.442775   22.621317 H          1 MOL1         0.0833
      13    C5      21.315320   18.266482   21.945107 C.3        1 MOL1         0.1219
      14    H9      20.975324   17.576911   22.726413 H          1 MOL1         0.0790
      15    C6      20.148080   18.538036   20.964365 C.3        1 MOL1        -0.1760
      16    H10     20.565599   18.916876   20.022168 H          1 MOL1         0.0833
      17    H11     19.672321   17.579801   20.718354 H          1 MOL1         0.0833
      18    C7      19.056706   19.539589   21.422467 C.3        1 MOL1        -0.1684
      19    H12     18.358311   19.668028   20.584331 H          1 MOL1         0.0833
      20    H13     19.489709   20.534651   21.576311 H          1 MOL1         0.0833
      21    C8      18.221975   19.118930   22.657947 C.3        1 MOL1        -0.1684
      22    H14     17.710912   18.170133   22.445377 H          1 MOL1         0.0833
      23    H15     17.423828   19.863478   22.782878 H          1 MOL1         0.0833
      24    O1      22.345290   17.613556   21.213307 O.3        1 MOL1        -0.5508
      25    H16     22.647956   18.249779   20.533232 H          1 MOL1         0.3780
@<TRIPOS>BOND
    1     1     2    1
    2     1     3    1
    3     1     4    1
    4     4     5    1
    5     4     6    1
    6     4     7    1
    7     7     8    1
    8     7     9    1
    9     7    10    1
   10    10    11    1
   11    10    12    1
   12    10    13    1
   13    13    14    1
   14    13    15    1
   15    15    16    1
   16    15    17    1
   17    15    18    1
   18    18    19    1
   19    18    20    1
   20     1    21    1
   21    18    21    1
   22    21    22    1
   23    21    23    1
   24    13    24    1
   25    24    25    1
@<TRIPOS>SUBSTRUCTURE
       1 MOL1            1 RESIDUE      1      MOL     
@<SCITEGIC>MOL_PROPERTY
VConf Rank
SciTegic.value.IntegerValue
241

@<SCITEGIC>MOL_PROPERTY
Conf_Id
SciTegic.value.IntegerValue
165

@<SCITEGIC>MOL_PROPERTY
Delta U+W
SciTegic.value.DoubleValue
-1.999

@<SCITEGIC>MOL_PROPERTY
U+W
SciTegic.value.DoubleValue
8.915

@<SCITEGIC>MOL_PROPERTY
Grad RMS
SciTegic.value.DoubleValue
0.000000

@<SCITEGIC>MOL_PROPERTY
U
SciTegic.value.DoubleValue
10.935

@<SCITEGIC>MOL_PROPERTY
W
SciTegic.value.DoubleValue
-2.020

@<SCITEGIC>MOL_PROPERTY
W(PB)
SciTegic.value.DoubleValue
-4.135

@<SCITEGIC>MOL_PROPERTY
W(SA)
SciTegic.value.DoubleValue
2.115

@<SCITEGIC>MOL_PROPERTY
Valence
SciTegic.value.DoubleValue
16.757

@<SCITEGIC>MOL_PROPERTY
Coulomb
SciTegic.value.DoubleValue
-8.731

@<SCITEGIC>MOL_PROPERTY
VdW
SciTegic.value.DoubleValue
2.908

@<SCITEGIC>MOL_PROPERTY
VdW6
SciTegic.value.DoubleValue
-12.597

@<SCITEGIC>MOL_PROPERTY
VdW12
SciTegic.value.DoubleValue
15.506

@<SCITEGIC>MOL_PROPERTY
Bond
SciTegic.value.DoubleValue
0.434

@<SCITEGIC>MOL_PROPERTY
Angle
SciTegic.value.DoubleValue
5.069

@<SCITEGIC>MOL_PROPERTY
Pdih
SciTegic.value.DoubleValue
11.254

@<SCITEGIC>MOL_PROPERTY
Idih
SciTegic.value.DoubleValue
0.000

@<SCITEGIC>MOL_PROPERTY
Tether
SciTegic.value.DoubleValue
0.000

@<TRIPOS>MOLECULE
guest-s17_confgen4.mol2 : confsearch ligand conformer 242
          25          25           1
SMALL
USER_CHARGES
 
@<TRIPOS>ATOM
       1    C1      18.504322   18.917077   22.450566 C.3        1 MOL1        -0.1684
       2    H1      17.437936   18.761653   22.236677 H          1 MOL1         0.0833
       3    H2      18.583443   18.795178   23.536698 H          1 MOL1         0.0833
       4    C2      18.843081   20.372347   22.034774 C.3        1 MOL1        -0.1684
       5    H3      18.336958   20.573526   21.080639 H          1 MOL1         0.0833
       6    H4      18.393395   21.064301   22.759721 H          1 MOL1         0.0833
       7    C3      20.339491   20.727113   21.847063 C.3        1 MOL1        -0.1684
       8    H5      20.386513   21.755021   21.462493 H          1 MOL1         0.0833
       9    H6      20.779340   20.114365   21.051849 H          1 MOL1         0.0833
      10    C4      21.218363   20.671190   23.123185 C.3        1 MOL1        -0.1760
      11    H7      22.213709   21.049523   22.853621 H          1 MOL1         0.0833
      12    H8      20.816219   21.376523   23.861767 H          1 MOL1         0.0833
      13    C5      21.393360   19.289969   23.800949 C.3        1 MOL1         0.1219
      14    H9      20.491601   19.053221   24.377700 H          1 MOL1         0.0790
      15    C6      21.686442   18.122793   22.823204 C.3        1 MOL1        -0.1760
      16    H10     22.111501   18.497294   21.884486 H          1 MOL1         0.0833
      17    H11     22.472273   17.492542   23.261138 H          1 MOL1         0.0833
      18    C7      20.472182   17.198585   22.539648 C.3        1 MOL1        -0.1684
      19    H12     20.082167   16.810114   23.490419 H          1 MOL1         0.0833
      20    H13     20.841376   16.320581   21.992310 H          1 MOL1         0.0833
      21    C8      19.307743   17.811222   21.717683 C.3        1 MOL1        -0.1684
      22    H14     18.610997   16.992766   21.490341 H          1 MOL1         0.0833
      23    H15     19.663639   18.162526   20.740681 H          1 MOL1         0.0833
      24    O1      22.479658   19.398155   24.714056 O.3        1 MOL1        -0.5508
      25    H16     22.247830   20.111006   25.345356 H          1 MOL1         0.3780
@<TRIPOS>BOND
    1     1     2    1
    2     1     3    1
    3     1     4    1
    4     4     5    1
    5     4     6    1
    6     4     7    1
    7     7     8    1
    8     7     9    1
    9     7    10    1
   10    10    11    1
   11    10    12    1
   12    10    13    1
   13    13    14    1
   14    13    15    1
   15    15    16    1
   16    15    17    1
   17    15    18    1
   18    18    19    1
   19    18    20    1
   20     1    21    1
   21    18    21    1
   22    21    22    1
   23    21    23    1
   24    13    24    1
   25    24    25    1
@<TRIPOS>SUBSTRUCTURE
       1 MOL1            1 RESIDUE      1      MOL     
@<SCITEGIC>MOL_PROPERTY
VConf Rank
SciTegic.value.IntegerValue
242

@<SCITEGIC>MOL_PROPERTY
Conf_Id
SciTegic.value.IntegerValue
133

@<SCITEGIC>MOL_PROPERTY
Delta U+W
SciTegic.value.DoubleValue
-2.139

@<SCITEGIC>MOL_PROPERTY
U+W
SciTegic.value.DoubleValue
8.774

@<SCITEGIC>MOL_PROPERTY
Grad RMS
SciTegic.value.DoubleValue
0.000000

@<SCITEGIC>MOL_PROPERTY
U
SciTegic.value.DoubleValue
10.905

@<SCITEGIC>MOL_PROPERTY
W
SciTegic.value.DoubleValue
-2.131

@<SCITEGIC>MOL_PROPERTY
W(PB)
SciTegic.value.DoubleValue
-4.281

@<SCITEGIC>MOL_PROPERTY
W(SA)
SciTegic.value.DoubleValue
2.150

@<SCITEGIC>MOL_PROPERTY
Valence
SciTegic.value.DoubleValue
16.378

@<SCITEGIC>MOL_PROPERTY
Coulomb
SciTegic.value.DoubleValue
-8.448

@<SCITEGIC>MOL_PROPERTY
VdW
SciTegic.value.DoubleValue
2.976

@<SCITEGIC>MOL_PROPERTY
VdW6
SciTegic.value.DoubleValue
-12.570

@<SCITEGIC>MOL_PROPERTY
VdW12
SciTegic.value.DoubleValue
15.545

@<SCITEGIC>MOL_PROPERTY
Bond
SciTegic.value.DoubleValue
0.439

@<SCITEGIC>MOL_PROPERTY
Angle
SciTegic.value.DoubleValue
5.049

@<SCITEGIC>MOL_PROPERTY
Pdih
SciTegic.value.DoubleValue
10.889

@<SCITEGIC>MOL_PROPERTY
Idih
SciTegic.value.DoubleValue
0.000

@<SCITEGIC>MOL_PROPERTY
Tether
SciTegic.value.DoubleValue
0.000

@<TRIPOS>MOLECULE
guest-s17_confgen4.mol2 : confsearch ligand conformer 243
          25          25           1
SMALL
USER_CHARGES
 
@<TRIPOS>ATOM
       1    C1      19.777671   20.748945   23.562164 C.3        1 MOL1        -0.1684
       2    H1      19.415531   21.672531   24.034318 H          1 MOL1         0.0833
       3    H2      20.614249   20.431266   24.194636 H          1 MOL1         0.0833
       4    C2      20.275261   21.101286   22.136057 C.3        1 MOL1        -0.1684
       5    H3      19.489014   20.930940   21.389460 H          1 MOL1         0.0833
       6    H4      20.463922   22.183299   22.110244 H          1 MOL1         0.0833
       7    C3      21.594618   20.402087   21.714996 C.3        1 MOL1        -0.1684
       8    H5      22.377983   20.628296   22.451309 H          1 MOL1         0.0833
       9    H6      21.931460   20.862360   20.776136 H          1 MOL1         0.0833
      10    C4      21.529229   18.867583   21.491364 C.3        1 MOL1        -0.1760
      11    H7      20.774036   18.621467   20.735567 H          1 MOL1         0.0833
      12    H8      22.487514   18.568556   21.045489 H          1 MOL1         0.0833
      13    C5      21.309531   18.037100   22.782183 C.3        1 MOL1         0.1219
      14    H9      21.583779   18.648557   23.649804 H          1 MOL1         0.0790
      15    C6      19.868030   17.503167   22.968567 C.3        1 MOL1        -0.1760
      16    H10     19.733038   16.640380   22.302316 H          1 MOL1         0.0833
      17    H11     19.766367   17.115442   23.990356 H          1 MOL1         0.0833
      18    C7      18.705862   18.490940   22.689827 C.3        1 MOL1        -0.1684
      19    H12     17.767376   17.930125   22.796745 H          1 MOL1         0.0833
      20    H13     18.718337   18.811147   21.641684 H          1 MOL1         0.0833
      21    C8      18.618065   19.721087   23.627576 C.3        1 MOL1        -0.1684
      22    H14     18.501953   19.379894   24.665205 H          1 MOL1         0.0833
      23    H15     17.687239   20.251776   23.384802 H          1 MOL1         0.0833
      24    O1      22.179724   16.911416   22.748887 O.3        1 MOL1        -0.5508
      25    H16     22.052581   16.431266   23.593712 H          1 MOL1         0.3780
@<TRIPOS>BOND
    1     1     2    1
    2     1     3    1
    3     1     4    1
    4     4     5    1
    5     4     6    1
    6     4     7    1
    7     7     8    1
    8     7     9    1
    9     7    10    1
   10    10    11    1
   11    10    12    1
   12    10    13    1
   13    13    14    1
   14    13    15    1
   15    15    16    1
   16    15    17    1
   17    15    18    1
   18    18    19    1
   19    18    20    1
   20     1    21    1
   21    18    21    1
   22    21    22    1
   23    21    23    1
   24    13    24    1
   25    24    25    1
@<TRIPOS>SUBSTRUCTURE
       1 MOL1            1 RESIDUE      1      MOL     
@<SCITEGIC>MOL_PROPERTY
VConf Rank
SciTegic.value.IntegerValue
243

@<SCITEGIC>MOL_PROPERTY
Conf_Id
SciTegic.value.IntegerValue
95

@<SCITEGIC>MOL_PROPERTY
Delta U+W
SciTegic.value.DoubleValue
-2.190

@<SCITEGIC>MOL_PROPERTY
U+W
SciTegic.value.DoubleValue
8.723

@<SCITEGIC>MOL_PROPERTY
Grad RMS
SciTegic.value.DoubleValue
0.000000

@<SCITEGIC>MOL_PROPERTY
U
SciTegic.value.DoubleValue
10.905

@<SCITEGIC>MOL_PROPERTY
W
SciTegic.value.DoubleValue
-2.182

@<SCITEGIC>MOL_PROPERTY
W(PB)
SciTegic.value.DoubleValue
-4.296

@<SCITEGIC>MOL_PROPERTY
W(SA)
SciTegic.value.DoubleValue
2.114

@<SCITEGIC>MOL_PROPERTY
Valence
SciTegic.value.DoubleValue
16.377

@<SCITEGIC>MOL_PROPERTY
Coulomb
SciTegic.value.DoubleValue
-8.448

@<SCITEGIC>MOL_PROPERTY
VdW
SciTegic.value.DoubleValue
2.976

@<SCITEGIC>MOL_PROPERTY
VdW6
SciTegic.value.DoubleValue
-12.570

@<SCITEGIC>MOL_PROPERTY
VdW12
SciTegic.value.DoubleValue
15.546

@<SCITEGIC>MOL_PROPERTY
Bond
SciTegic.value.DoubleValue
0.439

@<SCITEGIC>MOL_PROPERTY
Angle
SciTegic.value.DoubleValue
5.049

@<SCITEGIC>MOL_PROPERTY
Pdih
SciTegic.value.DoubleValue
10.889

@<SCITEGIC>MOL_PROPERTY
Idih
SciTegic.value.DoubleValue
0.000

@<SCITEGIC>MOL_PROPERTY
Tether
SciTegic.value.DoubleValue
0.000

@<TRIPOS>MOLECULE
guest-s17_confgen4.mol2 : confsearch ligand conformer 244
          25          25           1
SMALL
USER_CHARGES
 
@<TRIPOS>ATOM
       1    C1      21.439125   19.397990   21.256341 C.3        1 MOL1        -0.1684
       2    H1      22.182818   19.617948   20.478241 H          1 MOL1         0.0833
       3    H2      20.639382   18.891057   20.707102 H          1 MOL1         0.0833
       4    C2      20.949687   20.765283   21.817749 C.3        1 MOL1        -0.1684
       5    H3      21.807978   21.450933   21.805009 H          1 MOL1         0.0833
       6    H4      20.220821   21.197237   21.118719 H          1 MOL1         0.0833
       7    C3      20.365381   20.801258   23.254337 C.3        1 MOL1        -0.1684
       8    H5      20.189452   21.853741   23.515386 H          1 MOL1         0.0833
       9    H6      21.135424   20.486600   23.965710 H          1 MOL1         0.0833
      10    C4      19.031696   20.036773   23.506068 C.3        1 MOL1        -0.1760
      11    H7      18.934960   19.836715   24.581239 H          1 MOL1         0.0833
      12    H8      18.214446   20.726477   23.257726 H          1 MOL1         0.0833
      13    C5      18.779155   18.724120   22.721939 C.3        1 MOL1         0.1219
      14    H9      18.834119   18.951957   21.652413 H          1 MOL1         0.0790
      15    C6      19.709217   17.519645   23.045692 C.3        1 MOL1        -0.1760
      16    H10     19.284236   16.986484   23.906765 H          1 MOL1         0.0833
      17    H11     19.661178   16.812439   22.207932 H          1 MOL1         0.0833
      18    C7      21.198538   17.802887   23.381419 C.3        1 MOL1        -0.1684
      19    H12     21.657284   16.851409   23.683007 H          1 MOL1         0.0833
      20    H13     21.255036   18.412765   24.288573 H          1 MOL1         0.0833
      21    C8      22.088736   18.403131   22.254139 C.3        1 MOL1        -0.1684
      22    H14     22.478564   17.564238   21.661551 H          1 MOL1         0.0833
      23    H15     22.970434   18.873183   22.710323 H          1 MOL1         0.0833
      24    O1      17.444917   18.314064   22.998122 O.3        1 MOL1        -0.5508
      25    H16     16.860500   19.053613   22.730574 H          1 MOL1         0.3780
@<TRIPOS>BOND
    1     1     2    1
    2     1     3    1
    3     1     4    1
    4     4     5    1
    5     4     6    1
    6     4     7    1
    7     7     8    1
    8     7     9    1
    9     7    10    1
   10    10    11    1
   11    10    12    1
   12    10    13    1
   13    13    14    1
   14    13    15    1
   15    15    16    1
   16    15    17    1
   17    15    18    1
   18    18    19    1
   19    18    20    1
   20     1    21    1
   21    18    21    1
   22    21    22    1
   23    21    23    1
   24    13    24    1
   25    24    25    1
@<TRIPOS>SUBSTRUCTURE
       1 MOL1            1 RESIDUE      1      MOL     
@<SCITEGIC>MOL_PROPERTY
VConf Rank
SciTegic.value.IntegerValue
244

@<SCITEGIC>MOL_PROPERTY
Conf_Id
SciTegic.value.IntegerValue
161

@<SCITEGIC>MOL_PROPERTY
Delta U+W
SciTegic.value.DoubleValue
2.120

@<SCITEGIC>MOL_PROPERTY
U+W
SciTegic.value.DoubleValue
13.033

@<SCITEGIC>MOL_PROPERTY
Grad RMS
SciTegic.value.DoubleValue
0.000000

@<SCITEGIC>MOL_PROPERTY
U
SciTegic.value.DoubleValue
15.076

@<SCITEGIC>MOL_PROPERTY
W
SciTegic.value.DoubleValue
-2.043

@<SCITEGIC>MOL_PROPERTY
W(PB)
SciTegic.value.DoubleValue
-4.186

@<SCITEGIC>MOL_PROPERTY
W(SA)
SciTegic.value.DoubleValue
2.143

@<SCITEGIC>MOL_PROPERTY
Valence
SciTegic.value.DoubleValue
18.884

@<SCITEGIC>MOL_PROPERTY
Coulomb
SciTegic.value.DoubleValue
-8.074

@<SCITEGIC>MOL_PROPERTY
VdW
SciTegic.value.DoubleValue
4.266

@<SCITEGIC>MOL_PROPERTY
VdW6
SciTegic.value.DoubleValue
-13.486

@<SCITEGIC>MOL_PROPERTY
VdW12
SciTegic.value.DoubleValue
17.752

@<SCITEGIC>MOL_PROPERTY
Bond
SciTegic.value.DoubleValue
0.713

@<SCITEGIC>MOL_PROPERTY
Angle
SciTegic.value.DoubleValue
8.955

@<SCITEGIC>MOL_PROPERTY
Pdih
SciTegic.value.DoubleValue
9.215

@<SCITEGIC>MOL_PROPERTY
Idih
SciTegic.value.DoubleValue
0.000

@<SCITEGIC>MOL_PROPERTY
Tether
SciTegic.value.DoubleValue
0.000

@<TRIPOS>MOLECULE
guest-s17_confgen4.mol2 : confsearch ligand conformer 245
          25          25           1
SMALL
USER_CHARGES
 
@<TRIPOS>ATOM
       1    C1      18.789650   19.708630   21.479813 C.3        1 MOL1        -0.1684
       2    H1      17.896101   20.166091   21.033398 H          1 MOL1         0.0833
       3    H2      18.967533   18.804084   20.884507 H          1 MOL1         0.0833
       4    C2      18.449771   19.321489   22.940731 C.3        1 MOL1        -0.1684
       5    H3      18.619244   20.168805   23.618610 H          1 MOL1         0.0833
       6    H4      17.367915   19.133129   22.976518 H          1 MOL1         0.0833
       7    C3      19.147596   18.034966   23.463445 C.3        1 MOL1        -0.1684
       8    H5      19.221257   17.275212   22.673741 H          1 MOL1         0.0833
       9    H6      18.483404   17.600311   24.223132 H          1 MOL1         0.0833
      10    C4      20.522887   18.257223   24.144363 C.3        1 MOL1        -0.1760
      11    H7      20.524578   19.216978   24.675245 H          1 MOL1         0.0833
      12    H8      20.631978   17.498821   24.930848 H          1 MOL1         0.0833
      13    C5      21.768378   18.126611   23.231388 C.3        1 MOL1         0.1219
      14    H9      21.880428   17.066293   22.963161 H          1 MOL1         0.0790
      15    C6      21.744738   18.937312   21.914919 C.3        1 MOL1        -0.1760
      16    H10     22.758075   18.935719   21.491565 H          1 MOL1         0.0833
      17    H11     21.140035   18.399613   21.176694 H          1 MOL1         0.0833
      18    C7      21.265140   20.406376   22.060065 C.3        1 MOL1        -0.1684
      19    H12     22.049709   21.073557   21.677899 H          1 MOL1         0.0833
      20    H13     21.148222   20.683913   23.113822 H          1 MOL1         0.0833
      21    C8      19.953662   20.718855   21.300417 C.3        1 MOL1        -0.1684
      22    H14     20.177191   20.795864   20.227610 H          1 MOL1         0.0833
      23    H15     19.608519   21.716038   21.605841 H          1 MOL1         0.0833
      24    O1      22.905464   18.531484   23.980705 O.3        1 MOL1        -0.5508
      25    H16     22.831469   19.502680   24.076170 H          1 MOL1         0.3780
@<TRIPOS>BOND
    1     1     2    1
    2     1     3    1
    3     1     4    1
    4     4     5    1
    5     4     6    1
    6     4     7    1
    7     7     8    1
    8     7     9    1
    9     7    10    1
   10    10    11    1
   11    10    12    1
   12    10    13    1
   13    13    14    1
   14    13    15    1
   15    15    16    1
   16    15    17    1
   17    15    18    1
   18    18    19    1
   19    18    20    1
   20     1    21    1
   21    18    21    1
   22    21    22    1
   23    21    23    1
   24    13    24    1
   25    24    25    1
@<TRIPOS>SUBSTRUCTURE
       1 MOL1            1 RESIDUE      1      MOL     
@<SCITEGIC>MOL_PROPERTY
VConf Rank
SciTegic.value.IntegerValue
245

@<SCITEGIC>MOL_PROPERTY
Conf_Id
SciTegic.value.IntegerValue
164

@<SCITEGIC>MOL_PROPERTY
Delta U+W
SciTegic.value.DoubleValue
0.008

@<SCITEGIC>MOL_PROPERTY
U+W
SciTegic.value.DoubleValue
10.922

@<SCITEGIC>MOL_PROPERTY
Grad RMS
SciTegic.value.DoubleValue
0.000000

@<SCITEGIC>MOL_PROPERTY
U
SciTegic.value.DoubleValue
12.433

@<SCITEGIC>MOL_PROPERTY
W
SciTegic.value.DoubleValue
-1.511

@<SCITEGIC>MOL_PROPERTY
W(PB)
SciTegic.value.DoubleValue
-3.669

@<SCITEGIC>MOL_PROPERTY
W(SA)
SciTegic.value.DoubleValue
2.157

@<SCITEGIC>MOL_PROPERTY
Valence
SciTegic.value.DoubleValue
19.007

@<SCITEGIC>MOL_PROPERTY
Coulomb
SciTegic.value.DoubleValue
-9.373

@<SCITEGIC>MOL_PROPERTY
VdW
SciTegic.value.DoubleValue
2.799

@<SCITEGIC>MOL_PROPERTY
VdW6
SciTegic.value.DoubleValue
-12.597

@<SCITEGIC>MOL_PROPERTY
VdW12
SciTegic.value.DoubleValue
15.396

@<SCITEGIC>MOL_PROPERTY
Bond
SciTegic.value.DoubleValue
0.425

@<SCITEGIC>MOL_PROPERTY
Angle
SciTegic.value.DoubleValue
4.784

@<SCITEGIC>MOL_PROPERTY
Pdih
SciTegic.value.DoubleValue
13.799

@<SCITEGIC>MOL_PROPERTY
Idih
SciTegic.value.DoubleValue
0.000

@<SCITEGIC>MOL_PROPERTY
Tether
SciTegic.value.DoubleValue
0.000

@<TRIPOS>MOLECULE
guest-s17_confgen4.mol2 : confsearch ligand conformer 246
          25          25           1
SMALL
USER_CHARGES
 
@<TRIPOS>ATOM
       1    C1      19.606658   17.548817   22.423089 C.3        1 MOL1        -0.1684
       2    H1      20.593765   17.503676   21.949271 H          1 MOL1         0.0833
       3    H2      19.189474   16.541532   22.288900 H          1 MOL1         0.0833
       4    C2      18.685384   18.533324   21.660382 C.3        1 MOL1        -0.1684
       5    H3      18.593349   18.165726   20.629216 H          1 MOL1         0.0833
       6    H4      17.673103   18.485218   22.084032 H          1 MOL1         0.0833
       7    C3      19.133926   20.015717   21.596485 C.3        1 MOL1        -0.1684
       8    H5      18.836294   20.547605   22.507294 H          1 MOL1         0.0833
       9    H6      18.553728   20.495455   20.796345 H          1 MOL1         0.0833
      10    C4      20.641404   20.239897   21.303174 C.3        1 MOL1        -0.1760
      11    H7      21.070399   19.380544   20.773783 H          1 MOL1         0.0833
      12    H8      20.715385   21.080371   20.600060 H          1 MOL1         0.0833
      13    C5      21.498449   20.608395   22.540169 C.3        1 MOL1         0.1219
      14    H9      21.028103   21.467800   23.038965 H          1 MOL1         0.0790
      15    C6      21.707399   19.493082   23.595108 C.3        1 MOL1        -0.1760
      16    H10     22.171468   18.609171   23.141102 H          1 MOL1         0.0833
      17    H11     22.444353   19.869095   24.317433 H          1 MOL1         0.0833
      18    C7      20.435398   19.103915   24.394698 C.3        1 MOL1        -0.1684
      19    H12     19.716405   19.931011   24.399581 H          1 MOL1         0.0833
      20    H13     20.717769   18.979328   25.449094 H          1 MOL1         0.0833
      21    C8      19.748889   17.788242   23.946954 C.3        1 MOL1        -0.1684
      22    H14     18.758761   17.724613   24.418234 H          1 MOL1         0.0833
      23    H15     20.328006   16.950437   24.358788 H          1 MOL1         0.0833
      24    O1      22.780487   21.005272   22.073197 O.3        1 MOL1        -0.5508
      25    H16     23.170287   20.220567   21.636069 H          1 MOL1         0.3780
@<TRIPOS>BOND
    1     1     2    1
    2     1     3    1
    3     1     4    1
    4     4     5    1
    5     4     6    1
    6     4     7    1
    7     7     8    1
    8     7     9    1
    9     7    10    1
   10    10    11    1
   11    10    12    1
   12    10    13    1
   13    13    14    1
   14    13    15    1
   15    15    16    1
   16    15    17    1
   17    15    18    1
   18    18    19    1
   19    18    20    1
   20     1    21    1
   21    18    21    1
   22    21    22    1
   23    21    23    1
   24    13    24    1
   25    24    25    1
@<TRIPOS>SUBSTRUCTURE
       1 MOL1            1 RESIDUE      1      MOL     
@<SCITEGIC>MOL_PROPERTY
VConf Rank
SciTegic.value.IntegerValue
246

@<SCITEGIC>MOL_PROPERTY
Conf_Id
SciTegic.value.IntegerValue
15

@<SCITEGIC>MOL_PROPERTY
Delta U+W
SciTegic.value.DoubleValue
-1.271

@<SCITEGIC>MOL_PROPERTY
U+W
SciTegic.value.DoubleValue
9.643

@<SCITEGIC>MOL_PROPERTY
Grad RMS
SciTegic.value.DoubleValue
0.000000

@<SCITEGIC>MOL_PROPERTY
U
SciTegic.value.DoubleValue
11.413

@<SCITEGIC>MOL_PROPERTY
W
SciTegic.value.DoubleValue
-1.770

@<SCITEGIC>MOL_PROPERTY
W(PB)
SciTegic.value.DoubleValue
-3.908

@<SCITEGIC>MOL_PROPERTY
W(SA)
SciTegic.value.DoubleValue
2.138

@<SCITEGIC>MOL_PROPERTY
Valence
SciTegic.value.DoubleValue
17.496

@<SCITEGIC>MOL_PROPERTY
Coulomb
SciTegic.value.DoubleValue
-8.736

@<SCITEGIC>MOL_PROPERTY
VdW
SciTegic.value.DoubleValue
2.653

@<SCITEGIC>MOL_PROPERTY
VdW6
SciTegic.value.DoubleValue
-12.485

@<SCITEGIC>MOL_PROPERTY
VdW12
SciTegic.value.DoubleValue
15.138

@<SCITEGIC>MOL_PROPERTY
Bond
SciTegic.value.DoubleValue
0.414

@<SCITEGIC>MOL_PROPERTY
Angle
SciTegic.value.DoubleValue
5.295

@<SCITEGIC>MOL_PROPERTY
Pdih
SciTegic.value.DoubleValue
11.787

@<SCITEGIC>MOL_PROPERTY
Idih
SciTegic.value.DoubleValue
0.000

@<SCITEGIC>MOL_PROPERTY
Tether
SciTegic.value.DoubleValue
0.000

@<TRIPOS>MOLECULE
guest-s17_confgen4.mol2 : confsearch ligand conformer 247
          25          25           1
SMALL
USER_CHARGES
 
@<TRIPOS>ATOM
       1    C1      18.820171   19.273732   21.472775 C.3        1 MOL1        -0.1684
       2    H1      18.074730   19.216511   20.667775 H          1 MOL1         0.0833
       3    H2      18.512998   20.136353   22.077502 H          1 MOL1         0.0833
       4    C2      18.703397   17.961710   22.292400 C.3        1 MOL1        -0.1684
       5    H3      17.726314   17.959328   22.794524 H          1 MOL1         0.0833
       6    H4      18.684612   17.109938   21.598926 H          1 MOL1         0.0833
       7    C3      19.804280   17.702906   23.349003 C.3        1 MOL1        -0.1684
       8    H5      20.709162   17.333036   22.852862 H          1 MOL1         0.0833
       9    H6      19.475091   16.871932   23.987676 H          1 MOL1         0.0833
      10    C4      20.120984   18.926772   24.247504 C.3        1 MOL1        -0.1760
      11    H7      19.393201   19.729582   24.085584 H          1 MOL1         0.0833
      12    H8      19.986403   18.631330   25.296217 H          1 MOL1         0.0833
      13    C5      21.558451   19.476246   24.099061 C.3        1 MOL1         0.1219
      14    H9      22.237468   18.769400   24.597192 H          1 MOL1         0.0790
      15    C6      22.081229   19.667897   22.651840 C.3        1 MOL1        -0.1760
      16    H10     23.030454   20.215720   22.723920 H          1 MOL1         0.0833
      17    H11     22.357550   18.697963   22.221274 H          1 MOL1         0.0833
      18    C7      21.158985   20.434611   21.666620 C.3        1 MOL1        -0.1684
      19    H12     21.817028   20.951119   20.954341 H          1 MOL1         0.0833
      20    H13     20.606520   21.232460   22.179486 H          1 MOL1         0.0833
      21    C8      20.201376   19.544964   20.826803 C.3        1 MOL1        -0.1684
      22    H14     20.687015   18.604405   20.534077 H          1 MOL1         0.0833
      23    H15     20.013542   20.079988   19.885717 H          1 MOL1         0.0833
      24    O1      21.627408   20.725534   24.772063 O.3        1 MOL1        -0.5508
      25    H16     21.086270   21.345108   24.242495 H          1 MOL1         0.3780
@<TRIPOS>BOND
    1     1     2    1
    2     1     3    1
    3     1     4    1
    4     4     5    1
    5     4     6    1
    6     4     7    1
    7     7     8    1
    8     7     9    1
    9     7    10    1
   10    10    11    1
   11    10    12    1
   12    10    13    1
   13    13    14    1
   14    13    15    1
   15    15    16    1
   16    15    17    1
   17    15    18    1
   18    18    19    1
   19    18    20    1
   20     1    21    1
   21    18    21    1
   22    21    22    1
   23    21    23    1
   24    13    24    1
   25    24    25    1
@<TRIPOS>SUBSTRUCTURE
       1 MOL1            1 RESIDUE      1      MOL     
@<SCITEGIC>MOL_PROPERTY
VConf Rank
SciTegic.value.IntegerValue
247

@<SCITEGIC>MOL_PROPERTY
Conf_Id
SciTegic.value.IntegerValue
115

@<SCITEGIC>MOL_PROPERTY
Delta U+W
SciTegic.value.DoubleValue
0.038

@<SCITEGIC>MOL_PROPERTY
U+W
SciTegic.value.DoubleValue
10.952

@<SCITEGIC>MOL_PROPERTY
Grad RMS
SciTegic.value.DoubleValue
0.000000

@<SCITEGIC>MOL_PROPERTY
U
SciTegic.value.DoubleValue
12.526

@<SCITEGIC>MOL_PROPERTY
W
SciTegic.value.DoubleValue
-1.575

@<SCITEGIC>MOL_PROPERTY
W(PB)
SciTegic.value.DoubleValue
-3.698

@<SCITEGIC>MOL_PROPERTY
W(SA)
SciTegic.value.DoubleValue
2.123

@<SCITEGIC>MOL_PROPERTY
Valence
SciTegic.value.DoubleValue
19.016

@<SCITEGIC>MOL_PROPERTY
Coulomb
SciTegic.value.DoubleValue
-9.226

@<SCITEGIC>MOL_PROPERTY
VdW
SciTegic.value.DoubleValue
2.737

@<SCITEGIC>MOL_PROPERTY
VdW6
SciTegic.value.DoubleValue
-12.612

@<SCITEGIC>MOL_PROPERTY
VdW12
SciTegic.value.DoubleValue
15.349

@<SCITEGIC>MOL_PROPERTY
Bond
SciTegic.value.DoubleValue
0.421

@<SCITEGIC>MOL_PROPERTY
Angle
SciTegic.value.DoubleValue
4.883

@<SCITEGIC>MOL_PROPERTY
Pdih
SciTegic.value.DoubleValue
13.711

@<SCITEGIC>MOL_PROPERTY
Idih
SciTegic.value.DoubleValue
0.000

@<SCITEGIC>MOL_PROPERTY
Tether
SciTegic.value.DoubleValue
0.000

@<TRIPOS>MOLECULE
guest-s17_confgen4.mol2 : confsearch ligand conformer 248
          25          25           1
SMALL
USER_CHARGES
 
@<TRIPOS>ATOM
       1    C1      19.400252   21.126654   23.111254 C.3        1 MOL1        -0.1684
       2    H1      19.409850   22.199943   23.345658 H          1 MOL1         0.0833
       3    H2      18.355768   20.887747   22.869484 H          1 MOL1         0.0833
       4    C2      19.835440   20.372238   24.389145 C.3        1 MOL1        -0.1684
       5    H3      20.835571   20.703152   24.700315 H          1 MOL1         0.0833
       6    H4      19.158350   20.678928   25.198150 H          1 MOL1         0.0833
       7    C3      19.790107   18.829858   24.289632 C.3        1 MOL1        -0.1684
       8    H5      18.883026   18.508372   23.760644 H          1 MOL1         0.0833
       9    H6      19.686345   18.437626   25.310686 H          1 MOL1         0.0833
      10    C4      21.063638   18.191728   23.672502 C.3        1 MOL1        -0.1760
      11    H7      21.887720   18.914380   23.622780 H          1 MOL1         0.0833
      12    H8      21.403919   17.407533   24.362291 H          1 MOL1         0.0833
      13    C5      20.845923   17.542816   22.287054 C.3        1 MOL1         0.1219
      14    H9      19.846429   17.085626   22.261391 H          1 MOL1         0.0790
      15    C6      20.985171   18.512339   21.092455 C.3        1 MOL1        -0.1760
      16    H10     21.999545   18.931839   21.066863 H          1 MOL1         0.0833
      17    H11     20.883152   17.921301   20.172847 H          1 MOL1         0.0833
      18    C7      19.936754   19.649942   21.034562 C.3        1 MOL1        -0.1684
      19    H12     18.941571   19.266919   21.297115 H          1 MOL1         0.0833
      20    H13     19.858044   19.968696   19.986025 H          1 MOL1         0.0833
      21    C8      20.300527   20.902859   21.873532 C.3        1 MOL1        -0.1684
      22    H14     20.183098   21.779648   21.221877 H          1 MOL1         0.0833
      23    H15     21.359111   20.898219   22.165434 H          1 MOL1         0.0833
      24    O1      21.820091   16.519322   22.122413 O.3        1 MOL1        -0.5508
      25    H16     21.632442   16.085073   21.264188 H          1 MOL1         0.3780
@<TRIPOS>BOND
    1     1     2    1
    2     1     3    1
    3     1     4    1
    4     4     5    1
    5     4     6    1
    6     4     7    1
    7     7     8    1
    8     7     9    1
    9     7    10    1
   10    10    11    1
   11    10    12    1
   12    10    13    1
   13    13    14    1
   14    13    15    1
   15    15    16    1
   16    15    17    1
   17    15    18    1
   18    18    19    1
   19    18    20    1
   20     1    21    1
   21    18    21    1
   22    21    22    1
   23    21    23    1
   24    13    24    1
   25    24    25    1
@<TRIPOS>SUBSTRUCTURE
       1 MOL1            1 RESIDUE      1      MOL     
@<SCITEGIC>MOL_PROPERTY
VConf Rank
SciTegic.value.IntegerValue
248

@<SCITEGIC>MOL_PROPERTY
Conf_Id
SciTegic.value.IntegerValue
30

@<SCITEGIC>MOL_PROPERTY
Delta U+W
SciTegic.value.DoubleValue
0.000

@<SCITEGIC>MOL_PROPERTY
U+W
SciTegic.value.DoubleValue
10.913

@<SCITEGIC>MOL_PROPERTY
Grad RMS
SciTegic.value.DoubleValue
0.000000

@<SCITEGIC>MOL_PROPERTY
U
SciTegic.value.DoubleValue
13.140

@<SCITEGIC>MOL_PROPERTY
W
SciTegic.value.DoubleValue
-2.227

@<SCITEGIC>MOL_PROPERTY
W(PB)
SciTegic.value.DoubleValue
-4.367

@<SCITEGIC>MOL_PROPERTY
W(SA)
SciTegic.value.DoubleValue
2.140

@<SCITEGIC>MOL_PROPERTY
Valence
SciTegic.value.DoubleValue
19.155

@<SCITEGIC>MOL_PROPERTY
Coulomb
SciTegic.value.DoubleValue
-8.157

@<SCITEGIC>MOL_PROPERTY
VdW
SciTegic.value.DoubleValue
2.142

@<SCITEGIC>MOL_PROPERTY
VdW6
SciTegic.value.DoubleValue
-11.576

@<SCITEGIC>MOL_PROPERTY
VdW12
SciTegic.value.DoubleValue
13.718

@<SCITEGIC>MOL_PROPERTY
Bond
SciTegic.value.DoubleValue
0.294

@<SCITEGIC>MOL_PROPERTY
Angle
SciTegic.value.DoubleValue
3.547

@<SCITEGIC>MOL_PROPERTY
Pdih
SciTegic.value.DoubleValue
15.314

@<SCITEGIC>MOL_PROPERTY
Idih
SciTegic.value.DoubleValue
0.000

@<SCITEGIC>MOL_PROPERTY
Tether
SciTegic.value.DoubleValue
0.000

@<TRIPOS>MOLECULE
guest-s17_confgen4.mol2 : confsearch ligand conformer 249
          25          25           1
SMALL
USER_CHARGES
 
@<TRIPOS>ATOM
       1    C1      18.502318   18.084952   22.605957 C.3        1 MOL1        -0.1684
       2    H1      18.286732   17.048449   22.312629 H          1 MOL1         0.0833
       3    H2      17.529585   18.532034   22.852289 H          1 MOL1         0.0833
       4    C2      19.082559   18.831785   21.379725 C.3        1 MOL1        -0.1684
       5    H3      18.480940   18.559253   20.501857 H          1 MOL1         0.0833
       6    H4      18.926739   19.910355   21.497886 H          1 MOL1         0.0833
       7    C3      20.568974   18.512165   21.079366 C.3        1 MOL1        -0.1684
       8    H5      20.650923   18.156280   20.043357 H          1 MOL1         0.0833
       9    H6      20.922851   17.674520   21.691542 H          1 MOL1         0.0833
      10    C4      21.522399   19.722121   21.248307 C.3        1 MOL1        -0.1760
      11    H7      22.557067   19.357442   21.201059 H          1 MOL1         0.0833
      12    H8      21.397241   20.386307   20.383230 H          1 MOL1         0.0833
      13    C5      21.346490   20.578483   22.527321 C.3        1 MOL1         0.1219
      14    H9      20.412209   21.150890   22.453452 H          1 MOL1         0.0790
      15    C6      21.335213   19.782308   23.855204 C.3        1 MOL1        -0.1760
      16    H10     21.970236   18.891125   23.771005 H          1 MOL1         0.0833
      17    H11     21.807026   20.402488   24.629004 H          1 MOL1         0.0833
      18    C7      19.921409   19.407750   24.383042 C.3        1 MOL1        -0.1684
      19    H12     19.198307   20.211261   24.188321 H          1 MOL1         0.0833
      20    H13     19.996561   19.342466   25.477266 H          1 MOL1         0.0833
      21    C8      19.375521   18.045374   23.888331 C.3        1 MOL1        -0.1684
      22    H14     18.750916   17.622313   24.687051 H          1 MOL1         0.0833
      23    H15     20.200466   17.331066   23.771877 H          1 MOL1         0.0833
      24    O1      22.428052   21.502016   22.566397 O.3        1 MOL1        -0.5508
      25    H16     22.267901   22.092097   23.332301 H          1 MOL1         0.3780
@<TRIPOS>BOND
    1     1     2    1
    2     1     3    1
    3     1     4    1
    4     4     5    1
    5     4     6    1
    6     4     7    1
    7     7     8    1
    8     7     9    1
    9     7    10    1
   10    10    11    1
   11    10    12    1
   12    10    13    1
   13    13    14    1
   14    13    15    1
   15    15    16    1
   16    15    17    1
   17    15    18    1
   18    18    19    1
   19    18    20    1
   20     1    21    1
   21    18    21    1
   22    21    22    1
   23    21    23    1
   24    13    24    1
   25    24    25    1
@<TRIPOS>SUBSTRUCTURE
       1 MOL1            1 RESIDUE      1      MOL     
@<SCITEGIC>MOL_PROPERTY
VConf Rank
SciTegic.value.IntegerValue
249

@<SCITEGIC>MOL_PROPERTY
Conf_Id
SciTegic.value.IntegerValue
162

@<SCITEGIC>MOL_PROPERTY
Delta U+W
SciTegic.value.DoubleValue
0.219

@<SCITEGIC>MOL_PROPERTY
U+W
SciTegic.value.DoubleValue
11.132

@<SCITEGIC>MOL_PROPERTY
Grad RMS
SciTegic.value.DoubleValue
0.000000

@<SCITEGIC>MOL_PROPERTY
U
SciTegic.value.DoubleValue
13.296

@<SCITEGIC>MOL_PROPERTY
W
SciTegic.value.DoubleValue
-2.164

@<SCITEGIC>MOL_PROPERTY
W(PB)
SciTegic.value.DoubleValue
-4.311

@<SCITEGIC>MOL_PROPERTY
W(SA)
SciTegic.value.DoubleValue
2.148

@<SCITEGIC>MOL_PROPERTY
Valence
SciTegic.value.DoubleValue
18.607

@<SCITEGIC>MOL_PROPERTY
Coulomb
SciTegic.value.DoubleValue
-8.339

@<SCITEGIC>MOL_PROPERTY
VdW
SciTegic.value.DoubleValue
3.028

@<SCITEGIC>MOL_PROPERTY
VdW6
SciTegic.value.DoubleValue
-12.271

@<SCITEGIC>MOL_PROPERTY
VdW12
SciTegic.value.DoubleValue
15.299

@<SCITEGIC>MOL_PROPERTY
Bond
SciTegic.value.DoubleValue
0.423

@<SCITEGIC>MOL_PROPERTY
Angle
SciTegic.value.DoubleValue
4.488

@<SCITEGIC>MOL_PROPERTY
Pdih
SciTegic.value.DoubleValue
13.696

@<SCITEGIC>MOL_PROPERTY
Idih
SciTegic.value.DoubleValue
0.000

@<SCITEGIC>MOL_PROPERTY
Tether
SciTegic.value.DoubleValue
0.000

@<TRIPOS>MOLECULE
guest-s17_confgen4.mol2 : confsearch ligand conformer 250
          25          25           1
SMALL
USER_CHARGES
 
@<TRIPOS>ATOM
       1    C1      20.412411   20.993336   23.624843 C.3        1 MOL1        -0.1684
       2    H1      19.556414   20.648194   24.218426 H          1 MOL1         0.0833
       3    H2      20.655939   21.983179   24.034564 H          1 MOL1         0.0833
       4    C2      21.629387   20.064855   23.862732 C.3        1 MOL1        -0.1684
       5    H3      22.357743   20.159936   23.046221 H          1 MOL1         0.0833
       6    H4      22.145472   20.439313   24.757481 H          1 MOL1         0.0833
       7    C3      21.281753   18.574586   24.134415 C.3        1 MOL1        -0.1684
       8    H5      20.366292   18.483590   24.734262 H          1 MOL1         0.0833
       9    H6      22.084595   18.171902   24.767204 H          1 MOL1         0.0833
      10    C4      21.208205   17.672294   22.875190 C.3        1 MOL1        -0.1760
      11    H7      21.937134   18.011218   22.128806 H          1 MOL1         0.0833
      12    H8      21.544496   16.667538   23.162574 H          1 MOL1         0.0833
      13    C5      19.808877   17.501772   22.231661 C.3        1 MOL1         0.1219
      14    H9      19.199522   16.886526   22.909341 H          1 MOL1         0.0790
      15    C6      19.018339   18.803000   21.956146 C.3        1 MOL1        -0.1760
      16    H10     18.158492   18.561105   21.318063 H          1 MOL1         0.0833
      17    H11     18.572252   19.153172   22.893143 H          1 MOL1         0.0833
      18    C7      19.839968   19.931454   21.278656 C.3        1 MOL1        -0.1684
      19    H12     19.344979   20.213717   20.339681 H          1 MOL1         0.0833
      20    H13     20.828388   19.567386   20.974370 H          1 MOL1         0.0833
      21    C8      20.000974   21.204919   22.143610 C.3        1 MOL1        -0.1684
      22    H14     19.054842   21.762900   22.128427 H          1 MOL1         0.0833
      23    H15     20.740249   21.857555   21.659615 H          1 MOL1         0.0833
      24    O1      19.977730   16.805337   21.002610 O.3        1 MOL1        -0.5508
      25    H16     19.086256   16.708535   20.608883 H          1 MOL1         0.3780
@<TRIPOS>BOND
    1     1     2    1
    2     1     3    1
    3     1     4    1
    4     4     5    1
    5     4     6    1
    6     4     7    1
    7     7     8    1
    8     7     9    1
    9     7    10    1
   10    10    11    1
   11    10    12    1
   12    10    13    1
   13    13    14    1
   14    13    15    1
   15    15    16    1
   16    15    17    1
   17    15    18    1
   18    18    19    1
   19    18    20    1
   20     1    21    1
   21    18    21    1
   22    21    22    1
   23    21    23    1
   24    13    24    1
   25    24    25    1
@<TRIPOS>SUBSTRUCTURE
       1 MOL1            1 RESIDUE      1      MOL     
@<SCITEGIC>MOL_PROPERTY
VConf Rank
SciTegic.value.IntegerValue
250

@<SCITEGIC>MOL_PROPERTY
Conf_Id
SciTegic.value.IntegerValue
155

@<SCITEGIC>MOL_PROPERTY
Delta U+W
SciTegic.value.DoubleValue
0.339

@<SCITEGIC>MOL_PROPERTY
U+W
SciTegic.value.DoubleValue
11.252

@<SCITEGIC>MOL_PROPERTY
Grad RMS
SciTegic.value.DoubleValue
0.000000

@<SCITEGIC>MOL_PROPERTY
U
SciTegic.value.DoubleValue
13.420

@<SCITEGIC>MOL_PROPERTY
W
SciTegic.value.DoubleValue
-2.167

@<SCITEGIC>MOL_PROPERTY
W(PB)
SciTegic.value.DoubleValue
-4.325

@<SCITEGIC>MOL_PROPERTY
W(SA)
SciTegic.value.DoubleValue
2.157

@<SCITEGIC>MOL_PROPERTY
Valence
SciTegic.value.DoubleValue
18.609

@<SCITEGIC>MOL_PROPERTY
Coulomb
SciTegic.value.DoubleValue
-8.052

@<SCITEGIC>MOL_PROPERTY
VdW
SciTegic.value.DoubleValue
2.863

@<SCITEGIC>MOL_PROPERTY
VdW6
SciTegic.value.DoubleValue
-12.524

@<SCITEGIC>MOL_PROPERTY
VdW12
SciTegic.value.DoubleValue
15.387

@<SCITEGIC>MOL_PROPERTY
Bond
SciTegic.value.DoubleValue
0.430

@<SCITEGIC>MOL_PROPERTY
Angle
SciTegic.value.DoubleValue
4.724

@<SCITEGIC>MOL_PROPERTY
Pdih
SciTegic.value.DoubleValue
13.455

@<SCITEGIC>MOL_PROPERTY
Idih
SciTegic.value.DoubleValue
0.000

@<SCITEGIC>MOL_PROPERTY
Tether
SciTegic.value.DoubleValue
0.000

@<TRIPOS>MOLECULE
guest-s17_confgen4.mol2 : confsearch ligand conformer 251
          25          25           1
SMALL
USER_CHARGES
 
@<TRIPOS>ATOM
       1    C1      19.196461   17.762088   21.923067 C.3        1 MOL1        -0.1684
       2    H1      18.568921   17.250414   22.665174 H          1 MOL1         0.0833
       3    H2      18.957312   17.287989   20.961391 H          1 MOL1         0.0833
       4    C2      18.755182   19.245567   21.816385 C.3        1 MOL1        -0.1684
       5    H3      19.298571   19.726334   20.996793 H          1 MOL1         0.0833
       6    H4      17.711376   19.257465   21.474266 H          1 MOL1         0.0833
       7    C3      18.822601   20.111436   23.108260 C.3        1 MOL1        -0.1684
       8    H5      17.879926   19.964178   23.652530 H          1 MOL1         0.0833
       9    H6      18.835611   21.172772   22.825211 H          1 MOL1         0.0833
      10    C4      19.974441   19.839243   24.113785 C.3        1 MOL1        -0.1760
      11    H7      19.774350   20.438449   25.011679 H          1 MOL1         0.0833
      12    H8      19.897163   18.811440   24.479028 H          1 MOL1         0.0833
      13    C5      21.431221   20.141248   23.654559 C.3        1 MOL1         0.1219
      14    H9      22.109145   19.530726   24.268114 H          1 MOL1         0.0790
      15    C6      21.782970   19.893139   22.166185 C.3        1 MOL1        -0.1760
      16    H10     21.161409   20.539433   21.539699 H          1 MOL1         0.0833
      17    H11     22.800017   20.272129   22.000030 H          1 MOL1         0.0833
      18    C7      21.755742   18.424447   21.646082 C.3        1 MOL1        -0.1684
      19    H12     22.739493   17.982965   21.856236 H          1 MOL1         0.0833
      20    H13     21.668664   18.437106   20.551285 H          1 MOL1         0.0833
      21    C8      20.692060   17.458710   22.231420 C.3        1 MOL1        -0.1684
      22    H14     20.853370   17.350136   23.308531 H          1 MOL1         0.0833
      23    H15     20.904380   16.454992   21.838545 H          1 MOL1         0.0833
      24    O1      21.695869   21.514645   23.918995 O.3        1 MOL1        -0.5508
      25    H16     21.522472   21.657821   24.872239 H          1 MOL1         0.3780
@<TRIPOS>BOND
    1     1     2    1
    2     1     3    1
    3     1     4    1
    4     4     5    1
    5     4     6    1
    6     4     7    1
    7     7     8    1
    8     7     9    1
    9     7    10    1
   10    10    11    1
   11    10    12    1
   12    10    13    1
   13    13    14    1
   14    13    15    1
   15    15    16    1
   16    15    17    1
   17    15    18    1
   18    18    19    1
   19    18    20    1
   20     1    21    1
   21    18    21    1
   22    21    22    1
   23    21    23    1
   24    13    24    1
   25    24    25    1
@<TRIPOS>SUBSTRUCTURE
       1 MOL1            1 RESIDUE      1      MOL     
@<SCITEGIC>MOL_PROPERTY
VConf Rank
SciTegic.value.IntegerValue
251

@<SCITEGIC>MOL_PROPERTY
Conf_Id
SciTegic.value.IntegerValue
146

@<SCITEGIC>MOL_PROPERTY
Delta U+W
SciTegic.value.DoubleValue
2.553

@<SCITEGIC>MOL_PROPERTY
U+W
SciTegic.value.DoubleValue
13.466

@<SCITEGIC>MOL_PROPERTY
Grad RMS
SciTegic.value.DoubleValue
0.000000

@<SCITEGIC>MOL_PROPERTY
U
SciTegic.value.DoubleValue
15.643

@<SCITEGIC>MOL_PROPERTY
W
SciTegic.value.DoubleValue
-2.176

@<SCITEGIC>MOL_PROPERTY
W(PB)
SciTegic.value.DoubleValue
-4.307

@<SCITEGIC>MOL_PROPERTY
W(SA)
SciTegic.value.DoubleValue
2.131

@<SCITEGIC>MOL_PROPERTY
Valence
SciTegic.value.DoubleValue
18.916

@<SCITEGIC>MOL_PROPERTY
Coulomb
SciTegic.value.DoubleValue
-7.506

@<SCITEGIC>MOL_PROPERTY
VdW
SciTegic.value.DoubleValue
4.232

@<SCITEGIC>MOL_PROPERTY
VdW6
SciTegic.value.DoubleValue
-13.632

@<SCITEGIC>MOL_PROPERTY
VdW12
SciTegic.value.DoubleValue
17.864

@<SCITEGIC>MOL_PROPERTY
Bond
SciTegic.value.DoubleValue
0.735

@<SCITEGIC>MOL_PROPERTY
Angle
SciTegic.value.DoubleValue
9.140

@<SCITEGIC>MOL_PROPERTY
Pdih
SciTegic.value.DoubleValue
9.042

@<SCITEGIC>MOL_PROPERTY
Idih
SciTegic.value.DoubleValue
0.000

@<SCITEGIC>MOL_PROPERTY
Tether
SciTegic.value.DoubleValue
0.000

@<TRIPOS>MOLECULE
guest-s17_confgen4.mol2 : confsearch ligand conformer 252
          25          25           1
SMALL
USER_CHARGES
 
@<TRIPOS>ATOM
       1    C1      18.625672   19.898106   23.670045 C.3        1 MOL1        -0.1684
       2    H1      18.281043   20.940653   23.641222 H          1 MOL1         0.0833
       3    H2      17.906838   19.366126   24.308158 H          1 MOL1         0.0833
       4    C2      20.004236   19.834558   24.374079 C.3        1 MOL1        -0.1684
       5    H3      19.866150   20.214333   25.395599 H          1 MOL1         0.0833
       6    H4      20.316476   18.792510   24.507459 H          1 MOL1         0.0833
       7    C3      21.140629   20.664021   23.725247 C.3        1 MOL1        -0.1684
       8    H5      22.010396   20.613529   24.394528 H          1 MOL1         0.0833
       9    H6      20.847486   21.722192   23.697250 H          1 MOL1         0.0833
      10    C4      21.605825   20.232781   22.309857 C.3        1 MOL1        -0.1760
      11    H7      20.933051   20.639241   21.548125 H          1 MOL1         0.0833
      12    H8      22.566677   20.730221   22.120511 H          1 MOL1         0.0833
      13    C5      21.778874   18.704859   22.110901 C.3        1 MOL1         0.1219
      14    H9      21.886866   18.216082   23.088489 H          1 MOL1         0.0790
      15    C6      20.623704   18.033021   21.326058 C.3        1 MOL1        -0.1760
      16    H10     20.496500   18.545102   20.363087 H          1 MOL1         0.0833
      17    H11     20.932620   17.008931   21.078771 H          1 MOL1         0.0833
      18    C7      19.249255   17.939727   22.042850 C.3        1 MOL1        -0.1684
      19    H12     19.340836   17.396525   22.992242 H          1 MOL1         0.0833
      20    H13     18.602402   17.311798   21.414942 H          1 MOL1         0.0833
      21    C8      18.526637   19.296847   22.244180 C.3        1 MOL1        -0.1684
      22    H14     17.459125   19.150448   22.029647 H          1 MOL1         0.0833
      23    H15     18.857675   20.024167   21.494351 H          1 MOL1         0.0833
      24    O1      22.975136   18.488165   21.371070 O.3        1 MOL1        -0.5508
      25    H16     23.096988   17.517956   21.307305 H          1 MOL1         0.3780
@<TRIPOS>BOND
    1     1     2    1
    2     1     3    1
    3     1     4    1
    4     4     5    1
    5     4     6    1
    6     4     7    1
    7     7     8    1
    8     7     9    1
    9     7    10    1
   10    10    11    1
   11    10    12    1
   12    10    13    1
   13    13    14    1
   14    13    15    1
   15    15    16    1
   16    15    17    1
   17    15    18    1
   18    18    19    1
   19    18    20    1
   20     1    21    1
   21    18    21    1
   22    21    22    1
   23    21    23    1
   24    13    24    1
   25    24    25    1
@<TRIPOS>SUBSTRUCTURE
       1 MOL1            1 RESIDUE      1      MOL     
@<SCITEGIC>MOL_PROPERTY
VConf Rank
SciTegic.value.IntegerValue
252

@<SCITEGIC>MOL_PROPERTY
Conf_Id
SciTegic.value.IntegerValue
62

@<SCITEGIC>MOL_PROPERTY
Delta U+W
SciTegic.value.DoubleValue
-1.779

@<SCITEGIC>MOL_PROPERTY
U+W
SciTegic.value.DoubleValue
9.134

@<SCITEGIC>MOL_PROPERTY
Grad RMS
SciTegic.value.DoubleValue
0.000000

@<SCITEGIC>MOL_PROPERTY
U
SciTegic.value.DoubleValue
11.364

@<SCITEGIC>MOL_PROPERTY
W
SciTegic.value.DoubleValue
-2.230

@<SCITEGIC>MOL_PROPERTY
W(PB)
SciTegic.value.DoubleValue
-4.359

@<SCITEGIC>MOL_PROPERTY
W(SA)
SciTegic.value.DoubleValue
2.129

@<SCITEGIC>MOL_PROPERTY
Valence
SciTegic.value.DoubleValue
16.582

@<SCITEGIC>MOL_PROPERTY
Coulomb
SciTegic.value.DoubleValue
-8.150

@<SCITEGIC>MOL_PROPERTY
VdW
SciTegic.value.DoubleValue
2.933

@<SCITEGIC>MOL_PROPERTY
VdW6
SciTegic.value.DoubleValue
-12.531

@<SCITEGIC>MOL_PROPERTY
VdW12
SciTegic.value.DoubleValue
15.464

@<SCITEGIC>MOL_PROPERTY
Bond
SciTegic.value.DoubleValue
0.439

@<SCITEGIC>MOL_PROPERTY
Angle
SciTegic.value.DoubleValue
5.099

@<SCITEGIC>MOL_PROPERTY
Pdih
SciTegic.value.DoubleValue
11.044

@<SCITEGIC>MOL_PROPERTY
Idih
SciTegic.value.DoubleValue
0.000

@<SCITEGIC>MOL_PROPERTY
Tether
SciTegic.value.DoubleValue
0.000

@<TRIPOS>MOLECULE
guest-s17_confgen4.mol2 : confsearch ligand conformer 253
          25          25           1
SMALL
USER_CHARGES
 
@<TRIPOS>ATOM
       1    C1      22.202576   18.878840   22.561819 C.3        1 MOL1        -0.1684
       2    H1      21.938243   19.264323   21.570530 H          1 MOL1         0.0833
       3    H2      23.279450   18.671205   22.499604 H          1 MOL1         0.0833
       4    C2      21.488314   17.529655   22.824844 C.3        1 MOL1        -0.1684
       5    H3      21.815020   16.827268   22.045868 H          1 MOL1         0.0833
       6    H4      21.846741   17.108311   23.773788 H          1 MOL1         0.0833
       7    C3      19.938303   17.540619   22.832962 C.3        1 MOL1        -0.1684
       8    H5      19.560913   17.856848   23.812027 H          1 MOL1         0.0833
       9    H6      19.606851   16.497769   22.734838 H          1 MOL1         0.0833
      10    C4      19.275083   18.368842   21.700046 C.3        1 MOL1        -0.1760
      11    H7      19.948600   18.471720   20.840371 H          1 MOL1         0.0833
      12    H8      18.420999   17.786498   21.330238 H          1 MOL1         0.0833
      13    C5      18.734879   19.754529   22.135300 C.3        1 MOL1         0.1219
      14    H9      18.072550   19.609824   23.000957 H          1 MOL1         0.0790
      15    C6      19.794864   20.819244   22.513087 C.3        1 MOL1        -0.1760
      16    H10     20.481054   20.992832   21.675352 H          1 MOL1         0.0833
      17    H11     19.260030   21.768609   22.648990 H          1 MOL1         0.0833
      18    C7      20.572860   20.533786   23.825643 C.3        1 MOL1        -0.1684
      19    H12     19.988985   19.880692   24.484054 H          1 MOL1         0.0833
      20    H13     20.662340   21.476318   24.382935 H          1 MOL1         0.0833
      21    C8      22.006937   19.976100   23.637675 C.3        1 MOL1        -0.1684
      22    H14     22.375376   19.606636   24.604232 H          1 MOL1         0.0833
      23    H15     22.661841   20.817202   23.372102 H          1 MOL1         0.0833
      24    O1      17.969198   20.277267   21.056920 O.3        1 MOL1        -0.5508
      25    H16     17.260186   19.626796   20.871614 H          1 MOL1         0.3780
@<TRIPOS>BOND
    1     1     2    1
    2     1     3    1
    3     1     4    1
    4     4     5    1
    5     4     6    1
    6     4     7    1
    7     7     8    1
    8     7     9    1
    9     7    10    1
   10    10    11    1
   11    10    12    1
   12    10    13    1
   13    13    14    1
   14    13    15    1
   15    15    16    1
   16    15    17    1
   17    15    18    1
   18    18    19    1
   19    18    20    1
   20     1    21    1
   21    18    21    1
   22    21    22    1
   23    21    23    1
   24    13    24    1
   25    24    25    1
@<TRIPOS>SUBSTRUCTURE
       1 MOL1            1 RESIDUE      1      MOL     
@<SCITEGIC>MOL_PROPERTY
VConf Rank
SciTegic.value.IntegerValue
253

@<SCITEGIC>MOL_PROPERTY
Conf_Id
SciTegic.value.IntegerValue
121

@<SCITEGIC>MOL_PROPERTY
Delta U+W
SciTegic.value.DoubleValue
-1.283

@<SCITEGIC>MOL_PROPERTY
U+W
SciTegic.value.DoubleValue
9.630

@<SCITEGIC>MOL_PROPERTY
Grad RMS
SciTegic.value.DoubleValue
0.000000

@<SCITEGIC>MOL_PROPERTY
U
SciTegic.value.DoubleValue
11.876

@<SCITEGIC>MOL_PROPERTY
W
SciTegic.value.DoubleValue
-2.246

@<SCITEGIC>MOL_PROPERTY
W(PB)
SciTegic.value.DoubleValue
-4.376

@<SCITEGIC>MOL_PROPERTY
W(SA)
SciTegic.value.DoubleValue
2.130

@<SCITEGIC>MOL_PROPERTY
Valence
SciTegic.value.DoubleValue
17.153

@<SCITEGIC>MOL_PROPERTY
Coulomb
SciTegic.value.DoubleValue
-7.966

@<SCITEGIC>MOL_PROPERTY
VdW
SciTegic.value.DoubleValue
2.689

@<SCITEGIC>MOL_PROPERTY
VdW6
SciTegic.value.DoubleValue
-12.458

@<SCITEGIC>MOL_PROPERTY
VdW12
SciTegic.value.DoubleValue
15.147

@<SCITEGIC>MOL_PROPERTY
Bond
SciTegic.value.DoubleValue
0.421

@<SCITEGIC>MOL_PROPERTY
Angle
SciTegic.value.DoubleValue
5.258

@<SCITEGIC>MOL_PROPERTY
Pdih
SciTegic.value.DoubleValue
11.475

@<SCITEGIC>MOL_PROPERTY
Idih
SciTegic.value.DoubleValue
0.000

@<SCITEGIC>MOL_PROPERTY
Tether
SciTegic.value.DoubleValue
0.000

@<TRIPOS>MOLECULE
guest-s17_confgen4.mol2 : confsearch ligand conformer 254
          25          25           1
SMALL
USER_CHARGES
 
@<TRIPOS>ATOM
       1    C1      22.003546   18.690271   22.030744 C.3        1 MOL1        -0.1684
       2    H1      21.373753   17.795081   21.974885 H          1 MOL1         0.0833
       3    H2      22.977577   18.368001   21.638260 H          1 MOL1         0.0833
       4    C2      22.217801   19.108508   23.506852 C.3        1 MOL1        -0.1684
       5    H3      22.707875   18.268898   24.018482 H          1 MOL1         0.0833
       6    H4      22.934035   19.940240   23.548230 H          1 MOL1         0.0833
       7    C3      20.956561   19.489417   24.323618 C.3        1 MOL1        -0.1684
       8    H5      20.679622   20.533657   24.139736 H          1 MOL1         0.0833
       9    H6      21.237967   19.462861   25.385246 H          1 MOL1         0.0833
      10    C4      19.730841   18.558093   24.124069 C.3        1 MOL1        -0.1760
      11    H7      20.041076   17.560928   23.789098 H          1 MOL1         0.0833
      12    H8      19.274115   18.401635   25.110341 H          1 MOL1         0.0833
      13    C5      18.623710   19.121884   23.198696 C.3        1 MOL1         0.1219
      14    H9      18.345745   20.119752   23.567444 H          1 MOL1         0.0790
      15    C6      18.977546   19.241032   21.694705 C.3        1 MOL1        -0.1760
      16    H10     19.268788   18.264013   21.289904 H          1 MOL1         0.0833
      17    H11     18.056135   19.511540   21.162566 H          1 MOL1         0.0833
      18    C7      20.036895   20.323886   21.356304 C.3        1 MOL1        -0.1684
      19    H12     20.058375   21.096866   22.132856 H          1 MOL1         0.0833
      20    H13     19.709415   20.853325   20.451055 H          1 MOL1         0.0833
      21    C8      21.465577   19.789357   21.080873 C.3        1 MOL1        -0.1684
      22    H14     22.166625   20.634885   21.070461 H          1 MOL1         0.0833
      23    H15     21.479920   19.379174   20.061838 H          1 MOL1         0.0833
      24    O1      17.495369   18.263437   23.309779 O.3        1 MOL1        -0.5508
      25    H16     16.779696   18.665833   22.774953 H          1 MOL1         0.3780
@<TRIPOS>BOND
    1     1     2    1
    2     1     3    1
    3     1     4    1
    4     4     5    1
    5     4     6    1
    6     4     7    1
    7     7     8    1
    8     7     9    1
    9     7    10    1
   10    10    11    1
   11    10    12    1
   12    10    13    1
   13    13    14    1
   14    13    15    1
   15    15    16    1
   16    15    17    1
   17    15    18    1
   18    18    19    1
   19    18    20    1
   20     1    21    1
   21    18    21    1
   22    21    22    1
   23    21    23    1
   24    13    24    1
   25    24    25    1
@<TRIPOS>SUBSTRUCTURE
       1 MOL1            1 RESIDUE      1      MOL     
@<SCITEGIC>MOL_PROPERTY
VConf Rank
SciTegic.value.IntegerValue
254

@<SCITEGIC>MOL_PROPERTY
Conf_Id
SciTegic.value.IntegerValue
24

@<SCITEGIC>MOL_PROPERTY
Delta U+W
SciTegic.value.DoubleValue
-1.236

@<SCITEGIC>MOL_PROPERTY
U+W
SciTegic.value.DoubleValue
9.678

@<SCITEGIC>MOL_PROPERTY
Grad RMS
SciTegic.value.DoubleValue
0.000000

@<SCITEGIC>MOL_PROPERTY
U
SciTegic.value.DoubleValue
11.876

@<SCITEGIC>MOL_PROPERTY
W
SciTegic.value.DoubleValue
-2.199

@<SCITEGIC>MOL_PROPERTY
W(PB)
SciTegic.value.DoubleValue
-4.335

@<SCITEGIC>MOL_PROPERTY
W(SA)
SciTegic.value.DoubleValue
2.137

@<SCITEGIC>MOL_PROPERTY
Valence
SciTegic.value.DoubleValue
17.153

@<SCITEGIC>MOL_PROPERTY
Coulomb
SciTegic.value.DoubleValue
-7.966

@<SCITEGIC>MOL_PROPERTY
VdW
SciTegic.value.DoubleValue
2.689

@<SCITEGIC>MOL_PROPERTY
VdW6
SciTegic.value.DoubleValue
-12.458

@<SCITEGIC>MOL_PROPERTY
VdW12
SciTegic.value.DoubleValue
15.147

@<SCITEGIC>MOL_PROPERTY
Bond
SciTegic.value.DoubleValue
0.421

@<SCITEGIC>MOL_PROPERTY
Angle
SciTegic.value.DoubleValue
5.258

@<SCITEGIC>MOL_PROPERTY
Pdih
SciTegic.value.DoubleValue
11.475

@<SCITEGIC>MOL_PROPERTY
Idih
SciTegic.value.DoubleValue
0.000

@<SCITEGIC>MOL_PROPERTY
Tether
SciTegic.value.DoubleValue
0.000

@<TRIPOS>MOLECULE
guest-s17_confgen4.mol2 : confsearch ligand conformer 255
          25          25           1
SMALL
USER_CHARGES
 
@<TRIPOS>ATOM
       1    C1      19.019204   20.518714   21.507703 C.3        1 MOL1        -0.1684
       2    H1      18.327227   21.234912   21.971389 H          1 MOL1         0.0833
       3    H2      18.862724   20.613273   20.424455 H          1 MOL1         0.0833
       4    C2      20.475640   20.954382   21.819454 C.3        1 MOL1        -0.1684
       5    H3      21.178745   20.477868   21.124564 H          1 MOL1         0.0833
       6    H4      20.543606   22.027337   21.593147 H          1 MOL1         0.0833
       7    C3      20.950125   20.745005   23.278798 C.3        1 MOL1        -0.1684
       8    H5      20.122826   20.901322   23.984204 H          1 MOL1         0.0833
       9    H6      21.672921   21.543339   23.496589 H          1 MOL1         0.0833
      10    C4      21.673180   19.395572   23.551102 C.3        1 MOL1        -0.1760
      11    H7      22.286842   19.100732   22.690308 H          1 MOL1         0.0833
      12    H8      22.382814   19.580041   24.369234 H          1 MOL1         0.0833
      13    C5      20.746797   18.232294   23.982004 C.3        1 MOL1         0.1219
      14    H9      19.873262   18.654239   24.496372 H          1 MOL1         0.0790
      15    C6      20.267915   17.305325   22.836051 C.3        1 MOL1        -0.1760
      16    H10     21.106910   16.684989   22.494522 H          1 MOL1         0.0833
      17    H11     19.530235   16.609761   23.257526 H          1 MOL1         0.0833
      18    C7      19.638821   17.991796   21.597649 C.3        1 MOL1        -0.1684
      19    H12     19.144029   17.218580   20.994262 H          1 MOL1         0.0833
      20    H13     20.431375   18.386053   20.951035 H          1 MOL1         0.0833
      21    C8      18.603243   19.091917   21.942127 C.3        1 MOL1        -0.1684
      22    H14     18.363720   19.087929   23.011832 H          1 MOL1         0.0833
      23    H15     17.654530   18.849283   21.444187 H          1 MOL1         0.0833
      24    O1      21.451280   17.421215   24.913434 O.3        1 MOL1        -0.5508
      25    H16     22.234894   17.073046   24.440464 H          1 MOL1         0.3780
@<TRIPOS>BOND
    1     1     2    1
    2     1     3    1
    3     1     4    1
    4     4     5    1
    5     4     6    1
    6     4     7    1
    7     7     8    1
    8     7     9    1
    9     7    10    1
   10    10    11    1
   11    10    12    1
   12    10    13    1
   13    13    14    1
   14    13    15    1
   15    15    16    1
   16    15    17    1
   17    15    18    1
   18    18    19    1
   19    18    20    1
   20     1    21    1
   21    18    21    1
   22    21    22    1
   23    21    23    1
   24    13    24    1
   25    24    25    1
@<TRIPOS>SUBSTRUCTURE
       1 MOL1            1 RESIDUE      1      MOL     
@<SCITEGIC>MOL_PROPERTY
VConf Rank
SciTegic.value.IntegerValue
255

@<SCITEGIC>MOL_PROPERTY
Conf_Id
SciTegic.value.IntegerValue
167

@<SCITEGIC>MOL_PROPERTY
Delta U+W
SciTegic.value.DoubleValue
0.388

@<SCITEGIC>MOL_PROPERTY
U+W
SciTegic.value.DoubleValue
11.301

@<SCITEGIC>MOL_PROPERTY
Grad RMS
SciTegic.value.DoubleValue
0.000000

@<SCITEGIC>MOL_PROPERTY
U
SciTegic.value.DoubleValue
13.202

@<SCITEGIC>MOL_PROPERTY
W
SciTegic.value.DoubleValue
-1.901

@<SCITEGIC>MOL_PROPERTY
W(PB)
SciTegic.value.DoubleValue
-4.065

@<SCITEGIC>MOL_PROPERTY
W(SA)
SciTegic.value.DoubleValue
2.163

@<SCITEGIC>MOL_PROPERTY
Valence
SciTegic.value.DoubleValue
18.957

@<SCITEGIC>MOL_PROPERTY
Coulomb
SciTegic.value.DoubleValue
-8.753

@<SCITEGIC>MOL_PROPERTY
VdW
SciTegic.value.DoubleValue
2.998

@<SCITEGIC>MOL_PROPERTY
VdW6
SciTegic.value.DoubleValue
-12.294

@<SCITEGIC>MOL_PROPERTY
VdW12
SciTegic.value.DoubleValue
15.292

@<SCITEGIC>MOL_PROPERTY
Bond
SciTegic.value.DoubleValue
0.419

@<SCITEGIC>MOL_PROPERTY
Angle
SciTegic.value.DoubleValue
4.543

@<SCITEGIC>MOL_PROPERTY
Pdih
SciTegic.value.DoubleValue
13.996

@<SCITEGIC>MOL_PROPERTY
Idih
SciTegic.value.DoubleValue
0.000

@<SCITEGIC>MOL_PROPERTY
Tether
SciTegic.value.DoubleValue
0.000

@<TRIPOS>MOLECULE
guest-s17_confgen4.mol2 : confsearch ligand conformer 256
          25          25           1
SMALL
USER_CHARGES
 
@<TRIPOS>ATOM
       1    C1      21.196070   19.018614   20.805770 C.3        1 MOL1        -0.1684
       2    H1      20.747189   18.387047   20.027226 H          1 MOL1         0.0833
       3    H2      22.098324   19.451097   20.352102 H          1 MOL1         0.0833
       4    C2      21.646654   18.117825   21.985116 C.3        1 MOL1        -0.1684
       5    H3      20.899152   17.342316   22.186686 H          1 MOL1         0.0833
       6    H4      22.531318   17.561800   21.645646 H          1 MOL1         0.0833
       7    C3      22.020261   18.866180   23.290959 C.3        1 MOL1        -0.1684
       8    H5      22.339232   19.894796   23.078880 H          1 MOL1         0.0833
       9    H6      22.906494   18.372366   23.712437 H          1 MOL1         0.0833
      10    C4      20.924109   18.845065   24.391074 C.3        1 MOL1        -0.1760
      11    H7      20.651266   17.805425   24.614565 H          1 MOL1         0.0833
      12    H8      21.373714   19.237723   25.312736 H          1 MOL1         0.0833
      13    C5      19.637271   19.660979   24.112257 C.3        1 MOL1         0.1219
      14    H9      19.914326   20.692555   23.856822 H          1 MOL1         0.0790
      15    C6      18.740134   19.066494   22.995807 C.3        1 MOL1        -0.1760
      16    H10     18.954724   18.000720   22.867939 H          1 MOL1         0.0833
      17    H11     17.689905   19.095846   23.315341 H          1 MOL1         0.0833
      18    C7      18.822773   19.796941   21.630383 C.3        1 MOL1        -0.1684
      19    H12     18.229109   20.718409   21.703902 H          1 MOL1         0.0833
      20    H13     18.325955   19.182868   20.867075 H          1 MOL1         0.0833
      21    C8      20.235605   20.190293   21.130336 C.3        1 MOL1        -0.1684
      22    H14     20.710438   20.889713   21.827826 H          1 MOL1         0.0833
      23    H15     20.104217   20.769133   20.205942 H          1 MOL1         0.0833
      24    O1      18.884875   19.690357   25.319402 O.3        1 MOL1        -0.5508
      25    H16     18.108895   20.265281   25.152567 H          1 MOL1         0.3780
@<TRIPOS>BOND
    1     1     2    1
    2     1     3    1
    3     1     4    1
    4     4     5    1
    5     4     6    1
    6     4     7    1
    7     7     8    1
    8     7     9    1
    9     7    10    1
   10    10    11    1
   11    10    12    1
   12    10    13    1
   13    13    14    1
   14    13    15    1
   15    15    16    1
   16    15    17    1
   17    15    18    1
   18    18    19    1
   19    18    20    1
   20     1    21    1
   21    18    21    1
   22    21    22    1
   23    21    23    1
   24    13    24    1
   25    24    25    1
@<TRIPOS>SUBSTRUCTURE
       1 MOL1            1 RESIDUE      1      MOL     
@<SCITEGIC>MOL_PROPERTY
VConf Rank
SciTegic.value.IntegerValue
256

@<SCITEGIC>MOL_PROPERTY
Conf_Id
SciTegic.value.IntegerValue
60

@<SCITEGIC>MOL_PROPERTY
Delta U+W
SciTegic.value.DoubleValue
-1.838

@<SCITEGIC>MOL_PROPERTY
U+W
SciTegic.value.DoubleValue
9.075

@<SCITEGIC>MOL_PROPERTY
Grad RMS
SciTegic.value.DoubleValue
0.000000

@<SCITEGIC>MOL_PROPERTY
U
SciTegic.value.DoubleValue
11.150

@<SCITEGIC>MOL_PROPERTY
W
SciTegic.value.DoubleValue
-2.074

@<SCITEGIC>MOL_PROPERTY
W(PB)
SciTegic.value.DoubleValue
-4.196

@<SCITEGIC>MOL_PROPERTY
W(SA)
SciTegic.value.DoubleValue
2.121

@<SCITEGIC>MOL_PROPERTY
Valence
SciTegic.value.DoubleValue
16.582

@<SCITEGIC>MOL_PROPERTY
Coulomb
SciTegic.value.DoubleValue
-8.361

@<SCITEGIC>MOL_PROPERTY
VdW
SciTegic.value.DoubleValue
2.928

@<SCITEGIC>MOL_PROPERTY
VdW6
SciTegic.value.DoubleValue
-12.539

@<SCITEGIC>MOL_PROPERTY
VdW12
SciTegic.value.DoubleValue
15.467

@<SCITEGIC>MOL_PROPERTY
Bond
SciTegic.value.DoubleValue
0.441

@<SCITEGIC>MOL_PROPERTY
Angle
SciTegic.value.DoubleValue
5.093

@<SCITEGIC>MOL_PROPERTY
Pdih
SciTegic.value.DoubleValue
11.049

@<SCITEGIC>MOL_PROPERTY
Idih
SciTegic.value.DoubleValue
0.000

@<SCITEGIC>MOL_PROPERTY
Tether
SciTegic.value.DoubleValue
0.000

@<TRIPOS>MOLECULE
guest-s17_confgen4.mol2 : confsearch ligand conformer 257
          25          25           1
SMALL
USER_CHARGES
 
@<TRIPOS>ATOM
       1    C1      18.830089   18.652182   21.334980 C.3        1 MOL1        -0.1684
       2    H1      18.653634   17.601349   21.068303 H          1 MOL1         0.0833
       3    H2      18.104092   19.232073   20.748829 H          1 MOL1         0.0833
       4    C2      20.244844   19.069391   20.860567 C.3        1 MOL1        -0.1684
       5    H3      20.270821   18.948955   19.768943 H          1 MOL1         0.0833
       6    H4      20.399799   20.142150   21.022819 H          1 MOL1         0.0833
       7    C3      21.427909   18.254075   21.440642 C.3        1 MOL1        -0.1684
       8    H5      22.341317   18.585485   20.928005 H          1 MOL1         0.0833
       9    H6      21.304179   17.195731   21.173902 H          1 MOL1         0.0833
      10    C4      21.672490   18.362675   22.968106 C.3        1 MOL1        -0.1760
      11    H7      20.992436   17.696210   23.508129 H          1 MOL1         0.0833
      12    H8      22.670966   17.950554   23.165953 H          1 MOL1         0.0833
      13    C5      21.582015   19.798981   23.545656 C.3        1 MOL1         0.1219
      14    H9      21.702221   20.532958   22.737583 H          1 MOL1         0.0790
      15    C6      20.264642   20.093247   24.305486 C.3        1 MOL1        -0.1760
      16    H10     20.126047   19.340883   25.092876 H          1 MOL1         0.0833
      17    H11     20.389455   21.050258   24.829256 H          1 MOL1         0.0833
      18    C7      18.970289   20.192854   23.452857 C.3        1 MOL1        -0.1684
      19    H12     19.069969   20.968841   22.683002 H          1 MOL1         0.0833
      20    H13     18.174297   20.551304   24.119802 H          1 MOL1         0.0833
      21    C8      18.492654   18.852924   22.835363 C.3        1 MOL1        -0.1684
      22    H14     17.398997   18.805169   22.928450 H          1 MOL1         0.0833
      23    H15     18.853163   18.005573   23.429361 H          1 MOL1         0.0833
      24    O1      22.651022   19.976124   24.467616 O.3        1 MOL1        -0.5508
      25    H16     23.481367   19.855742   23.961108 H          1 MOL1         0.3780
@<TRIPOS>BOND
    1     1     2    1
    2     1     3    1
    3     1     4    1
    4     4     5    1
    5     4     6    1
    6     4     7    1
    7     7     8    1
    8     7     9    1
    9     7    10    1
   10    10    11    1
   11    10    12    1
   12    10    13    1
   13    13    14    1
   14    13    15    1
   15    15    16    1
   16    15    17    1
   17    15    18    1
   18    18    19    1
   19    18    20    1
   20     1    21    1
   21    18    21    1
   22    21    22    1
   23    21    23    1
   24    13    24    1
   25    24    25    1
@<TRIPOS>SUBSTRUCTURE
       1 MOL1            1 RESIDUE      1      MOL     
@<SCITEGIC>MOL_PROPERTY
VConf Rank
SciTegic.value.IntegerValue
257

@<SCITEGIC>MOL_PROPERTY
Conf_Id
SciTegic.value.IntegerValue
129

@<SCITEGIC>MOL_PROPERTY
Delta U+W
SciTegic.value.DoubleValue
-1.846

@<SCITEGIC>MOL_PROPERTY
U+W
SciTegic.value.DoubleValue
9.067

@<SCITEGIC>MOL_PROPERTY
Grad RMS
SciTegic.value.DoubleValue
0.000000

@<SCITEGIC>MOL_PROPERTY
U
SciTegic.value.DoubleValue
11.150

@<SCITEGIC>MOL_PROPERTY
W
SciTegic.value.DoubleValue
-2.083

@<SCITEGIC>MOL_PROPERTY
W(PB)
SciTegic.value.DoubleValue
-4.217

@<SCITEGIC>MOL_PROPERTY
W(SA)
SciTegic.value.DoubleValue
2.134

@<SCITEGIC>MOL_PROPERTY
Valence
SciTegic.value.DoubleValue
16.583

@<SCITEGIC>MOL_PROPERTY
Coulomb
SciTegic.value.DoubleValue
-8.361

@<SCITEGIC>MOL_PROPERTY
VdW
SciTegic.value.DoubleValue
2.928

@<SCITEGIC>MOL_PROPERTY
VdW6
SciTegic.value.DoubleValue
-12.539

@<SCITEGIC>MOL_PROPERTY
VdW12
SciTegic.value.DoubleValue
15.467

@<SCITEGIC>MOL_PROPERTY
Bond
SciTegic.value.DoubleValue
0.441

@<SCITEGIC>MOL_PROPERTY
Angle
SciTegic.value.DoubleValue
5.093

@<SCITEGIC>MOL_PROPERTY
Pdih
SciTegic.value.DoubleValue
11.049

@<SCITEGIC>MOL_PROPERTY
Idih
SciTegic.value.DoubleValue
0.000

@<SCITEGIC>MOL_PROPERTY
Tether
SciTegic.value.DoubleValue
0.000

@<TRIPOS>MOLECULE
guest-s17_confgen4.mol2 : confsearch ligand conformer 258
          25          25           1
SMALL
USER_CHARGES
 
@<TRIPOS>ATOM
       1    C1      21.480054   20.609875   23.560839 C.3        1 MOL1        -0.1684
       2    H1      21.627122   20.603313   24.649339 H          1 MOL1         0.0833
       3    H2      22.089492   21.442988   23.184768 H          1 MOL1         0.0833
       4    C2      19.999709   20.941720   23.246714 C.3        1 MOL1        -0.1684
       5    H3      19.794822   21.938923   23.659526 H          1 MOL1         0.0833
       6    H4      19.855463   21.056067   22.166289 H          1 MOL1         0.0833
       7    C3      18.943171   19.974441   23.836940 C.3        1 MOL1        -0.1684
       8    H5      17.952267   20.401623   23.630353 H          1 MOL1         0.0833
       9    H6      19.037746   19.957369   24.931134 H          1 MOL1         0.0833
      10    C4      18.950864   18.516592   23.307894 C.3        1 MOL1        -0.1760
      11    H7      19.716925   17.930822   23.826125 H          1 MOL1         0.0833
      12    H8      17.999429   18.060662   23.613695 H          1 MOL1         0.0833
      13    C5      19.114463   18.376488   21.772257 C.3        1 MOL1         0.1219
      14    H9      18.843199   19.321645   21.283418 H          1 MOL1         0.0790
      15    C6      20.535375   17.956482   21.318934 C.3        1 MOL1        -0.1760
      16    H10     20.822177   17.027628   21.829024 H          1 MOL1         0.0833
      17    H11     20.484215   17.706299   20.250746 H          1 MOL1         0.0833
      18    C7      21.666488   19.005391   21.496117 C.3        1 MOL1        -0.1684
      19    H12     21.426066   19.932072   20.959226 H          1 MOL1         0.0833
      20    H13     22.556756   18.605128   20.991956 H          1 MOL1         0.0833
      21    C8      22.056643   19.298156   22.968059 C.3        1 MOL1        -0.1684
      22    H14     23.151336   19.373841   23.022552 H          1 MOL1         0.0833
      23    H15     21.810714   18.443910   23.608827 H          1 MOL1         0.0833
      24    O1      18.213335   17.374098   21.319105 O.3        1 MOL1        -0.5508
      25    H16     18.477540   16.542883   21.764324 H          1 MOL1         0.3780
@<TRIPOS>BOND
    1     1     2    1
    2     1     3    1
    3     1     4    1
    4     4     5    1
    5     4     6    1
    6     4     7    1
    7     7     8    1
    8     7     9    1
    9     7    10    1
   10    10    11    1
   11    10    12    1
   12    10    13    1
   13    13    14    1
   14    13    15    1
   15    15    16    1
   16    15    17    1
   17    15    18    1
   18    18    19    1
   19    18    20    1
   20     1    21    1
   21    18    21    1
   22    21    22    1
   23    21    23    1
   24    13    24    1
   25    24    25    1
@<TRIPOS>SUBSTRUCTURE
       1 MOL1            1 RESIDUE      1      MOL     
@<SCITEGIC>MOL_PROPERTY
VConf Rank
SciTegic.value.IntegerValue
258

@<SCITEGIC>MOL_PROPERTY
Conf_Id
SciTegic.value.IntegerValue
140

@<SCITEGIC>MOL_PROPERTY
Delta U+W
SciTegic.value.DoubleValue
-1.702

@<SCITEGIC>MOL_PROPERTY
U+W
SciTegic.value.DoubleValue
9.211

@<SCITEGIC>MOL_PROPERTY
Grad RMS
SciTegic.value.DoubleValue
0.000000

@<SCITEGIC>MOL_PROPERTY
U
SciTegic.value.DoubleValue
11.181

@<SCITEGIC>MOL_PROPERTY
W
SciTegic.value.DoubleValue
-1.969

@<SCITEGIC>MOL_PROPERTY
W(PB)
SciTegic.value.DoubleValue
-4.093

@<SCITEGIC>MOL_PROPERTY
W(SA)
SciTegic.value.DoubleValue
2.124

@<SCITEGIC>MOL_PROPERTY
Valence
SciTegic.value.DoubleValue
16.954

@<SCITEGIC>MOL_PROPERTY
Coulomb
SciTegic.value.DoubleValue
-8.661

@<SCITEGIC>MOL_PROPERTY
VdW
SciTegic.value.DoubleValue
2.887

@<SCITEGIC>MOL_PROPERTY
VdW6
SciTegic.value.DoubleValue
-12.561

@<SCITEGIC>MOL_PROPERTY
VdW12
SciTegic.value.DoubleValue
15.448

@<SCITEGIC>MOL_PROPERTY
Bond
SciTegic.value.DoubleValue
0.433

@<SCITEGIC>MOL_PROPERTY
Angle
SciTegic.value.DoubleValue
5.120

@<SCITEGIC>MOL_PROPERTY
Pdih
SciTegic.value.DoubleValue
11.401

@<SCITEGIC>MOL_PROPERTY
Idih
SciTegic.value.DoubleValue
0.000

@<SCITEGIC>MOL_PROPERTY
Tether
SciTegic.value.DoubleValue
0.000

@<TRIPOS>MOLECULE
guest-s17_confgen4.mol2 : confsearch ligand conformer 259
          25          25           1
SMALL
USER_CHARGES
 
@<TRIPOS>ATOM
       1    C1      19.612624   20.984985   21.909511 C.3        1 MOL1        -0.1684
       2    H1      18.720639   21.038267   21.270736 H          1 MOL1         0.0833
       3    H2      19.973161   22.018665   22.001369 H          1 MOL1         0.0833
       4    C2      20.707151   20.166740   21.176753 C.3        1 MOL1        -0.1684
       5    H3      20.267977   19.298018   20.673514 H          1 MOL1         0.0833
       6    H4      21.084620   20.794427   20.357864 H          1 MOL1         0.0833
       7    C3      21.914039   19.737678   22.050752 C.3        1 MOL1        -0.1684
       8    H5      22.045751   20.416460   22.903220 H          1 MOL1         0.0833
       9    H6      22.821492   19.860789   21.443845 H          1 MOL1         0.0833
      10    C4      21.882210   18.258983   22.523470 C.3        1 MOL1        -0.1760
      11    H7      21.793368   17.602631   21.647956 H          1 MOL1         0.0833
      12    H8      22.862132   18.034712   22.965840 H          1 MOL1         0.0833
      13    C5      20.798518   17.880371   23.564217 C.3        1 MOL1         0.1219
      14    H9      20.870787   18.558401   24.424987 H          1 MOL1         0.0790
      15    C6      19.350484   17.892427   23.009578 C.3        1 MOL1        -0.1760
      16    H10     19.360138   17.776739   21.920972 H          1 MOL1         0.0833
      17    H11     18.814493   17.007029   23.377544 H          1 MOL1         0.0833
      18    C7      18.504964   19.129824   23.408599 C.3        1 MOL1        -0.1684
      19    H12     18.172139   18.988956   24.446113 H          1 MOL1         0.0833
      20    H13     17.589411   19.146943   22.801995 H          1 MOL1         0.0833
      21    C8      19.199891   20.512035   23.325908 C.3        1 MOL1        -0.1684
      22    H14     20.057922   20.552499   24.006606 H          1 MOL1         0.0833
      23    H15     18.495791   21.254857   23.724985 H          1 MOL1         0.0833
      24    O1      21.089820   16.564250   24.017126 O.3        1 MOL1        -0.5508
      25    H16     21.023217   15.980929   23.233389 H          1 MOL1         0.3780
@<TRIPOS>BOND
    1     1     2    1
    2     1     3    1
    3     1     4    1
    4     4     5    1
    5     4     6    1
    6     4     7    1
    7     7     8    1
    8     7     9    1
    9     7    10    1
   10    10    11    1
   11    10    12    1
   12    10    13    1
   13    13    14    1
   14    13    15    1
   15    15    16    1
   16    15    17    1
   17    15    18    1
   18    18    19    1
   19    18    20    1
   20     1    21    1
   21    18    21    1
   22    21    22    1
   23    21    23    1
   24    13    24    1
   25    24    25    1
@<TRIPOS>SUBSTRUCTURE
       1 MOL1            1 RESIDUE      1      MOL     
@<SCITEGIC>MOL_PROPERTY
VConf Rank
SciTegic.value.IntegerValue
259

@<SCITEGIC>MOL_PROPERTY
Conf_Id
SciTegic.value.IntegerValue
68

@<SCITEGIC>MOL_PROPERTY
Delta U+W
SciTegic.value.DoubleValue
-1.765

@<SCITEGIC>MOL_PROPERTY
U+W
SciTegic.value.DoubleValue
9.148

@<SCITEGIC>MOL_PROPERTY
Grad RMS
SciTegic.value.DoubleValue
0.000000

@<SCITEGIC>MOL_PROPERTY
U
SciTegic.value.DoubleValue
11.181

@<SCITEGIC>MOL_PROPERTY
W
SciTegic.value.DoubleValue
-2.032

@<SCITEGIC>MOL_PROPERTY
W(PB)
SciTegic.value.DoubleValue
-4.147

@<SCITEGIC>MOL_PROPERTY
W(SA)
SciTegic.value.DoubleValue
2.114

@<SCITEGIC>MOL_PROPERTY
Valence
SciTegic.value.DoubleValue
16.955

@<SCITEGIC>MOL_PROPERTY
Coulomb
SciTegic.value.DoubleValue
-8.661

@<SCITEGIC>MOL_PROPERTY
VdW
SciTegic.value.DoubleValue
2.887

@<SCITEGIC>MOL_PROPERTY
VdW6
SciTegic.value.DoubleValue
-12.561

@<SCITEGIC>MOL_PROPERTY
VdW12
SciTegic.value.DoubleValue
15.448

@<SCITEGIC>MOL_PROPERTY
Bond
SciTegic.value.DoubleValue
0.433

@<SCITEGIC>MOL_PROPERTY
Angle
SciTegic.value.DoubleValue
5.121

@<SCITEGIC>MOL_PROPERTY
Pdih
SciTegic.value.DoubleValue
11.402

@<SCITEGIC>MOL_PROPERTY
Idih
SciTegic.value.DoubleValue
0.000

@<SCITEGIC>MOL_PROPERTY
Tether
SciTegic.value.DoubleValue
0.000

@<TRIPOS>MOLECULE
guest-s17_confgen4.mol2 : confsearch ligand conformer 260
          25          25           1
SMALL
USER_CHARGES
 
@<TRIPOS>ATOM
       1    C1      18.958015   18.017751   21.980610 C.3        1 MOL1        -0.1684
       2    H1      18.276942   17.309876   21.488544 H          1 MOL1         0.0833
       3    H2      18.333254   18.520761   22.727299 H          1 MOL1         0.0833
       4    C2      19.453859   19.028590   20.914005 C.3        1 MOL1        -0.1684
       5    H3      20.417405   18.716736   20.490993 H          1 MOL1         0.0833
       6    H4      18.748002   18.993572   20.072840 H          1 MOL1         0.0833
       7    C3      19.514157   20.502999   21.392635 C.3        1 MOL1        -0.1684
       8    H5      18.526366   20.805312   21.766733 H          1 MOL1         0.0833
       9    H6      19.700360   21.132336   20.511671 H          1 MOL1         0.0833
      10    C4      20.591980   20.847116   22.454913 C.3        1 MOL1        -0.1760
      11    H7      21.589683   20.579599   22.086701 H          1 MOL1         0.0833
      12    H8      20.603695   21.941372   22.550190 H          1 MOL1         0.0833
      13    C5      20.334437   20.231639   23.854823 C.3        1 MOL1         0.1219
      14    H9      19.275914   19.958700   23.935924 H          1 MOL1         0.0790
      15    C6      21.204760   18.995451   24.190118 C.3        1 MOL1        -0.1760
      16    H10     22.212492   19.340656   24.456360 H          1 MOL1         0.0833
      17    H11     20.800585   18.522282   25.094462 H          1 MOL1         0.0833
      18    C7      21.361447   17.919007   23.085228 C.3        1 MOL1        -0.1684
      19    H12     22.063307   17.162905   23.462621 H          1 MOL1         0.0833
      20    H13     21.858550   18.342559   22.205000 H          1 MOL1         0.0833
      21    C8      20.066357   17.178376   22.667681 C.3        1 MOL1        -0.1684
      22    H14     19.638676   16.672088   23.543665 H          1 MOL1         0.0833
      23    H15     20.356461   16.376627   21.974835 H          1 MOL1         0.0833
      24    O1      20.600334   21.221612   24.840690 O.3        1 MOL1        -0.5508
      25    H16     21.543561   21.465211   24.741336 H          1 MOL1         0.3780
@<TRIPOS>BOND
    1     1     2    1
    2     1     3    1
    3     1     4    1
    4     4     5    1
    5     4     6    1
    6     4     7    1
    7     7     8    1
    8     7     9    1
    9     7    10    1
   10    10    11    1
   11    10    12    1
   12    10    13    1
   13    13    14    1
   14    13    15    1
   15    15    16    1
   16    15    17    1
   17    15    18    1
   18    18    19    1
   19    18    20    1
   20     1    21    1
   21    18    21    1
   22    21    22    1
   23    21    23    1
   24    13    24    1
   25    24    25    1
@<TRIPOS>SUBSTRUCTURE
       1 MOL1            1 RESIDUE      1      MOL     
@<SCITEGIC>MOL_PROPERTY
VConf Rank
SciTegic.value.IntegerValue
260

@<SCITEGIC>MOL_PROPERTY
Conf_Id
SciTegic.value.IntegerValue
165

@<SCITEGIC>MOL_PROPERTY
Delta U+W
SciTegic.value.DoubleValue
-1.999

@<SCITEGIC>MOL_PROPERTY
U+W
SciTegic.value.DoubleValue
8.915

@<SCITEGIC>MOL_PROPERTY
Grad RMS
SciTegic.value.DoubleValue
0.000000

@<SCITEGIC>MOL_PROPERTY
U
SciTegic.value.DoubleValue
10.935

@<SCITEGIC>MOL_PROPERTY
W
SciTegic.value.DoubleValue
-2.020

@<SCITEGIC>MOL_PROPERTY
W(PB)
SciTegic.value.DoubleValue
-4.135

@<SCITEGIC>MOL_PROPERTY
W(SA)
SciTegic.value.DoubleValue
2.115

@<SCITEGIC>MOL_PROPERTY
Valence
SciTegic.value.DoubleValue
16.757

@<SCITEGIC>MOL_PROPERTY
Coulomb
SciTegic.value.DoubleValue
-8.731

@<SCITEGIC>MOL_PROPERTY
VdW
SciTegic.value.DoubleValue
2.908

@<SCITEGIC>MOL_PROPERTY
VdW6
SciTegic.value.DoubleValue
-12.597

@<SCITEGIC>MOL_PROPERTY
VdW12
SciTegic.value.DoubleValue
15.506

@<SCITEGIC>MOL_PROPERTY
Bond
SciTegic.value.DoubleValue
0.434

@<SCITEGIC>MOL_PROPERTY
Angle
SciTegic.value.DoubleValue
5.069

@<SCITEGIC>MOL_PROPERTY
Pdih
SciTegic.value.DoubleValue
11.254

@<SCITEGIC>MOL_PROPERTY
Idih
SciTegic.value.DoubleValue
0.000

@<SCITEGIC>MOL_PROPERTY
Tether
SciTegic.value.DoubleValue
0.000

@<TRIPOS>MOLECULE
guest-s17_confgen4.mol2 : confsearch ligand conformer 261
          25          25           1
SMALL
USER_CHARGES
 
@<TRIPOS>ATOM
       1    C1      19.652563   18.285705   21.195918 C.3        1 MOL1        -0.1684
       2    H1      19.180335   17.748103   20.362210 H          1 MOL1         0.0833
       3    H2      20.638881   18.569092   20.811638 H          1 MOL1         0.0833
       4    C2      19.787848   17.277941   22.367055 C.3        1 MOL1        -0.1684
       5    H3      18.857932   16.694886   22.415095 H          1 MOL1         0.0833
       6    H4      20.578351   16.554499   22.125594 H          1 MOL1         0.0833
       7    C3      20.040293   17.861112   23.780039 C.3        1 MOL1        -0.1684
       8    H5      20.010844   17.023396   24.490014 H          1 MOL1         0.0833
       9    H6      19.206990   18.506785   24.080048 H          1 MOL1         0.0833
      10    C4      21.392585   18.591652   23.984120 C.3        1 MOL1        -0.1760
      11    H7      21.470243   18.847912   25.049397 H          1 MOL1         0.0833
      12    H8      22.209932   17.887583   23.781763 H          1 MOL1         0.0833
      13    C5      21.631922   19.879501   23.158333 C.3        1 MOL1         0.1219
      14    H9      21.902638   19.605892   22.131830 H          1 MOL1         0.0790
      15    C6      20.427173   20.854774   23.118284 C.3        1 MOL1        -0.1760
      16    H10     19.762320   20.689277   23.974263 H          1 MOL1         0.0833
      17    H11     20.805269   21.878371   23.244082 H          1 MOL1         0.0833
      18    C7      19.621776   20.830834   21.791728 C.3        1 MOL1        -0.1684
      19    H12     20.300919   21.029793   20.951391 H          1 MOL1         0.0833
      20    H13     18.921505   21.677019   21.810857 H          1 MOL1         0.0833
      21    C8      18.801919   19.546941   21.497919 C.3        1 MOL1        -0.1684
      22    H14     18.190924   19.753703   20.608568 H          1 MOL1         0.0833
      23    H15     18.079753   19.353855   22.301537 H          1 MOL1         0.0833
      24    O1      22.742178   20.556303   23.736939 O.3        1 MOL1        -0.5508
      25    H16     23.498445   19.933660   23.708401 H          1 MOL1         0.3780
@<TRIPOS>BOND
    1     1     2    1
    2     1     3    1
    3     1     4    1
    4     4     5    1
    5     4     6    1
    6     4     7    1
    7     7     8    1
    8     7     9    1
    9     7    10    1
   10    10    11    1
   11    10    12    1
   12    10    13    1
   13    13    14    1
   14    13    15    1
   15    15    16    1
   16    15    17    1
   17    15    18    1
   18    18    19    1
   19    18    20    1
   20     1    21    1
   21    18    21    1
   22    21    22    1
   23    21    23    1
   24    13    24    1
   25    24    25    1
@<TRIPOS>SUBSTRUCTURE
       1 MOL1            1 RESIDUE      1      MOL     
@<SCITEGIC>MOL_PROPERTY
VConf Rank
SciTegic.value.IntegerValue
261

@<SCITEGIC>MOL_PROPERTY
Conf_Id
SciTegic.value.IntegerValue
133

@<SCITEGIC>MOL_PROPERTY
Delta U+W
SciTegic.value.DoubleValue
-2.139

@<SCITEGIC>MOL_PROPERTY
U+W
SciTegic.value.DoubleValue
8.774

@<SCITEGIC>MOL_PROPERTY
Grad RMS
SciTegic.value.DoubleValue
0.000000

@<SCITEGIC>MOL_PROPERTY
U
SciTegic.value.DoubleValue
10.905

@<SCITEGIC>MOL_PROPERTY
W
SciTegic.value.DoubleValue
-2.131

@<SCITEGIC>MOL_PROPERTY
W(PB)
SciTegic.value.DoubleValue
-4.281

@<SCITEGIC>MOL_PROPERTY
W(SA)
SciTegic.value.DoubleValue
2.150

@<SCITEGIC>MOL_PROPERTY
Valence
SciTegic.value.DoubleValue
16.378

@<SCITEGIC>MOL_PROPERTY
Coulomb
SciTegic.value.DoubleValue
-8.448

@<SCITEGIC>MOL_PROPERTY
VdW
SciTegic.value.DoubleValue
2.976

@<SCITEGIC>MOL_PROPERTY
VdW6
SciTegic.value.DoubleValue
-12.570

@<SCITEGIC>MOL_PROPERTY
VdW12
SciTegic.value.DoubleValue
15.545

@<SCITEGIC>MOL_PROPERTY
Bond
SciTegic.value.DoubleValue
0.439

@<SCITEGIC>MOL_PROPERTY
Angle
SciTegic.value.DoubleValue
5.049

@<SCITEGIC>MOL_PROPERTY
Pdih
SciTegic.value.DoubleValue
10.889

@<SCITEGIC>MOL_PROPERTY
Idih
SciTegic.value.DoubleValue
0.000

@<SCITEGIC>MOL_PROPERTY
Tether
SciTegic.value.DoubleValue
0.000

@<TRIPOS>MOLECULE
guest-s17_confgen4.mol2 : confsearch ligand conformer 262
          25          25           1
SMALL
USER_CHARGES
 
@<TRIPOS>ATOM
       1    C1      18.989576   18.064743   22.104961 C.3        1 MOL1        -0.1684
       2    H1      18.265581   17.342079   21.704121 H          1 MOL1         0.0833
       3    H2      18.447197   18.573797   22.909630 H          1 MOL1         0.0833
       4    C2      19.349398   19.062652   20.973490 C.3        1 MOL1        -0.1684
       5    H3      20.261342   18.752250   20.447543 H          1 MOL1         0.0833
       6    H4      18.552280   19.008066   20.219412 H          1 MOL1         0.0833
       7    C3      19.449096   20.545204   21.419551 C.3        1 MOL1        -0.1684
       8    H5      18.507049   20.845860   21.898238 H          1 MOL1         0.0833
       9    H6      19.528809   21.161693   20.513813 H          1 MOL1         0.0833
      10    C4      20.636570   20.915007   22.348068 C.3        1 MOL1        -0.1760
      11    H7      21.590163   20.651783   21.875316 H          1 MOL1         0.0833
      12    H8      20.650353   22.010411   22.428258 H          1 MOL1         0.0833
      13    C5      20.546307   20.320607   23.777306 C.3        1 MOL1         0.1219
      14    H9      19.506564   20.038657   23.980522 H          1 MOL1         0.0790
      15    C6      21.465045   19.099549   24.027675 C.3        1 MOL1        -0.1760
      16    H10     22.491675   19.465206   24.164945 H          1 MOL1         0.0833
      17    H11     21.179487   18.634424   24.979953 H          1 MOL1         0.0833
      18    C7      21.504846   18.006630   22.928598 C.3        1 MOL1        -0.1684
      19    H12     22.254104   17.263443   23.233531 H          1 MOL1         0.0833
      20    H13     21.892301   18.420563   21.990605 H          1 MOL1         0.0833
      21    C8      20.178284   17.247585   22.674771 C.3        1 MOL1        -0.1684
      22    H14     19.859095   16.752917   23.602127 H          1 MOL1         0.0833
      23    H15     20.395874   16.436333   21.966582 H          1 MOL1         0.0833
      24    O1      20.915312   21.329754   24.710563 O.3        1 MOL1        -0.5508
      25    H16     20.806062   20.941702   25.603826 H          1 MOL1         0.3780
@<TRIPOS>BOND
    1     1     2    1
    2     1     3    1
    3     1     4    1
    4     4     5    1
    5     4     6    1
    6     4     7    1
    7     7     8    1
    8     7     9    1
    9     7    10    1
   10    10    11    1
   11    10    12    1
   12    10    13    1
   13    13    14    1
   14    13    15    1
   15    15    16    1
   16    15    17    1
   17    15    18    1
   18    18    19    1
   19    18    20    1
   20     1    21    1
   21    18    21    1
   22    21    22    1
   23    21    23    1
   24    13    24    1
   25    24    25    1
@<TRIPOS>SUBSTRUCTURE
       1 MOL1            1 RESIDUE      1      MOL     
@<SCITEGIC>MOL_PROPERTY
VConf Rank
SciTegic.value.IntegerValue
262

@<SCITEGIC>MOL_PROPERTY
Conf_Id
SciTegic.value.IntegerValue
95

@<SCITEGIC>MOL_PROPERTY
Delta U+W
SciTegic.value.DoubleValue
-2.190

@<SCITEGIC>MOL_PROPERTY
U+W
SciTegic.value.DoubleValue
8.723

@<SCITEGIC>MOL_PROPERTY
Grad RMS
SciTegic.value.DoubleValue
0.000000

@<SCITEGIC>MOL_PROPERTY
U
SciTegic.value.DoubleValue
10.905

@<SCITEGIC>MOL_PROPERTY
W
SciTegic.value.DoubleValue
-2.182

@<SCITEGIC>MOL_PROPERTY
W(PB)
SciTegic.value.DoubleValue
-4.296

@<SCITEGIC>MOL_PROPERTY
W(SA)
SciTegic.value.DoubleValue
2.114

@<SCITEGIC>MOL_PROPERTY
Valence
SciTegic.value.DoubleValue
16.377

@<SCITEGIC>MOL_PROPERTY
Coulomb
SciTegic.value.DoubleValue
-8.448

@<SCITEGIC>MOL_PROPERTY
VdW
SciTegic.value.DoubleValue
2.976

@<SCITEGIC>MOL_PROPERTY
VdW6
SciTegic.value.DoubleValue
-12.570

@<SCITEGIC>MOL_PROPERTY
VdW12
SciTegic.value.DoubleValue
15.546

@<SCITEGIC>MOL_PROPERTY
Bond
SciTegic.value.DoubleValue
0.439

@<SCITEGIC>MOL_PROPERTY
Angle
SciTegic.value.DoubleValue
5.049

@<SCITEGIC>MOL_PROPERTY
Pdih
SciTegic.value.DoubleValue
10.889

@<SCITEGIC>MOL_PROPERTY
Idih
SciTegic.value.DoubleValue
0.000

@<SCITEGIC>MOL_PROPERTY
Tether
SciTegic.value.DoubleValue
0.000

@<TRIPOS>MOLECULE
guest-s17_confgen4.mol2 : confsearch ligand conformer 263
          25          25           1
SMALL
USER_CHARGES
 
@<TRIPOS>ATOM
       1    C1      20.040205   17.497111   21.981498 C.3        1 MOL1        -0.1684
       2    H1      19.801119   16.536800   21.504486 H          1 MOL1         0.0833
       3    H2      20.575164   17.203026   22.890106 H          1 MOL1         0.0833
       4    C2      18.686009   18.182308   22.329169 C.3        1 MOL1        -0.1684
       5    H3      17.973655   17.922493   21.534192 H          1 MOL1         0.0833
       6    H4      18.281144   17.728010   23.243592 H          1 MOL1         0.0833
       7    C3      18.660648   19.726992   22.469894 C.3        1 MOL1        -0.1684
       8    H5      17.612837   20.032193   22.595440 H          1 MOL1         0.0833
       9    H6      18.946909   20.181552   21.516239 H          1 MOL1         0.0833
      10    C4      19.465513   20.353760   23.647127 C.3        1 MOL1        -0.1760
      11    H7      19.662634   21.409584   23.419642 H          1 MOL1         0.0833
      12    H8      18.803354   20.357353   24.522796 H          1 MOL1         0.0833
      13    C5      20.789768   19.672178   24.075480 C.3        1 MOL1         0.1219
      14    H9      20.566171   18.634047   24.342136 H          1 MOL1         0.0790
      15    C6      21.962455   19.705760   23.053585 C.3        1 MOL1        -0.1760
      16    H10     22.504055   20.651221   23.191742 H          1 MOL1         0.0833
      17    H11     22.675404   18.915638   23.321349 H          1 MOL1         0.0833
      18    C7      21.630448   19.593584   21.540903 C.3        1 MOL1        -0.1684
      19    H12     22.565284   19.744453   20.984098 H          1 MOL1         0.0833
      20    H13     21.014127   20.447227   21.241714 H          1 MOL1         0.0833
      21    C8      21.008554   18.258060   21.037784 C.3        1 MOL1        -0.1684
      22    H14     21.837941   17.574198   20.811252 H          1 MOL1         0.0833
      23    H15     20.508378   18.439086   20.076796 H          1 MOL1         0.0833
      24    O1      21.240269   20.323906   25.257391 O.3        1 MOL1        -0.5508
      25    H16     20.521037   20.241411   25.917662 H          1 MOL1         0.3780
@<TRIPOS>BOND
    1     1     2    1
    2     1     3    1
    3     1     4    1
    4     4     5    1
    5     4     6    1
    6     4     7    1
    7     7     8    1
    8     7     9    1
    9     7    10    1
   10    10    11    1
   11    10    12    1
   12    10    13    1
   13    13    14    1
   14    13    15    1
   15    15    16    1
   16    15    17    1
   17    15    18    1
   18    18    19    1
   19    18    20    1
   20     1    21    1
   21    18    21    1
   22    21    22    1
   23    21    23    1
   24    13    24    1
   25    24    25    1
@<TRIPOS>SUBSTRUCTURE
       1 MOL1            1 RESIDUE      1      MOL     
@<SCITEGIC>MOL_PROPERTY
VConf Rank
SciTegic.value.IntegerValue
263

@<SCITEGIC>MOL_PROPERTY
Conf_Id
SciTegic.value.IntegerValue
161

@<SCITEGIC>MOL_PROPERTY
Delta U+W
SciTegic.value.DoubleValue
2.120

@<SCITEGIC>MOL_PROPERTY
U+W
SciTegic.value.DoubleValue
13.033

@<SCITEGIC>MOL_PROPERTY
Grad RMS
SciTegic.value.DoubleValue
0.000000

@<SCITEGIC>MOL_PROPERTY
U
SciTegic.value.DoubleValue
15.076

@<SCITEGIC>MOL_PROPERTY
W
SciTegic.value.DoubleValue
-2.043

@<SCITEGIC>MOL_PROPERTY
W(PB)
SciTegic.value.DoubleValue
-4.186

@<SCITEGIC>MOL_PROPERTY
W(SA)
SciTegic.value.DoubleValue
2.143

@<SCITEGIC>MOL_PROPERTY
Valence
SciTegic.value.DoubleValue
18.884

@<SCITEGIC>MOL_PROPERTY
Coulomb
SciTegic.value.DoubleValue
-8.074

@<SCITEGIC>MOL_PROPERTY
VdW
SciTegic.value.DoubleValue
4.266

@<SCITEGIC>MOL_PROPERTY
VdW6
SciTegic.value.DoubleValue
-13.486

@<SCITEGIC>MOL_PROPERTY
VdW12
SciTegic.value.DoubleValue
17.752

@<SCITEGIC>MOL_PROPERTY
Bond
SciTegic.value.DoubleValue
0.713

@<SCITEGIC>MOL_PROPERTY
Angle
SciTegic.value.DoubleValue
8.955

@<SCITEGIC>MOL_PROPERTY
Pdih
SciTegic.value.DoubleValue
9.215

@<SCITEGIC>MOL_PROPERTY
Idih
SciTegic.value.DoubleValue
0.000

@<SCITEGIC>MOL_PROPERTY
Tether
SciTegic.value.DoubleValue
0.000

@<TRIPOS>MOLECULE
guest-s17_confgen4.mol2 : confsearch ligand conformer 264
          25          25           1
SMALL
USER_CHARGES
 
@<TRIPOS>ATOM
       1    C1      21.691059   18.143745   23.580385 C.3        1 MOL1        -0.1684
       2    H1      22.470146   17.426176   23.872113 H          1 MOL1         0.0833
       3    H2      21.369082   18.605040   24.522602 H          1 MOL1         0.0833
       4    C2      20.518718   17.348508   22.953573 C.3        1 MOL1        -0.1684
       5    H3      20.686428   17.186837   21.880296 H          1 MOL1         0.0833
       6    H4      20.536902   16.346647   23.404257 H          1 MOL1         0.0833
       7    C3      19.104468   17.935457   23.219502 C.3        1 MOL1        -0.1684
       8    H5      19.033246   18.354623   24.232178 H          1 MOL1         0.0833
       9    H6      18.402575   17.090267   23.205344 H          1 MOL1         0.0833
      10    C4      18.600898   18.954358   22.164641 C.3        1 MOL1        -0.1760
      11    H7      18.975379   18.677728   21.171561 H          1 MOL1         0.0833
      12    H8      17.510080   18.850192   22.094645 H          1 MOL1         0.0833
      13    C5      18.881754   20.448274   22.466576 C.3        1 MOL1         0.1219
      14    H9      18.243997   20.747622   23.310632 H          1 MOL1         0.0790
      15    C6      20.338423   20.814046   22.834288 C.3        1 MOL1        -0.1760
      16    H10     20.439435   21.906870   22.794096 H          1 MOL1         0.0833
      17    H11     20.513862   20.562552   23.885827 H          1 MOL1         0.0833
      18    C7      21.422345   20.177288   21.923857 C.3        1 MOL1        -0.1684
      19    H12     22.034574   20.979303   21.489487 H          1 MOL1         0.0833
      20    H13     20.970853   19.670339   21.063475 H          1 MOL1         0.0833
      21    C8      22.365082   19.194940   22.659329 C.3        1 MOL1        -0.1684
      22    H14     23.075606   19.774282   23.264579 H          1 MOL1         0.0833
      23    H15     22.970940   18.671465   21.907204 H          1 MOL1         0.0833
      24    O1      18.510526   21.204011   21.322279 O.3        1 MOL1        -0.5508
      25    H16     19.186564   21.009488   20.641880 H          1 MOL1         0.3780
@<TRIPOS>BOND
    1     1     2    1
    2     1     3    1
    3     1     4    1
    4     4     5    1
    5     4     6    1
    6     4     7    1
    7     7     8    1
    8     7     9    1
    9     7    10    1
   10    10    11    1
   11    10    12    1
   12    10    13    1
   13    13    14    1
   14    13    15    1
   15    15    16    1
   16    15    17    1
   17    15    18    1
   18    18    19    1
   19    18    20    1
   20     1    21    1
   21    18    21    1
   22    21    22    1
   23    21    23    1
   24    13    24    1
   25    24    25    1
@<TRIPOS>SUBSTRUCTURE
       1 MOL1            1 RESIDUE      1      MOL     
@<SCITEGIC>MOL_PROPERTY
VConf Rank
SciTegic.value.IntegerValue
264

@<SCITEGIC>MOL_PROPERTY
Conf_Id
SciTegic.value.IntegerValue
164

@<SCITEGIC>MOL_PROPERTY
Delta U+W
SciTegic.value.DoubleValue
0.008

@<SCITEGIC>MOL_PROPERTY
U+W
SciTegic.value.DoubleValue
10.922

@<SCITEGIC>MOL_PROPERTY
Grad RMS
SciTegic.value.DoubleValue
0.000000

@<SCITEGIC>MOL_PROPERTY
U
SciTegic.value.DoubleValue
12.433

@<SCITEGIC>MOL_PROPERTY
W
SciTegic.value.DoubleValue
-1.511

@<SCITEGIC>MOL_PROPERTY
W(PB)
SciTegic.value.DoubleValue
-3.669

@<SCITEGIC>MOL_PROPERTY
W(SA)
SciTegic.value.DoubleValue
2.157

@<SCITEGIC>MOL_PROPERTY
Valence
SciTegic.value.DoubleValue
19.007

@<SCITEGIC>MOL_PROPERTY
Coulomb
SciTegic.value.DoubleValue
-9.373

@<SCITEGIC>MOL_PROPERTY
VdW
SciTegic.value.DoubleValue
2.799

@<SCITEGIC>MOL_PROPERTY
VdW6
SciTegic.value.DoubleValue
-12.597

@<SCITEGIC>MOL_PROPERTY
VdW12
SciTegic.value.DoubleValue
15.396

@<SCITEGIC>MOL_PROPERTY
Bond
SciTegic.value.DoubleValue
0.425

@<SCITEGIC>MOL_PROPERTY
Angle
SciTegic.value.DoubleValue
4.784

@<SCITEGIC>MOL_PROPERTY
Pdih
SciTegic.value.DoubleValue
13.799

@<SCITEGIC>MOL_PROPERTY
Idih
SciTegic.value.DoubleValue
0.000

@<SCITEGIC>MOL_PROPERTY
Tether
SciTegic.value.DoubleValue
0.000

@<TRIPOS>MOLECULE
guest-s17_confgen4.mol2 : confsearch ligand conformer 265
          25          25           1
SMALL
USER_CHARGES
 
@<TRIPOS>ATOM
       1    C1      21.642223   18.115454   22.056559 C.3        1 MOL1        -0.1684
       2    H1      22.098284   18.726512   22.843666 H          1 MOL1         0.0833
       3    H2      22.452312   17.457856   21.713056 H          1 MOL1         0.0833
       4    C2      21.228952   19.001826   20.855197 C.3        1 MOL1        -0.1684
       5    H3      22.138603   19.488071   20.477040 H          1 MOL1         0.0833
       6    H4      20.872931   18.361158   20.037089 H          1 MOL1         0.0833
       7    C3      20.176528   20.108145   21.122074 C.3        1 MOL1        -0.1684
       8    H5      19.162901   19.693684   21.079097 H          1 MOL1         0.0833
       9    H6      20.222485   20.809376   20.277582 H          1 MOL1         0.0833
      10    C4      20.379999   20.914039   22.432765 C.3        1 MOL1        -0.1760
      11    H7      21.429448   20.888807   22.750253 H          1 MOL1         0.0833
      12    H8      20.171386   21.967678   22.203496 H          1 MOL1         0.0833
      13    C5      19.442293   20.510648   23.598293 C.3        1 MOL1         0.1219
      14    H9      18.406298   20.545500   23.232098 H          1 MOL1         0.0790
      15    C6      19.683904   19.117192   24.231051 C.3        1 MOL1        -0.1760
      16    H10     20.710454   19.032865   24.607697 H          1 MOL1         0.0833
      17    H11     19.042354   19.053308   25.120192 H          1 MOL1         0.0833
      18    C7      19.326682   17.914371   23.317598 C.3        1 MOL1        -0.1684
      19    H12     18.588186   18.210152   22.563808 H          1 MOL1         0.0833
      20    H13     18.809417   17.161651   23.928216 H          1 MOL1         0.0833
      21    C8      20.534496   17.209174   22.649279 C.3        1 MOL1        -0.1684
      22    H14     20.164011   16.531163   21.868544 H          1 MOL1         0.0833
      23    H15     21.005897   16.564119   23.403326 H          1 MOL1         0.0833
      24    O1      19.589560   21.481520   24.625386 O.3        1 MOL1        -0.5508
      25    H16     20.519037   21.424536   24.928061 H          1 MOL1         0.3780
@<TRIPOS>BOND
    1     1     2    1
    2     1     3    1
    3     1     4    1
    4     4     5    1
    5     4     6    1
    6     4     7    1
    7     7     8    1
    8     7     9    1
    9     7    10    1
   10    10    11    1
   11    10    12    1
   12    10    13    1
   13    13    14    1
   14    13    15    1
   15    15    16    1
   16    15    17    1
   17    15    18    1
   18    18    19    1
   19    18    20    1
   20     1    21    1
   21    18    21    1
   22    21    22    1
   23    21    23    1
   24    13    24    1
   25    24    25    1
@<TRIPOS>SUBSTRUCTURE
       1 MOL1            1 RESIDUE      1      MOL     
@<SCITEGIC>MOL_PROPERTY
VConf Rank
SciTegic.value.IntegerValue
265

@<SCITEGIC>MOL_PROPERTY
Conf_Id
SciTegic.value.IntegerValue
15

@<SCITEGIC>MOL_PROPERTY
Delta U+W
SciTegic.value.DoubleValue
-1.271

@<SCITEGIC>MOL_PROPERTY
U+W
SciTegic.value.DoubleValue
9.643

@<SCITEGIC>MOL_PROPERTY
Grad RMS
SciTegic.value.DoubleValue
0.000000

@<SCITEGIC>MOL_PROPERTY
U
SciTegic.value.DoubleValue
11.413

@<SCITEGIC>MOL_PROPERTY
W
SciTegic.value.DoubleValue
-1.770

@<SCITEGIC>MOL_PROPERTY
W(PB)
SciTegic.value.DoubleValue
-3.908

@<SCITEGIC>MOL_PROPERTY
W(SA)
SciTegic.value.DoubleValue
2.138

@<SCITEGIC>MOL_PROPERTY
Valence
SciTegic.value.DoubleValue
17.496

@<SCITEGIC>MOL_PROPERTY
Coulomb
SciTegic.value.DoubleValue
-8.736

@<SCITEGIC>MOL_PROPERTY
VdW
SciTegic.value.DoubleValue
2.653

@<SCITEGIC>MOL_PROPERTY
VdW6
SciTegic.value.DoubleValue
-12.485

@<SCITEGIC>MOL_PROPERTY
VdW12
SciTegic.value.DoubleValue
15.138

@<SCITEGIC>MOL_PROPERTY
Bond
SciTegic.value.DoubleValue
0.414

@<SCITEGIC>MOL_PROPERTY
Angle
SciTegic.value.DoubleValue
5.295

@<SCITEGIC>MOL_PROPERTY
Pdih
SciTegic.value.DoubleValue
11.787

@<SCITEGIC>MOL_PROPERTY
Idih
SciTegic.value.DoubleValue
0.000

@<SCITEGIC>MOL_PROPERTY
Tether
SciTegic.value.DoubleValue
0.000

@<TRIPOS>MOLECULE
guest-s17_confgen4.mol2 : confsearch ligand conformer 266
          25          25           1
SMALL
USER_CHARGES
 
@<TRIPOS>ATOM
       1    C1      20.316564   20.966958   21.842892 C.3        1 MOL1        -0.1684
       2    H1      20.396924   21.874736   21.229327 H          1 MOL1         0.0833
       3    H2      20.315966   21.328823   22.878855 H          1 MOL1         0.0833
       4    C2      18.958188   20.303461   21.494450 C.3        1 MOL1        -0.1684
       5    H3      18.155267   20.967312   21.842940 H          1 MOL1         0.0833
       6    H4      18.854736   20.258134   20.401738 H          1 MOL1         0.0833
       7    C3      18.711577   18.885812   22.064349 C.3        1 MOL1        -0.1684
       8    H5      19.247892   18.147753   21.456562 H          1 MOL1         0.0833
       9    H6      17.648983   18.643331   21.926928 H          1 MOL1         0.0833
      10    C4      19.066691   18.735775   23.566626 C.3        1 MOL1        -0.1760
      11    H7      19.285778   19.710704   24.015964 H          1 MOL1         0.0833
      12    H8      18.177512   18.373332   24.098783 H          1 MOL1         0.0833
      13    C5      20.219001   17.746879   23.857374 C.3        1 MOL1         0.1219
      14    H9      19.827984   16.729426   23.713416 H          1 MOL1         0.0790
      15    C6      21.485195   17.878341   22.971966 C.3        1 MOL1        -0.1760
      16    H10     22.254594   17.231775   23.415036 H          1 MOL1         0.0833
      17    H11     21.298394   17.442594   21.983157 H          1 MOL1         0.0833
      18    C7      22.087461   19.299923   22.812522 C.3        1 MOL1        -0.1684
      19    H12     23.170194   19.171352   22.677242 H          1 MOL1         0.0833
      20    H13     21.979539   19.882556   23.736482 H          1 MOL1         0.0833
      21    C8      21.575459   20.102589   21.584776 C.3        1 MOL1        -0.1684
      22    H14     21.428130   19.448020   20.715282 H          1 MOL1         0.0833
      23    H15     22.381402   20.791438   21.296476 H          1 MOL1         0.0833
      24    O1      20.602141   17.899673   25.216883 O.3        1 MOL1        -0.5508
      25    H16     21.029066   18.777848   25.277610 H          1 MOL1         0.3780
@<TRIPOS>BOND
    1     1     2    1
    2     1     3    1
    3     1     4    1
    4     4     5    1
    5     4     6    1
    6     4     7    1
    7     7     8    1
    8     7     9    1
    9     7    10    1
   10    10    11    1
   11    10    12    1
   12    10    13    1
   13    13    14    1
   14    13    15    1
   15    15    16    1
   16    15    17    1
   17    15    18    1
   18    18    19    1
   19    18    20    1
   20     1    21    1
   21    18    21    1
   22    21    22    1
   23    21    23    1
   24    13    24    1
   25    24    25    1
@<TRIPOS>SUBSTRUCTURE
       1 MOL1            1 RESIDUE      1      MOL     
@<SCITEGIC>MOL_PROPERTY
VConf Rank
SciTegic.value.IntegerValue
266

@<SCITEGIC>MOL_PROPERTY
Conf_Id
SciTegic.value.IntegerValue
115

@<SCITEGIC>MOL_PROPERTY
Delta U+W
SciTegic.value.DoubleValue
0.038

@<SCITEGIC>MOL_PROPERTY
U+W
SciTegic.value.DoubleValue
10.952

@<SCITEGIC>MOL_PROPERTY
Grad RMS
SciTegic.value.DoubleValue
0.000000

@<SCITEGIC>MOL_PROPERTY
U
SciTegic.value.DoubleValue
12.526

@<SCITEGIC>MOL_PROPERTY
W
SciTegic.value.DoubleValue
-1.575

@<SCITEGIC>MOL_PROPERTY
W(PB)
SciTegic.value.DoubleValue
-3.698

@<SCITEGIC>MOL_PROPERTY
W(SA)
SciTegic.value.DoubleValue
2.123

@<SCITEGIC>MOL_PROPERTY
Valence
SciTegic.value.DoubleValue
19.016

@<SCITEGIC>MOL_PROPERTY
Coulomb
SciTegic.value.DoubleValue
-9.226

@<SCITEGIC>MOL_PROPERTY
VdW
SciTegic.value.DoubleValue
2.737

@<SCITEGIC>MOL_PROPERTY
VdW6
SciTegic.value.DoubleValue
-12.612

@<SCITEGIC>MOL_PROPERTY
VdW12
SciTegic.value.DoubleValue
15.349

@<SCITEGIC>MOL_PROPERTY
Bond
SciTegic.value.DoubleValue
0.421

@<SCITEGIC>MOL_PROPERTY
Angle
SciTegic.value.DoubleValue
4.883

@<SCITEGIC>MOL_PROPERTY
Pdih
SciTegic.value.DoubleValue
13.711

@<SCITEGIC>MOL_PROPERTY
Idih
SciTegic.value.DoubleValue
0.000

@<SCITEGIC>MOL_PROPERTY
Tether
SciTegic.value.DoubleValue
0.000

@<TRIPOS>MOLECULE
guest-s17_confgen4.mol2 : confsearch ligand conformer 267
          25          25           1
SMALL
USER_CHARGES
 
@<TRIPOS>ATOM
       1    C1      18.803143   17.754396   22.637981 C.3        1 MOL1        -0.1684
       2    H1      17.967467   17.194012   23.079119 H          1 MOL1         0.0833
       3    H2      18.802395   17.492397   21.571289 H          1 MOL1         0.0833
       4    C2      20.101730   17.248369   23.308162 C.3        1 MOL1        -0.1684
       5    H3      20.049433   17.400644   24.394749 H          1 MOL1         0.0833
       6    H4      20.142749   16.159935   23.164533 H          1 MOL1         0.0833
       7    C3      21.409767   17.852137   22.746559 C.3        1 MOL1        -0.1684
       8    H5      21.361528   17.914354   21.651214 H          1 MOL1         0.0833
       9    H6      22.219107   17.141178   22.962592 H          1 MOL1         0.0833
      10    C4      21.806228   19.214782   23.375810 C.3        1 MOL1        -0.1760
      11    H7      21.224776   19.419062   24.283550 H          1 MOL1         0.0833
      12    H8      22.849207   19.129956   23.709818 H          1 MOL1         0.0833
      13    C5      21.714382   20.416178   22.408253 C.3        1 MOL1         0.1219
      14    H9      22.010419   20.086229   21.402188 H          1 MOL1         0.0790
      15    C6      20.319423   21.075277   22.330074 C.3        1 MOL1        -0.1760
      16    H10     20.034214   21.466311   23.315639 H          1 MOL1         0.0833
      17    H11     20.403689   21.951614   21.674068 H          1 MOL1         0.0833
      18    C7      19.191206   20.177421   21.766472 C.3        1 MOL1        -0.1684
      19    H12     19.556041   19.598181   20.907748 H          1 MOL1         0.0833
      20    H13     18.416536   20.842389   21.360351 H          1 MOL1         0.0833
      21    C8      18.511369   19.262633   22.818608 C.3        1 MOL1        -0.1684
      22    H14     17.425651   19.399041   22.719554 H          1 MOL1         0.0833
      23    H15     18.751222   19.579453   23.842290 H          1 MOL1         0.0833
      24    O1      22.631815   21.409091   22.851070 O.3        1 MOL1        -0.5508
      25    H16     22.598345   22.137717   22.196608 H          1 MOL1         0.3780
@<TRIPOS>BOND
    1     1     2    1
    2     1     3    1
    3     1     4    1
    4     4     5    1
    5     4     6    1
    6     4     7    1
    7     7     8    1
    8     7     9    1
    9     7    10    1
   10    10    11    1
   11    10    12    1
   12    10    13    1
   13    13    14    1
   14    13    15    1
   15    15    16    1
   16    15    17    1
   17    15    18    1
   18    18    19    1
   19    18    20    1
   20     1    21    1
   21    18    21    1
   22    21    22    1
   23    21    23    1
   24    13    24    1
   25    24    25    1
@<TRIPOS>SUBSTRUCTURE
       1 MOL1            1 RESIDUE      1      MOL     
@<SCITEGIC>MOL_PROPERTY
VConf Rank
SciTegic.value.IntegerValue
267

@<SCITEGIC>MOL_PROPERTY
Conf_Id
SciTegic.value.IntegerValue
30

@<SCITEGIC>MOL_PROPERTY
Delta U+W
SciTegic.value.DoubleValue
0.000

@<SCITEGIC>MOL_PROPERTY
U+W
SciTegic.value.DoubleValue
10.913

@<SCITEGIC>MOL_PROPERTY
Grad RMS
SciTegic.value.DoubleValue
0.000000

@<SCITEGIC>MOL_PROPERTY
U
SciTegic.value.DoubleValue
13.140

@<SCITEGIC>MOL_PROPERTY
W
SciTegic.value.DoubleValue
-2.227

@<SCITEGIC>MOL_PROPERTY
W(PB)
SciTegic.value.DoubleValue
-4.367

@<SCITEGIC>MOL_PROPERTY
W(SA)
SciTegic.value.DoubleValue
2.140

@<SCITEGIC>MOL_PROPERTY
Valence
SciTegic.value.DoubleValue
19.155

@<SCITEGIC>MOL_PROPERTY
Coulomb
SciTegic.value.DoubleValue
-8.157

@<SCITEGIC>MOL_PROPERTY
VdW
SciTegic.value.DoubleValue
2.142

@<SCITEGIC>MOL_PROPERTY
VdW6
SciTegic.value.DoubleValue
-11.576

@<SCITEGIC>MOL_PROPERTY
VdW12
SciTegic.value.DoubleValue
13.718

@<SCITEGIC>MOL_PROPERTY
Bond
SciTegic.value.DoubleValue
0.294

@<SCITEGIC>MOL_PROPERTY
Angle
SciTegic.value.DoubleValue
3.547

@<SCITEGIC>MOL_PROPERTY
Pdih
SciTegic.value.DoubleValue
15.314

@<SCITEGIC>MOL_PROPERTY
Idih
SciTegic.value.DoubleValue
0.000

@<SCITEGIC>MOL_PROPERTY
Tether
SciTegic.value.DoubleValue
0.000

@<TRIPOS>MOLECULE
guest-s17_confgen4.mol2 : confsearch ligand conformer 268
          25          25           1
SMALL
USER_CHARGES
 
@<TRIPOS>ATOM
       1    C1      19.075206   19.498677   20.917175 C.3        1 MOL1        -0.1684
       2    H1      19.294794   19.513281   19.840873 H          1 MOL1         0.0833
       3    H2      18.002839   19.720536   21.004243 H          1 MOL1         0.0833
       4    C2      19.864228   20.645900   21.594971 C.3        1 MOL1        -0.1684
       5    H3      19.767814   21.540891   20.965237 H          1 MOL1         0.0833
       6    H4      19.379164   20.918567   22.539387 H          1 MOL1         0.0833
       7    C3      21.370671   20.349691   21.806372 C.3        1 MOL1        -0.1684
       8    H5      21.957261   21.145898   21.328195 H          1 MOL1         0.0833
       9    H6      21.668152   19.432084   21.285663 H          1 MOL1         0.0833
      10    C4      21.796039   20.267383   23.294271 C.3        1 MOL1        -0.1760
      11    H7      22.819522   19.872328   23.340898 H          1 MOL1         0.0833
      12    H8      21.848028   21.287119   23.697509 H          1 MOL1         0.0833
      13    C5      20.890003   19.435452   24.236167 C.3        1 MOL1         0.1219
      14    H9      19.944548   19.971200   24.394514 H          1 MOL1         0.0790
      15    C6      20.570303   18.002536   23.744396 C.3        1 MOL1        -0.1760
      16    H10     21.407311   17.605647   23.155797 H          1 MOL1         0.0833
      17    H11     20.497970   17.348229   24.623399 H          1 MOL1         0.0833
      18    C7      19.230164   17.859263   22.968991 C.3        1 MOL1        -0.1684
      19    H12     18.452730   18.507703   23.395069 H          1 MOL1         0.0833
      20    H13     18.875090   16.832493   23.133012 H          1 MOL1         0.0833
      21    C8      19.333587   18.059257   21.436638 C.3        1 MOL1        -0.1684
      22    H14     18.586759   17.409102   20.960597 H          1 MOL1         0.0833
      23    H15     20.299710   17.685579   21.074283 H          1 MOL1         0.0833
      24    O1      21.559363   19.341885   25.488133 O.3        1 MOL1        -0.5508
      25    H16     20.947378   18.884598   26.101987 H          1 MOL1         0.3780
@<TRIPOS>BOND
    1     1     2    1
    2     1     3    1
    3     1     4    1
    4     4     5    1
    5     4     6    1
    6     4     7    1
    7     7     8    1
    8     7     9    1
    9     7    10    1
   10    10    11    1
   11    10    12    1
   12    10    13    1
   13    13    14    1
   14    13    15    1
   15    15    16    1
   16    15    17    1
   17    15    18    1
   18    18    19    1
   19    18    20    1
   20     1    21    1
   21    18    21    1
   22    21    22    1
   23    21    23    1
   24    13    24    1
   25    24    25    1
@<TRIPOS>SUBSTRUCTURE
       1 MOL1            1 RESIDUE      1      MOL     
@<SCITEGIC>MOL_PROPERTY
VConf Rank
SciTegic.value.IntegerValue
268

@<SCITEGIC>MOL_PROPERTY
Conf_Id
SciTegic.value.IntegerValue
162

@<SCITEGIC>MOL_PROPERTY
Delta U+W
SciTegic.value.DoubleValue
0.219

@<SCITEGIC>MOL_PROPERTY
U+W
SciTegic.value.DoubleValue
11.132

@<SCITEGIC>MOL_PROPERTY
Grad RMS
SciTegic.value.DoubleValue
0.000000

@<SCITEGIC>MOL_PROPERTY
U
SciTegic.value.DoubleValue
13.296

@<SCITEGIC>MOL_PROPERTY
W
SciTegic.value.DoubleValue
-2.164

@<SCITEGIC>MOL_PROPERTY
W(PB)
SciTegic.value.DoubleValue
-4.311

@<SCITEGIC>MOL_PROPERTY
W(SA)
SciTegic.value.DoubleValue
2.148

@<SCITEGIC>MOL_PROPERTY
Valence
SciTegic.value.DoubleValue
18.607

@<SCITEGIC>MOL_PROPERTY
Coulomb
SciTegic.value.DoubleValue
-8.339

@<SCITEGIC>MOL_PROPERTY
VdW
SciTegic.value.DoubleValue
3.028

@<SCITEGIC>MOL_PROPERTY
VdW6
SciTegic.value.DoubleValue
-12.271

@<SCITEGIC>MOL_PROPERTY
VdW12
SciTegic.value.DoubleValue
15.299

@<SCITEGIC>MOL_PROPERTY
Bond
SciTegic.value.DoubleValue
0.423

@<SCITEGIC>MOL_PROPERTY
Angle
SciTegic.value.DoubleValue
4.488

@<SCITEGIC>MOL_PROPERTY
Pdih
SciTegic.value.DoubleValue
13.696

@<SCITEGIC>MOL_PROPERTY
Idih
SciTegic.value.DoubleValue
0.000

@<SCITEGIC>MOL_PROPERTY
Tether
SciTegic.value.DoubleValue
0.000

@<TRIPOS>MOLECULE
guest-s17_confgen4.mol2 : confsearch ligand conformer 269
          25          25           1
SMALL
USER_CHARGES
 
@<TRIPOS>ATOM
       1    C1      18.781836   19.258796   21.429366 C.3        1 MOL1        -0.1684
       2    H1      18.237668   19.814120   22.203764 H          1 MOL1         0.0833
       3    H2      18.079825   19.193140   20.586849 H          1 MOL1         0.0833
       4    C2      20.014219   20.072995   20.962445 C.3        1 MOL1        -0.1684
       5    H3      20.750585   19.420320   20.474581 H          1 MOL1         0.0833
       6    H4      19.665159   20.756029   20.175832 H          1 MOL1         0.0833
       7    C3      20.680858   20.951313   22.057758 C.3        1 MOL1        -0.1684
       8    H5      19.928986   21.385681   22.730201 H          1 MOL1         0.0833
       9    H6      21.138718   21.807111   21.542874 H          1 MOL1         0.0833
      10    C4      21.808854   20.258321   22.865579 C.3        1 MOL1        -0.1760
      11    H7      22.351054   19.553963   22.222778 H          1 MOL1         0.0833
      12    H8      22.548808   21.023990   23.132848 H          1 MOL1         0.0833
      13    C5      21.385716   19.572797   24.189337 C.3        1 MOL1         0.1219
      14    H9      21.129801   20.362490   24.910437 H          1 MOL1         0.0790
      15    C6      20.173721   18.614443   24.107616 C.3        1 MOL1        -0.1760
      16    H10     20.114921   18.044670   25.044047 H          1 MOL1         0.0833
      17    H11     19.252591   19.206739   24.090842 H          1 MOL1         0.0833
      18    C7      20.212453   17.617597   22.919225 C.3        1 MOL1        -0.1684
      19    H12     20.155480   16.594435   23.314514 H          1 MOL1         0.0833
      20    H13     21.177771   17.663138   22.401348 H          1 MOL1         0.0833
      21    C8      19.066529   17.806456   21.896008 C.3        1 MOL1        -0.1684
      22    H14     18.141117   17.397841   22.324243 H          1 MOL1         0.0833
      23    H15     19.286809   17.187494   21.015624 H          1 MOL1         0.0833
      24    O1      22.506022   18.845728   24.679629 O.3        1 MOL1        -0.5508
      25    H16     22.221210   18.417715   25.513178 H          1 MOL1         0.3780
@<TRIPOS>BOND
    1     1     2    1
    2     1     3    1
    3     1     4    1
    4     4     5    1
    5     4     6    1
    6     4     7    1
    7     7     8    1
    8     7     9    1
    9     7    10    1
   10    10    11    1
   11    10    12    1
   12    10    13    1
   13    13    14    1
   14    13    15    1
   15    15    16    1
   16    15    17    1
   17    15    18    1
   18    18    19    1
   19    18    20    1
   20     1    21    1
   21    18    21    1
   22    21    22    1
   23    21    23    1
   24    13    24    1
   25    24    25    1
@<TRIPOS>SUBSTRUCTURE
       1 MOL1            1 RESIDUE      1      MOL     
@<SCITEGIC>MOL_PROPERTY
VConf Rank
SciTegic.value.IntegerValue
269

@<SCITEGIC>MOL_PROPERTY
Conf_Id
SciTegic.value.IntegerValue
155

@<SCITEGIC>MOL_PROPERTY
Delta U+W
SciTegic.value.DoubleValue
0.339

@<SCITEGIC>MOL_PROPERTY
U+W
SciTegic.value.DoubleValue
11.252

@<SCITEGIC>MOL_PROPERTY
Grad RMS
SciTegic.value.DoubleValue
0.000000

@<SCITEGIC>MOL_PROPERTY
U
SciTegic.value.DoubleValue
13.420

@<SCITEGIC>MOL_PROPERTY
W
SciTegic.value.DoubleValue
-2.167

@<SCITEGIC>MOL_PROPERTY
W(PB)
SciTegic.value.DoubleValue
-4.325

@<SCITEGIC>MOL_PROPERTY
W(SA)
SciTegic.value.DoubleValue
2.157

@<SCITEGIC>MOL_PROPERTY
Valence
SciTegic.value.DoubleValue
18.609

@<SCITEGIC>MOL_PROPERTY
Coulomb
SciTegic.value.DoubleValue
-8.052

@<SCITEGIC>MOL_PROPERTY
VdW
SciTegic.value.DoubleValue
2.863

@<SCITEGIC>MOL_PROPERTY
VdW6
SciTegic.value.DoubleValue
-12.524

@<SCITEGIC>MOL_PROPERTY
VdW12
SciTegic.value.DoubleValue
15.387

@<SCITEGIC>MOL_PROPERTY
Bond
SciTegic.value.DoubleValue
0.430

@<SCITEGIC>MOL_PROPERTY
Angle
SciTegic.value.DoubleValue
4.724

@<SCITEGIC>MOL_PROPERTY
Pdih
SciTegic.value.DoubleValue
13.455

@<SCITEGIC>MOL_PROPERTY
Idih
SciTegic.value.DoubleValue
0.000

@<SCITEGIC>MOL_PROPERTY
Tether
SciTegic.value.DoubleValue
0.000

@<TRIPOS>MOLECULE
guest-s17_confgen4.mol2 : confsearch ligand conformer 270
          25          25           1
SMALL
USER_CHARGES
 
@<TRIPOS>ATOM
       1    C1      20.604834   18.327474   24.454443 C.3        1 MOL1        -0.1684
       2    H1      21.322847   17.496357   24.448102 H          1 MOL1         0.0833
       3    H2      20.257649   18.405842   25.493723 H          1 MOL1         0.0833
       4    C2      21.349392   19.648566   24.127080 C.3        1 MOL1        -0.1684
       5    H3      20.660945   20.490977   24.247608 H          1 MOL1         0.0833
       6    H4      22.096418   19.812587   24.915600 H          1 MOL1         0.0833
       7    C3      22.096791   19.735107   22.764317 C.3        1 MOL1        -0.1684
       8    H5      23.099681   19.311980   22.911719 H          1 MOL1         0.0833
       9    H6      22.258056   20.792305   22.513230 H          1 MOL1         0.0833
      10    C4      21.474232   19.010907   21.539630 C.3        1 MOL1        -0.1760
      11    H7      22.204240   19.063901   20.721352 H          1 MOL1         0.0833
      12    H8      21.413161   17.939315   21.748708 H          1 MOL1         0.0833
      13    C5      20.111771   19.533924   20.996989 C.3        1 MOL1         0.1219
      14    H9      19.629299   18.709423   20.452756 H          1 MOL1         0.0790
      15    C6      19.092262   20.087135   22.024169 C.3        1 MOL1        -0.1760
      16    H10     19.530845   20.950112   22.533517 H          1 MOL1         0.0833
      17    H11     18.255333   20.518025   21.458918 H          1 MOL1         0.0833
      18    C7      18.479156   19.089273   23.052118 C.3        1 MOL1        -0.1684
      19    H12     17.606161   18.622057   22.576276 H          1 MOL1         0.0833
      20    H13     18.079495   19.657099   23.903098 H          1 MOL1         0.0833
      21    C8      19.375298   17.939079   23.581902 C.3        1 MOL1        -0.1684
      22    H14     19.676996   17.299292   22.746660 H          1 MOL1         0.0833
      23    H15     18.742404   17.280833   24.192668 H          1 MOL1         0.0833
      24    O1      20.383639   20.585051   20.076444 O.3        1 MOL1        -0.5508
      25    H16     20.987823   20.218252   19.398461 H          1 MOL1         0.3780
@<TRIPOS>BOND
    1     1     2    1
    2     1     3    1
    3     1     4    1
    4     4     5    1
    5     4     6    1
    6     4     7    1
    7     7     8    1
    8     7     9    1
    9     7    10    1
   10    10    11    1
   11    10    12    1
   12    10    13    1
   13    13    14    1
   14    13    15    1
   15    15    16    1
   16    15    17    1
   17    15    18    1
   18    18    19    1
   19    18    20    1
   20     1    21    1
   21    18    21    1
   22    21    22    1
   23    21    23    1
   24    13    24    1
   25    24    25    1
@<TRIPOS>SUBSTRUCTURE
       1 MOL1            1 RESIDUE      1      MOL     
@<SCITEGIC>MOL_PROPERTY
VConf Rank
SciTegic.value.IntegerValue
270

@<SCITEGIC>MOL_PROPERTY
Conf_Id
SciTegic.value.IntegerValue
146

@<SCITEGIC>MOL_PROPERTY
Delta U+W
SciTegic.value.DoubleValue
2.553

@<SCITEGIC>MOL_PROPERTY
U+W
SciTegic.value.DoubleValue
13.466

@<SCITEGIC>MOL_PROPERTY
Grad RMS
SciTegic.value.DoubleValue
0.000000

@<SCITEGIC>MOL_PROPERTY
U
SciTegic.value.DoubleValue
15.643

@<SCITEGIC>MOL_PROPERTY
W
SciTegic.value.DoubleValue
-2.176

@<SCITEGIC>MOL_PROPERTY
W(PB)
SciTegic.value.DoubleValue
-4.307

@<SCITEGIC>MOL_PROPERTY
W(SA)
SciTegic.value.DoubleValue
2.131

@<SCITEGIC>MOL_PROPERTY
Valence
SciTegic.value.DoubleValue
18.916

@<SCITEGIC>MOL_PROPERTY
Coulomb
SciTegic.value.DoubleValue
-7.506

@<SCITEGIC>MOL_PROPERTY
VdW
SciTegic.value.DoubleValue
4.232

@<SCITEGIC>MOL_PROPERTY
VdW6
SciTegic.value.DoubleValue
-13.632

@<SCITEGIC>MOL_PROPERTY
VdW12
SciTegic.value.DoubleValue
17.864

@<SCITEGIC>MOL_PROPERTY
Bond
SciTegic.value.DoubleValue
0.735

@<SCITEGIC>MOL_PROPERTY
Angle
SciTegic.value.DoubleValue
9.140

@<SCITEGIC>MOL_PROPERTY
Pdih
SciTegic.value.DoubleValue
9.042

@<SCITEGIC>MOL_PROPERTY
Idih
SciTegic.value.DoubleValue
0.000

@<SCITEGIC>MOL_PROPERTY
Tether
SciTegic.value.DoubleValue
0.000

@<TRIPOS>MOLECULE
guest-s17_confgen4.mol2 : confsearch ligand conformer 271
          25          25           1
SMALL
USER_CHARGES
 
@<TRIPOS>ATOM
       1    C1      22.102556   18.675637   21.780889 C.3        1 MOL1        -0.1684
       2    H1      22.296843   18.790353   20.705902 H          1 MOL1         0.0833
       3    H2      23.011898   18.223150   22.199537 H          1 MOL1         0.0833
       4    C2      20.946465   17.665046   21.986559 C.3        1 MOL1        -0.1684
       5    H3      21.271010   16.707114   21.557797 H          1 MOL1         0.0833
       6    H4      20.807824   17.456412   23.053516 H          1 MOL1         0.0833
       7    C3      19.594645   18.030598   21.323735 C.3        1 MOL1        -0.1684
       8    H5      18.919261   17.174248   21.456036 H          1 MOL1         0.0833
       9    H6      19.737526   18.132404   20.239455 H          1 MOL1         0.0833
      10    C4      18.869003   19.293538   21.856772 C.3        1 MOL1        -0.1760
      11    H7      19.288038   20.194849   21.398387 H          1 MOL1         0.0833
      12    H8      17.835789   19.252564   21.486196 H          1 MOL1         0.0833
      13    C5      18.847858   19.438334   23.400360 C.3        1 MOL1         0.1219
      14    H9      19.034188   18.460557   23.864553 H          1 MOL1         0.0790
      15    C6      19.862209   20.470935   23.954066 C.3        1 MOL1        -0.1760
      16    H10     19.694890   21.439172   23.463923 H          1 MOL1         0.0833
      17    H11     19.635368   20.633024   25.015957 H          1 MOL1         0.0833
      18    C7      21.366796   20.099331   23.855406 C.3        1 MOL1        -0.1684
      19    H12     21.569192   19.152563   24.372577 H          1 MOL1         0.0833
      20    H13     21.922346   20.859375   24.421690 H          1 MOL1         0.0833
      21    C8      21.939782   20.081445   22.414624 C.3        1 MOL1        -0.1684
      22    H14     22.937063   20.541795   22.437989 H          1 MOL1         0.0833
      23    H15     21.353539   20.735214   21.759087 H          1 MOL1         0.0833
      24    O1      17.548659   19.872960   23.785757 O.3        1 MOL1        -0.5508
      25    H16     17.538347   19.901280   24.765202 H          1 MOL1         0.3780
@<TRIPOS>BOND
    1     1     2    1
    2     1     3    1
    3     1     4    1
    4     4     5    1
    5     4     6    1
    6     4     7    1
    7     7     8    1
    8     7     9    1
    9     7    10    1
   10    10    11    1
   11    10    12    1
   12    10    13    1
   13    13    14    1
   14    13    15    1
   15    15    16    1
   16    15    17    1
   17    15    18    1
   18    18    19    1
   19    18    20    1
   20     1    21    1
   21    18    21    1
   22    21    22    1
   23    21    23    1
   24    13    24    1
   25    24    25    1
@<TRIPOS>SUBSTRUCTURE
       1 MOL1            1 RESIDUE      1      MOL     
@<SCITEGIC>MOL_PROPERTY
VConf Rank
SciTegic.value.IntegerValue
271

@<SCITEGIC>MOL_PROPERTY
Conf_Id
SciTegic.value.IntegerValue
62

@<SCITEGIC>MOL_PROPERTY
Delta U+W
SciTegic.value.DoubleValue
-1.779

@<SCITEGIC>MOL_PROPERTY
U+W
SciTegic.value.DoubleValue
9.134

@<SCITEGIC>MOL_PROPERTY
Grad RMS
SciTegic.value.DoubleValue
0.000000

@<SCITEGIC>MOL_PROPERTY
U
SciTegic.value.DoubleValue
11.364

@<SCITEGIC>MOL_PROPERTY
W
SciTegic.value.DoubleValue
-2.230

@<SCITEGIC>MOL_PROPERTY
W(PB)
SciTegic.value.DoubleValue
-4.359

@<SCITEGIC>MOL_PROPERTY
W(SA)
SciTegic.value.DoubleValue
2.129

@<SCITEGIC>MOL_PROPERTY
Valence
SciTegic.value.DoubleValue
16.582

@<SCITEGIC>MOL_PROPERTY
Coulomb
SciTegic.value.DoubleValue
-8.150

@<SCITEGIC>MOL_PROPERTY
VdW
SciTegic.value.DoubleValue
2.933

@<SCITEGIC>MOL_PROPERTY
VdW6
SciTegic.value.DoubleValue
-12.531

@<SCITEGIC>MOL_PROPERTY
VdW12
SciTegic.value.DoubleValue
15.464

@<SCITEGIC>MOL_PROPERTY
Bond
SciTegic.value.DoubleValue
0.439

@<SCITEGIC>MOL_PROPERTY
Angle
SciTegic.value.DoubleValue
5.099

@<SCITEGIC>MOL_PROPERTY
Pdih
SciTegic.value.DoubleValue
11.044

@<SCITEGIC>MOL_PROPERTY
Idih
SciTegic.value.DoubleValue
0.000

@<SCITEGIC>MOL_PROPERTY
Tether
SciTegic.value.DoubleValue
0.000

@<TRIPOS>MOLECULE
guest-s17_confgen4.mol2 : confsearch ligand conformer 272
          25          25           1
SMALL
USER_CHARGES
 
@<TRIPOS>ATOM
       1    C1      19.343735   20.739207   22.918612 C.3        1 MOL1        -0.1684
       2    H1      18.836767   20.209114   22.104297 H          1 MOL1         0.0833
       3    H2      18.757304   21.657521   23.058030 H          1 MOL1         0.0833
       4    C2      20.767874   21.164574   22.482100 C.3        1 MOL1        -0.1684
       5    H3      20.661302   21.823671   21.609678 H          1 MOL1         0.0833
       6    H4      21.218654   21.784259   23.269046 H          1 MOL1         0.0833
       7    C3      21.758050   20.033728   22.103339 C.3        1 MOL1        -0.1684
       8    H5      22.228217   19.617251   23.001382 H          1 MOL1         0.0833
       9    H6      22.585698   20.499832   21.551278 H          1 MOL1         0.0833
      10    C4      21.165500   18.900686   21.223331 C.3        1 MOL1        -0.1760
      11    H7      20.293218   19.253994   20.659816 H          1 MOL1         0.0833
      12    H8      21.918845   18.652168   20.464350 H          1 MOL1         0.0833
      13    C5      20.827551   17.593207   21.983386 C.3        1 MOL1         0.1219
      14    H9      21.721669   17.277093   22.539809 H          1 MOL1         0.0790
      15    C6      19.641322   17.661447   22.977425 C.3        1 MOL1        -0.1760
      16    H10     18.725884   17.977194   22.462579 H          1 MOL1         0.0833
      17    H11     19.444457   16.634009   23.311230 H          1 MOL1         0.0833
      18    C7      19.896298   18.519706   24.245474 C.3        1 MOL1        -0.1684
      19    H12     20.970376   18.592885   24.450284 H          1 MOL1         0.0833
      20    H13     19.487693   17.981344   25.111590 H          1 MOL1         0.0833
      21    C8      19.246844   19.927188   24.234272 C.3        1 MOL1        -0.1684
      22    H14     19.666165   20.519946   25.058463 H          1 MOL1         0.0833
      23    H15     18.180253   19.806370   24.468082 H          1 MOL1         0.0833
      24    O1      20.517277   16.599074   21.014957 O.3        1 MOL1        -0.5508
      25    H16     21.301242   16.516260   20.432987 H          1 MOL1         0.3780
@<TRIPOS>BOND
    1     1     2    1
    2     1     3    1
    3     1     4    1
    4     4     5    1
    5     4     6    1
    6     4     7    1
    7     7     8    1
    8     7     9    1
    9     7    10    1
   10    10    11    1
   11    10    12    1
   12    10    13    1
   13    13    14    1
   14    13    15    1
   15    15    16    1
   16    15    17    1
   17    15    18    1
   18    18    19    1
   19    18    20    1
   20     1    21    1
   21    18    21    1
   22    21    22    1
   23    21    23    1
   24    13    24    1
   25    24    25    1
@<TRIPOS>SUBSTRUCTURE
       1 MOL1            1 RESIDUE      1      MOL     
@<SCITEGIC>MOL_PROPERTY
VConf Rank
SciTegic.value.IntegerValue
272

@<SCITEGIC>MOL_PROPERTY
Conf_Id
SciTegic.value.IntegerValue
121

@<SCITEGIC>MOL_PROPERTY
Delta U+W
SciTegic.value.DoubleValue
-1.283

@<SCITEGIC>MOL_PROPERTY
U+W
SciTegic.value.DoubleValue
9.630

@<SCITEGIC>MOL_PROPERTY
Grad RMS
SciTegic.value.DoubleValue
0.000000

@<SCITEGIC>MOL_PROPERTY
U
SciTegic.value.DoubleValue
11.876

@<SCITEGIC>MOL_PROPERTY
W
SciTegic.value.DoubleValue
-2.246

@<SCITEGIC>MOL_PROPERTY
W(PB)
SciTegic.value.DoubleValue
-4.376

@<SCITEGIC>MOL_PROPERTY
W(SA)
SciTegic.value.DoubleValue
2.130

@<SCITEGIC>MOL_PROPERTY
Valence
SciTegic.value.DoubleValue
17.153

@<SCITEGIC>MOL_PROPERTY
Coulomb
SciTegic.value.DoubleValue
-7.966

@<SCITEGIC>MOL_PROPERTY
VdW
SciTegic.value.DoubleValue
2.689

@<SCITEGIC>MOL_PROPERTY
VdW6
SciTegic.value.DoubleValue
-12.458

@<SCITEGIC>MOL_PROPERTY
VdW12
SciTegic.value.DoubleValue
15.147

@<SCITEGIC>MOL_PROPERTY
Bond
SciTegic.value.DoubleValue
0.421

@<SCITEGIC>MOL_PROPERTY
Angle
SciTegic.value.DoubleValue
5.258

@<SCITEGIC>MOL_PROPERTY
Pdih
SciTegic.value.DoubleValue
11.475

@<SCITEGIC>MOL_PROPERTY
Idih
SciTegic.value.DoubleValue
0.000

@<SCITEGIC>MOL_PROPERTY
Tether
SciTegic.value.DoubleValue
0.000

@<TRIPOS>MOLECULE
guest-s17_confgen4.mol2 : confsearch ligand conformer 273
          25          25           1
SMALL
USER_CHARGES
 
@<TRIPOS>ATOM
       1    C1      21.924862   19.739389   21.801814 C.3        1 MOL1        -0.1684
       2    H1      21.588607   18.842429   21.269349 H          1 MOL1         0.0833
       3    H2      22.845890   20.039440   21.283821 H          1 MOL1         0.0833
       4    C2      22.310739   19.388584   23.260497 C.3        1 MOL1        -0.1684
       5    H3      23.121440   18.648477   23.217034 H          1 MOL1         0.0833
       6    H4      22.743224   20.274571   23.744713 H          1 MOL1         0.0833
       7    C3      21.193374   18.813972   24.168375 C.3        1 MOL1        -0.1684
       8    H5      20.589958   19.623063   24.595234 H          1 MOL1         0.0833
       9    H6      21.685772   18.352084   25.035064 H          1 MOL1         0.0833
      10    C4      20.281822   17.747527   23.504040 C.3        1 MOL1        -0.1760
      11    H7      20.793911   17.252338   22.670168 H          1 MOL1         0.0833
      12    H8      20.108115   16.956818   24.245939 H          1 MOL1         0.0833
      13    C5      18.889993   18.261506   23.058446 C.3        1 MOL1         0.1219
      14    H9      18.414863   18.751609   23.920438 H          1 MOL1         0.0790
      15    C6      18.870365   19.250615   21.865691 C.3        1 MOL1        -0.1760
      16    H10     19.344213   18.799991   20.984977 H          1 MOL1         0.0833
      17    H11     17.820160   19.401673   21.583565 H          1 MOL1         0.0833
      18    C7      19.469686   20.650292   22.167398 C.3        1 MOL1        -0.1684
      19    H12     19.425220   20.864379   23.241261 H          1 MOL1         0.0833
      20    H13     18.819366   21.408098   21.709319 H          1 MOL1         0.0833
      21    C8      20.901603   20.888697   21.623803 C.3        1 MOL1        -0.1684
      22    H14     21.305037   21.806446   22.072660 H          1 MOL1         0.0833
      23    H15     20.822215   21.094560   20.547603 H          1 MOL1         0.0833
      24    O1      18.112863   17.128266   22.692029 O.3        1 MOL1        -0.5508
      25    H16     17.215268   17.457750   22.477757 H          1 MOL1         0.3780
@<TRIPOS>BOND
    1     1     2    1
    2     1     3    1
    3     1     4    1
    4     4     5    1
    5     4     6    1
    6     4     7    1
    7     7     8    1
    8     7     9    1
    9     7    10    1
   10    10    11    1
   11    10    12    1
   12    10    13    1
   13    13    14    1
   14    13    15    1
   15    15    16    1
   16    15    17    1
   17    15    18    1
   18    18    19    1
   19    18    20    1
   20     1    21    1
   21    18    21    1
   22    21    22    1
   23    21    23    1
   24    13    24    1
   25    24    25    1
@<TRIPOS>SUBSTRUCTURE
       1 MOL1            1 RESIDUE      1      MOL     
@<SCITEGIC>MOL_PROPERTY
VConf Rank
SciTegic.value.IntegerValue
273

@<SCITEGIC>MOL_PROPERTY
Conf_Id
SciTegic.value.IntegerValue
24

@<SCITEGIC>MOL_PROPERTY
Delta U+W
SciTegic.value.DoubleValue
-1.236

@<SCITEGIC>MOL_PROPERTY
U+W
SciTegic.value.DoubleValue
9.678

@<SCITEGIC>MOL_PROPERTY
Grad RMS
SciTegic.value.DoubleValue
0.000000

@<SCITEGIC>MOL_PROPERTY
U
SciTegic.value.DoubleValue
11.876

@<SCITEGIC>MOL_PROPERTY
W
SciTegic.value.DoubleValue
-2.199

@<SCITEGIC>MOL_PROPERTY
W(PB)
SciTegic.value.DoubleValue
-4.335

@<SCITEGIC>MOL_PROPERTY
W(SA)
SciTegic.value.DoubleValue
2.137

@<SCITEGIC>MOL_PROPERTY
Valence
SciTegic.value.DoubleValue
17.153

@<SCITEGIC>MOL_PROPERTY
Coulomb
SciTegic.value.DoubleValue
-7.966

@<SCITEGIC>MOL_PROPERTY
VdW
SciTegic.value.DoubleValue
2.689

@<SCITEGIC>MOL_PROPERTY
VdW6
SciTegic.value.DoubleValue
-12.458

@<SCITEGIC>MOL_PROPERTY
VdW12
SciTegic.value.DoubleValue
15.147

@<SCITEGIC>MOL_PROPERTY
Bond
SciTegic.value.DoubleValue
0.421

@<SCITEGIC>MOL_PROPERTY
Angle
SciTegic.value.DoubleValue
5.258

@<SCITEGIC>MOL_PROPERTY
Pdih
SciTegic.value.DoubleValue
11.475

@<SCITEGIC>MOL_PROPERTY
Idih
SciTegic.value.DoubleValue
0.000

@<SCITEGIC>MOL_PROPERTY
Tether
SciTegic.value.DoubleValue
0.000

@<TRIPOS>MOLECULE
guest-s17_confgen4.mol2 : confsearch ligand conformer 274
          25          25           1
SMALL
USER_CHARGES
 
@<TRIPOS>ATOM
       1    C1      19.667802   21.012932   21.682925 C.3        1 MOL1        -0.1684
       2    H1      20.329286   21.885534   21.594715 H          1 MOL1         0.0833
       3    H2      18.705883   21.324807   21.253623 H          1 MOL1         0.0833
       4    C2      20.232383   19.864491   20.805125 C.3        1 MOL1        -0.1684
       5    H3      19.457084   19.114060   20.604981 H          1 MOL1         0.0833
       6    H4      20.462285   20.297299   19.821820 H          1 MOL1         0.0833
       7    C3      21.514272   19.173377   21.332174 C.3        1 MOL1        -0.1684
       8    H5      22.161444   19.894296   21.849766 H          1 MOL1         0.0833
       9    H6      22.086172   18.848661   20.452008 H          1 MOL1         0.0833
      10    C4      21.272072   17.908873   22.204124 C.3        1 MOL1        -0.1760
      11    H7      20.411986   17.337274   21.832633 H          1 MOL1         0.0833
      12    H8      22.144054   17.256577   22.058840 H          1 MOL1         0.0833
      13    C5      21.130803   18.178248   23.722201 C.3        1 MOL1         0.1219
      14    H9      21.707125   19.078946   23.971742 H          1 MOL1         0.0790
      15    C6      19.677573   18.341737   24.235233 C.3        1 MOL1        -0.1760
      16    H10     19.176721   17.364767   24.228410 H          1 MOL1         0.0833
      17    H11     19.729404   18.646993   25.288681 H          1 MOL1         0.0833
      18    C7      18.778111   19.351346   23.478728 C.3        1 MOL1        -0.1684
      19    H12     17.880784   19.530144   24.086670 H          1 MOL1         0.0833
      20    H13     18.403552   18.893482   22.555821 H          1 MOL1         0.0833
      21    C8      19.460487   20.711832   23.187536 C.3        1 MOL1        -0.1684
      22    H14     20.417978   20.794395   23.714841 H          1 MOL1         0.0833
      23    H15     18.840149   21.513492   23.611083 H          1 MOL1         0.0833
      24    O1      21.705394   17.084382   24.425773 O.3        1 MOL1        -0.5508
      25    H16     21.190060   16.290979   24.172958 H          1 MOL1         0.3780
@<TRIPOS>BOND
    1     1     2    1
    2     1     3    1
    3     1     4    1
    4     4     5    1
    5     4     6    1
    6     4     7    1
    7     7     8    1
    8     7     9    1
    9     7    10    1
   10    10    11    1
   11    10    12    1
   12    10    13    1
   13    13    14    1
   14    13    15    1
   15    15    16    1
   16    15    17    1
   17    15    18    1
   18    18    19    1
   19    18    20    1
   20     1    21    1
   21    18    21    1
   22    21    22    1
   23    21    23    1
   24    13    24    1
   25    24    25    1
@<TRIPOS>SUBSTRUCTURE
       1 MOL1            1 RESIDUE      1      MOL     
@<SCITEGIC>MOL_PROPERTY
VConf Rank
SciTegic.value.IntegerValue
274

@<SCITEGIC>MOL_PROPERTY
Conf_Id
SciTegic.value.IntegerValue
167

@<SCITEGIC>MOL_PROPERTY
Delta U+W
SciTegic.value.DoubleValue
0.388

@<SCITEGIC>MOL_PROPERTY
U+W
SciTegic.value.DoubleValue
11.301

@<SCITEGIC>MOL_PROPERTY
Grad RMS
SciTegic.value.DoubleValue
0.000000

@<SCITEGIC>MOL_PROPERTY
U
SciTegic.value.DoubleValue
13.202

@<SCITEGIC>MOL_PROPERTY
W
SciTegic.value.DoubleValue
-1.901

@<SCITEGIC>MOL_PROPERTY
W(PB)
SciTegic.value.DoubleValue
-4.065

@<SCITEGIC>MOL_PROPERTY
W(SA)
SciTegic.value.DoubleValue
2.163

@<SCITEGIC>MOL_PROPERTY
Valence
SciTegic.value.DoubleValue
18.957

@<SCITEGIC>MOL_PROPERTY
Coulomb
SciTegic.value.DoubleValue
-8.753

@<SCITEGIC>MOL_PROPERTY
VdW
SciTegic.value.DoubleValue
2.998

@<SCITEGIC>MOL_PROPERTY
VdW6
SciTegic.value.DoubleValue
-12.294

@<SCITEGIC>MOL_PROPERTY
VdW12
SciTegic.value.DoubleValue
15.292

@<SCITEGIC>MOL_PROPERTY
Bond
SciTegic.value.DoubleValue
0.419

@<SCITEGIC>MOL_PROPERTY
Angle
SciTegic.value.DoubleValue
4.543

@<SCITEGIC>MOL_PROPERTY
Pdih
SciTegic.value.DoubleValue
13.996

@<SCITEGIC>MOL_PROPERTY
Idih
SciTegic.value.DoubleValue
0.000

@<SCITEGIC>MOL_PROPERTY
Tether
SciTegic.value.DoubleValue
0.000

@<TRIPOS>MOLECULE
guest-s17_confgen4.mol2 : confsearch ligand conformer 275
          25          25           1
SMALL
USER_CHARGES
 
@<TRIPOS>ATOM
       1    C1      19.904851   19.023966   20.642851 C.3        1 MOL1        -0.1684
       2    H1      20.067107   18.068685   20.125536 H          1 MOL1         0.0833
       3    H2      19.496977   19.705745   19.884080 H          1 MOL1         0.0833
       4    C2      21.276298   19.588862   21.095984 C.3        1 MOL1        -0.1684
       5    H3      21.915261   18.787608   21.483956 H          1 MOL1         0.0833
       6    H4      21.795077   19.937660   20.192522 H          1 MOL1         0.0833
       7    C3      21.212619   20.768732   22.100322 C.3        1 MOL1        -0.1684
       8    H5      20.264981   21.314841   22.008039 H          1 MOL1         0.0833
       9    H6      21.988757   21.490528   21.811314 H          1 MOL1         0.0833
      10    C4      21.483232   20.381078   23.579762 C.3        1 MOL1        -0.1760
      11    H7      22.453832   19.873230   23.652337 H          1 MOL1         0.0833
      12    H8      21.593306   21.312777   24.150382 H          1 MOL1         0.0833
      13    C5      20.404823   19.522667   24.286567 C.3        1 MOL1         0.1219
      14    H9      19.429070   20.016258   24.184440 H          1 MOL1         0.0790
      15    C6      20.313242   18.065358   23.764464 C.3        1 MOL1        -0.1760
      16    H10     21.251869   17.779660   23.279047 H          1 MOL1         0.0833
      17    H11     20.226459   17.376292   24.615110 H          1 MOL1         0.0833
      18    C7      19.114902   17.781046   22.822174 C.3        1 MOL1        -0.1684
      19    H12     18.213594   17.682195   23.442512 H          1 MOL1         0.0833
      20    H13     19.259034   16.800677   22.348197 H          1 MOL1         0.0833
      21    C8      18.816193   18.838375   21.729610 C.3        1 MOL1        -0.1684
      22    H14     18.564770   19.802934   22.185199 H          1 MOL1         0.0833
      23    H15     17.895373   18.526579   21.218049 H          1 MOL1         0.0833
      24    O1      20.737104   19.480001   25.669293 O.3        1 MOL1        -0.5508
      25    H16     20.013279   18.994089   26.117048 H          1 MOL1         0.3780
@<TRIPOS>BOND
    1     1     2    1
    2     1     3    1
    3     1     4    1
    4     4     5    1
    5     4     6    1
    6     4     7    1
    7     7     8    1
    8     7     9    1
    9     7    10    1
   10    10    11    1
   11    10    12    1
   12    10    13    1
   13    13    14    1
   14    13    15    1
   15    15    16    1
   16    15    17    1
   17    15    18    1
   18    18    19    1
   19    18    20    1
   20     1    21    1
   21    18    21    1
   22    21    22    1
   23    21    23    1
   24    13    24    1
   25    24    25    1
@<TRIPOS>SUBSTRUCTURE
       1 MOL1            1 RESIDUE      1      MOL     
@<SCITEGIC>MOL_PROPERTY
VConf Rank
SciTegic.value.IntegerValue
275

@<SCITEGIC>MOL_PROPERTY
Conf_Id
SciTegic.value.IntegerValue
60

@<SCITEGIC>MOL_PROPERTY
Delta U+W
SciTegic.value.DoubleValue
-1.838

@<SCITEGIC>MOL_PROPERTY
U+W
SciTegic.value.DoubleValue
9.075

@<SCITEGIC>MOL_PROPERTY
Grad RMS
SciTegic.value.DoubleValue
0.000000

@<SCITEGIC>MOL_PROPERTY
U
SciTegic.value.DoubleValue
11.150

@<SCITEGIC>MOL_PROPERTY
W
SciTegic.value.DoubleValue
-2.074

@<SCITEGIC>MOL_PROPERTY
W(PB)
SciTegic.value.DoubleValue
-4.196

@<SCITEGIC>MOL_PROPERTY
W(SA)
SciTegic.value.DoubleValue
2.121

@<SCITEGIC>MOL_PROPERTY
Valence
SciTegic.value.DoubleValue
16.582

@<SCITEGIC>MOL_PROPERTY
Coulomb
SciTegic.value.DoubleValue
-8.361

@<SCITEGIC>MOL_PROPERTY
VdW
SciTegic.value.DoubleValue
2.928

@<SCITEGIC>MOL_PROPERTY
VdW6
SciTegic.value.DoubleValue
-12.539

@<SCITEGIC>MOL_PROPERTY
VdW12
SciTegic.value.DoubleValue
15.467

@<SCITEGIC>MOL_PROPERTY
Bond
SciTegic.value.DoubleValue
0.441

@<SCITEGIC>MOL_PROPERTY
Angle
SciTegic.value.DoubleValue
5.093

@<SCITEGIC>MOL_PROPERTY
Pdih
SciTegic.value.DoubleValue
11.049

@<SCITEGIC>MOL_PROPERTY
Idih
SciTegic.value.DoubleValue
0.000

@<SCITEGIC>MOL_PROPERTY
Tether
SciTegic.value.DoubleValue
0.000

@<TRIPOS>MOLECULE
guest-s17_confgen4.mol2 : confsearch ligand conformer 276
          25          25           1
SMALL
USER_CHARGES
 
@<TRIPOS>ATOM
       1    C1      20.591013   17.739404   21.210695 C.3        1 MOL1        -0.1684
       2    H1      19.787287   17.038025   20.948786 H          1 MOL1         0.0833
       3    H2      21.449375   17.451458   20.588424 H          1 MOL1         0.0833
       4    C2      20.998802   17.520567   22.689371 C.3        1 MOL1        -0.1684
       5    H3      21.358399   16.486346   22.778247 H          1 MOL1         0.0833
       6    H4      21.869719   18.137152   22.939320 H          1 MOL1         0.0833
       7    C3      19.877648   17.708830   23.742197 C.3        1 MOL1        -0.1684
       8    H5      20.285344   17.408940   24.717284 H          1 MOL1         0.0833
       9    H6      19.060905   17.005093   23.531875 H          1 MOL1         0.0833
      10    C4      19.287172   19.135030   23.890692 C.3        1 MOL1        -0.1760
      11    H7      18.540009   19.317777   23.111831 H          1 MOL1         0.0833
      12    H8      18.713493   19.151778   24.826936 H          1 MOL1         0.0833
      13    C5      20.333716   20.279264   23.904808 C.3        1 MOL1         0.1219
      14    H9      21.323965   19.874444   24.153167 H          1 MOL1         0.0790
      15    C6      20.427558   21.066915   22.574318 C.3        1 MOL1        -0.1760
      16    H10     19.431985   21.444768   22.307290 H          1 MOL1         0.0833
      17    H11     21.042778   21.957752   22.757885 H          1 MOL1         0.0833
      18    C7      21.039420   20.319307   21.358194 C.3        1 MOL1        -0.1684
      19    H12     22.053235   19.966812   21.587751 H          1 MOL1         0.0833
      20    H13     21.168120   21.060992   20.558041 H          1 MOL1         0.0833
      21    C8      20.164466   19.170672   20.792563 C.3        1 MOL1        -0.1684
      22    H14     20.212896   19.213424   19.695813 H          1 MOL1         0.0833
      23    H15     19.107381   19.342316   21.024755 H          1 MOL1         0.0833
      24    O1      19.966537   21.205761   24.920163 O.3        1 MOL1        -0.5508
      25    H16     19.977494   20.712864   25.767186 H          1 MOL1         0.3780
@<TRIPOS>BOND
    1     1     2    1
    2     1     3    1
    3     1     4    1
    4     4     5    1
    5     4     6    1
    6     4     7    1
    7     7     8    1
    8     7     9    1
    9     7    10    1
   10    10    11    1
   11    10    12    1
   12    10    13    1
   13    13    14    1
   14    13    15    1
   15    15    16    1
   16    15    17    1
   17    15    18    1
   18    18    19    1
   19    18    20    1
   20     1    21    1
   21    18    21    1
   22    21    22    1
   23    21    23    1
   24    13    24    1
   25    24    25    1
@<TRIPOS>SUBSTRUCTURE
       1 MOL1            1 RESIDUE      1      MOL     
@<SCITEGIC>MOL_PROPERTY
VConf Rank
SciTegic.value.IntegerValue
276

@<SCITEGIC>MOL_PROPERTY
Conf_Id
SciTegic.value.IntegerValue
129

@<SCITEGIC>MOL_PROPERTY
Delta U+W
SciTegic.value.DoubleValue
-1.846

@<SCITEGIC>MOL_PROPERTY
U+W
SciTegic.value.DoubleValue
9.067

@<SCITEGIC>MOL_PROPERTY
Grad RMS
SciTegic.value.DoubleValue
0.000000

@<SCITEGIC>MOL_PROPERTY
U
SciTegic.value.DoubleValue
11.150

@<SCITEGIC>MOL_PROPERTY
W
SciTegic.value.DoubleValue
-2.083

@<SCITEGIC>MOL_PROPERTY
W(PB)
SciTegic.value.DoubleValue
-4.217

@<SCITEGIC>MOL_PROPERTY
W(SA)
SciTegic.value.DoubleValue
2.134

@<SCITEGIC>MOL_PROPERTY
Valence
SciTegic.value.DoubleValue
16.583

@<SCITEGIC>MOL_PROPERTY
Coulomb
SciTegic.value.DoubleValue
-8.361

@<SCITEGIC>MOL_PROPERTY
VdW
SciTegic.value.DoubleValue
2.928

@<SCITEGIC>MOL_PROPERTY
VdW6
SciTegic.value.DoubleValue
-12.539

@<SCITEGIC>MOL_PROPERTY
VdW12
SciTegic.value.DoubleValue
15.467

@<SCITEGIC>MOL_PROPERTY
Bond
SciTegic.value.DoubleValue
0.441

@<SCITEGIC>MOL_PROPERTY
Angle
SciTegic.value.DoubleValue
5.093

@<SCITEGIC>MOL_PROPERTY
Pdih
SciTegic.value.DoubleValue
11.049

@<SCITEGIC>MOL_PROPERTY
Idih
SciTegic.value.DoubleValue
0.000

@<SCITEGIC>MOL_PROPERTY
Tether
SciTegic.value.DoubleValue
0.000

@<TRIPOS>MOLECULE
guest-s17_confgen4.mol2 : confsearch ligand conformer 277
          25          25           1
SMALL
USER_CHARGES
 
@<TRIPOS>ATOM
       1    C1      18.438460   20.084876   23.055728 C.3        1 MOL1        -0.1684
       2    H1      18.121157   20.271320   24.090651 H          1 MOL1         0.0833
       3    H2      17.619482   20.454781   22.423775 H          1 MOL1         0.0833
       4    C2      18.548747   18.557340   22.821876 C.3        1 MOL1        -0.1684
       5    H3      17.551571   18.128990   22.992058 H          1 MOL1         0.0833
       6    H4      18.762310   18.347349   21.767601 H          1 MOL1         0.0833
       7    C3      19.538240   17.795957   23.739191 C.3        1 MOL1        -0.1684
       8    H5      19.419042   16.723015   23.535136 H          1 MOL1         0.0833
       9    H6      19.241228   17.934387   24.787579 H          1 MOL1         0.0833
      10    C4      21.042734   18.142492   23.591936 C.3        1 MOL1        -0.1760
      11    H7      21.278694   19.048993   24.158608 H          1 MOL1         0.0833
      12    H8      21.605132   17.345629   24.097242 H          1 MOL1         0.0833
      13    C5      21.545685   18.275629   22.131153 C.3        1 MOL1         0.1219
      14    H9      20.852541   17.760711   21.452713 H          1 MOL1         0.0790
      15    C6      21.735925   19.737461   21.653917 C.3        1 MOL1        -0.1760
      16    H10     22.404599   20.264229   22.347174 H          1 MOL1         0.0833
      17    H11     22.266410   19.708024   20.692691 H          1 MOL1         0.0833
      18    C7      20.448581   20.580819   21.447731 C.3        1 MOL1        -0.1684
      19    H12     19.778509   20.098452   20.724462 H          1 MOL1         0.0833
      20    H13     20.754818   21.521976   20.970858 H          1 MOL1         0.0833
      21    C8      19.693410   20.943732   22.752551 C.3        1 MOL1        -0.1684
      22    H14     19.358508   21.987172   22.674290 H          1 MOL1         0.0833
      23    H15     20.378825   20.941342   23.607537 H          1 MOL1         0.0833
      24    O1      22.810550   17.632733   22.036463 O.3        1 MOL1        -0.5508
      25    H16     23.410210   18.111002   22.645239 H          1 MOL1         0.3780
@<TRIPOS>BOND
    1     1     2    1
    2     1     3    1
    3     1     4    1
    4     4     5    1
    5     4     6    1
    6     4     7    1
    7     7     8    1
    8     7     9    1
    9     7    10    1
   10    10    11    1
   11    10    12    1
   12    10    13    1
   13    13    14    1
   14    13    15    1
   15    15    16    1
   16    15    17    1
   17    15    18    1
   18    18    19    1
   19    18    20    1
   20     1    21    1
   21    18    21    1
   22    21    22    1
   23    21    23    1
   24    13    24    1
   25    24    25    1
@<TRIPOS>SUBSTRUCTURE
       1 MOL1            1 RESIDUE      1      MOL     
@<SCITEGIC>MOL_PROPERTY
VConf Rank
SciTegic.value.IntegerValue
277

@<SCITEGIC>MOL_PROPERTY
Conf_Id
SciTegic.value.IntegerValue
140

@<SCITEGIC>MOL_PROPERTY
Delta U+W
SciTegic.value.DoubleValue
-1.702

@<SCITEGIC>MOL_PROPERTY
U+W
SciTegic.value.DoubleValue
9.211

@<SCITEGIC>MOL_PROPERTY
Grad RMS
SciTegic.value.DoubleValue
0.000000

@<SCITEGIC>MOL_PROPERTY
U
SciTegic.value.DoubleValue
11.181

@<SCITEGIC>MOL_PROPERTY
W
SciTegic.value.DoubleValue
-1.969

@<SCITEGIC>MOL_PROPERTY
W(PB)
SciTegic.value.DoubleValue
-4.093

@<SCITEGIC>MOL_PROPERTY
W(SA)
SciTegic.value.DoubleValue
2.124

@<SCITEGIC>MOL_PROPERTY
Valence
SciTegic.value.DoubleValue
16.954

@<SCITEGIC>MOL_PROPERTY
Coulomb
SciTegic.value.DoubleValue
-8.661

@<SCITEGIC>MOL_PROPERTY
VdW
SciTegic.value.DoubleValue
2.887

@<SCITEGIC>MOL_PROPERTY
VdW6
SciTegic.value.DoubleValue
-12.561

@<SCITEGIC>MOL_PROPERTY
VdW12
SciTegic.value.DoubleValue
15.448

@<SCITEGIC>MOL_PROPERTY
Bond
SciTegic.value.DoubleValue
0.433

@<SCITEGIC>MOL_PROPERTY
Angle
SciTegic.value.DoubleValue
5.120

@<SCITEGIC>MOL_PROPERTY
Pdih
SciTegic.value.DoubleValue
11.401

@<SCITEGIC>MOL_PROPERTY
Idih
SciTegic.value.DoubleValue
0.000

@<SCITEGIC>MOL_PROPERTY
Tether
SciTegic.value.DoubleValue
0.000

@<TRIPOS>MOLECULE
guest-s17_confgen4.mol2 : confsearch ligand conformer 278
          25          25           1
SMALL
USER_CHARGES
 
@<TRIPOS>ATOM
       1    C1      21.605232   20.363659   23.693800 C.3        1 MOL1        -0.1684
       2    H1      21.596606   20.385418   24.791962 H          1 MOL1         0.0833
       3    H2      22.398307   21.060593   23.390097 H          1 MOL1         0.0833
       4    C2      20.257934   20.924421   23.169602 C.3        1 MOL1        -0.1684
       5    H3      19.423770   20.556621   23.777628 H          1 MOL1         0.0833
       6    H4      20.268714   22.008381   23.348392 H          1 MOL1         0.0833
       7    C3      19.979876   20.687300   21.662616 C.3        1 MOL1        -0.1684
       8    H5      20.915907   20.565303   21.102476 H          1 MOL1         0.0833
       9    H6      19.524279   21.603566   21.262799 H          1 MOL1         0.0833
      10    C4      18.999041   19.522976   21.357120 C.3        1 MOL1        -0.1760
      11    H7      18.057924   19.693870   21.895923 H          1 MOL1         0.0833
      12    H8      18.745781   19.578705   20.289885 H          1 MOL1         0.0833
      13    C5      19.505614   18.087425   21.646026 C.3        1 MOL1         0.1219
      14    H9      20.462239   17.930514   21.130157 H          1 MOL1         0.0790
      15    C6      19.664565   17.758993   23.153155 C.3        1 MOL1        -0.1760
      16    H10     19.037417   18.424762   23.754798 H          1 MOL1         0.0833
      17    H11     19.267928   16.753407   23.348326 H          1 MOL1         0.0833
      18    C7      21.123483   17.778414   23.678942 C.3        1 MOL1        -0.1684
      19    H12     21.607583   16.844728   23.361250 H          1 MOL1         0.0833
      20    H13     21.107471   17.746848   24.776779 H          1 MOL1         0.0833
      21    C8      22.022597   18.951106   23.213477 C.3        1 MOL1        -0.1684
      22    H14     22.138733   18.937681   22.123736 H          1 MOL1         0.0833
      23    H15     23.032716   18.760609   23.601001 H          1 MOL1         0.0833
      24    O1      18.555868   17.185328   21.092524 O.3        1 MOL1        -0.5508
      25    H16     17.713157   17.346987   21.564378 H          1 MOL1         0.3780
@<TRIPOS>BOND
    1     1     2    1
    2     1     3    1
    3     1     4    1
    4     4     5    1
    5     4     6    1
    6     4     7    1
    7     7     8    1
    8     7     9    1
    9     7    10    1
   10    10    11    1
   11    10    12    1
   12    10    13    1
   13    13    14    1
   14    13    15    1
   15    15    16    1
   16    15    17    1
   17    15    18    1
   18    18    19    1
   19    18    20    1
   20     1    21    1
   21    18    21    1
   22    21    22    1
   23    21    23    1
   24    13    24    1
   25    24    25    1
@<TRIPOS>SUBSTRUCTURE
       1 MOL1            1 RESIDUE      1      MOL     
@<SCITEGIC>MOL_PROPERTY
VConf Rank
SciTegic.value.IntegerValue
278

@<SCITEGIC>MOL_PROPERTY
Conf_Id
SciTegic.value.IntegerValue
68

@<SCITEGIC>MOL_PROPERTY
Delta U+W
SciTegic.value.DoubleValue
-1.765

@<SCITEGIC>MOL_PROPERTY
U+W
SciTegic.value.DoubleValue
9.148

@<SCITEGIC>MOL_PROPERTY
Grad RMS
SciTegic.value.DoubleValue
0.000000

@<SCITEGIC>MOL_PROPERTY
U
SciTegic.value.DoubleValue
11.181

@<SCITEGIC>MOL_PROPERTY
W
SciTegic.value.DoubleValue
-2.032

@<SCITEGIC>MOL_PROPERTY
W(PB)
SciTegic.value.DoubleValue
-4.147

@<SCITEGIC>MOL_PROPERTY
W(SA)
SciTegic.value.DoubleValue
2.114

@<SCITEGIC>MOL_PROPERTY
Valence
SciTegic.value.DoubleValue
16.955

@<SCITEGIC>MOL_PROPERTY
Coulomb
SciTegic.value.DoubleValue
-8.661

@<SCITEGIC>MOL_PROPERTY
VdW
SciTegic.value.DoubleValue
2.887

@<SCITEGIC>MOL_PROPERTY
VdW6
SciTegic.value.DoubleValue
-12.561

@<SCITEGIC>MOL_PROPERTY
VdW12
SciTegic.value.DoubleValue
15.448

@<SCITEGIC>MOL_PROPERTY
Bond
SciTegic.value.DoubleValue
0.433

@<SCITEGIC>MOL_PROPERTY
Angle
SciTegic.value.DoubleValue
5.121

@<SCITEGIC>MOL_PROPERTY
Pdih
SciTegic.value.DoubleValue
11.402

@<SCITEGIC>MOL_PROPERTY
Idih
SciTegic.value.DoubleValue
0.000

@<SCITEGIC>MOL_PROPERTY
Tether
SciTegic.value.DoubleValue
0.000

@<TRIPOS>MOLECULE
guest-s17_confgen4.mol2 : confsearch ligand conformer 279
          25          25           1
SMALL
USER_CHARGES
 
@<TRIPOS>ATOM
       1    C1      21.269550   17.932393   21.741687 C.3        1 MOL1        -0.1684
       2    H1      21.773919   17.128167   21.188595 H          1 MOL1         0.0833
       3    H2      22.086563   18.495221   22.207098 H          1 MOL1         0.0833
       4    C2      20.370099   17.280877   22.824192 C.3        1 MOL1        -0.1684
       5    H3      19.339608   17.164440   22.464824 H          1 MOL1         0.0833
       6    H4      20.734446   16.256693   22.983303 H          1 MOL1         0.0833
       7    C3      20.395121   17.989226   24.204126 C.3        1 MOL1        -0.1684
       8    H5      21.431556   18.050564   24.563450 H          1 MOL1         0.0833
       9    H6      19.872978   17.341194   24.921240 H          1 MOL1         0.0833
      10    C4      19.743111   19.395674   24.277214 C.3        1 MOL1        -0.1760
      11    H7      18.697430   19.348927   23.950222 H          1 MOL1         0.0833
      12    H8      19.700796   19.669492   25.340156 H          1 MOL1         0.0833
      13    C5      20.514181   20.502288   23.511875 C.3        1 MOL1         0.1219
      14    H9      21.547436   20.172855   23.352495 H          1 MOL1         0.0790
      15    C6      19.893250   20.902906   22.150995 C.3        1 MOL1        -0.1760
      16    H10     19.025706   21.548702   22.340446 H          1 MOL1         0.0833
      17    H11     20.617905   21.524537   21.609207 H          1 MOL1         0.0833
      18    C7      19.420968   19.754397   21.222588 C.3        1 MOL1        -0.1684
      19    H12     18.943682   20.216508   20.347732 H          1 MOL1         0.0833
      20    H13     18.620998   19.178396   21.701732 H          1 MOL1         0.0833
      21    C8      20.526933   18.805357   20.696942 C.3        1 MOL1        -0.1684
      22    H14     21.265496   19.387255   20.129046 H          1 MOL1         0.0833
      23    H15     20.059162   18.129228   19.968219 H          1 MOL1         0.0833
      24    O1      20.554998   21.669652   24.323220 O.3        1 MOL1        -0.5508
      25    H16     19.624705   21.938187   24.469275 H          1 MOL1         0.3780
@<TRIPOS>BOND
    1     1     2    1
    2     1     3    1
    3     1     4    1
    4     4     5    1
    5     4     6    1
    6     4     7    1
    7     7     8    1
    8     7     9    1
    9     7    10    1
   10    10    11    1
   11    10    12    1
   12    10    13    1
   13    13    14    1
   14    13    15    1
   15    15    16    1
   16    15    17    1
   17    15    18    1
   18    18    19    1
   19    18    20    1
   20     1    21    1
   21    18    21    1
   22    21    22    1
   23    21    23    1
   24    13    24    1
   25    24    25    1
@<TRIPOS>SUBSTRUCTURE
       1 MOL1            1 RESIDUE      1      MOL     
@<SCITEGIC>MOL_PROPERTY
VConf Rank
SciTegic.value.IntegerValue
279

@<SCITEGIC>MOL_PROPERTY
Conf_Id
SciTegic.value.IntegerValue
165

@<SCITEGIC>MOL_PROPERTY
Delta U+W
SciTegic.value.DoubleValue
-1.999

@<SCITEGIC>MOL_PROPERTY
U+W
SciTegic.value.DoubleValue
8.915

@<SCITEGIC>MOL_PROPERTY
Grad RMS
SciTegic.value.DoubleValue
0.000000

@<SCITEGIC>MOL_PROPERTY
U
SciTegic.value.DoubleValue
10.935

@<SCITEGIC>MOL_PROPERTY
W
SciTegic.value.DoubleValue
-2.020

@<SCITEGIC>MOL_PROPERTY
W(PB)
SciTegic.value.DoubleValue
-4.135

@<SCITEGIC>MOL_PROPERTY
W(SA)
SciTegic.value.DoubleValue
2.115

@<SCITEGIC>MOL_PROPERTY
Valence
SciTegic.value.DoubleValue
16.757

@<SCITEGIC>MOL_PROPERTY
Coulomb
SciTegic.value.DoubleValue
-8.731

@<SCITEGIC>MOL_PROPERTY
VdW
SciTegic.value.DoubleValue
2.908

@<SCITEGIC>MOL_PROPERTY
VdW6
SciTegic.value.DoubleValue
-12.597

@<SCITEGIC>MOL_PROPERTY
VdW12
SciTegic.value.DoubleValue
15.506

@<SCITEGIC>MOL_PROPERTY
Bond
SciTegic.value.DoubleValue
0.434

@<SCITEGIC>MOL_PROPERTY
Angle
SciTegic.value.DoubleValue
5.069

@<SCITEGIC>MOL_PROPERTY
Pdih
SciTegic.value.DoubleValue
11.254

@<SCITEGIC>MOL_PROPERTY
Idih
SciTegic.value.DoubleValue
0.000

@<SCITEGIC>MOL_PROPERTY
Tether
SciTegic.value.DoubleValue
0.000

@<TRIPOS>MOLECULE
guest-s17_confgen4.mol2 : confsearch ligand conformer 280
          25          25           1
SMALL
USER_CHARGES
 
@<TRIPOS>ATOM
       1    C1      21.323670   18.892085   24.160599 C.3        1 MOL1        -0.1684
       2    H1      21.993814   18.684226   25.006050 H          1 MOL1         0.0833
       3    H2      20.521449   19.500031   24.593778 H          1 MOL1         0.0833
       4    C2      20.774939   17.526829   23.670270 C.3        1 MOL1        -0.1684
       5    H3      21.607753   16.810320   23.676771 H          1 MOL1         0.0833
       6    H4      20.052824   17.147614   24.406011 H          1 MOL1         0.0833
       7    C3      20.139463   17.482839   22.257976 C.3        1 MOL1        -0.1684
       8    H5      19.898679   16.433483   22.039860 H          1 MOL1         0.0833
       9    H6      20.879543   17.759963   21.498519 H          1 MOL1         0.0833
      10    C4      18.837418   18.303600   22.070722 C.3        1 MOL1        -0.1760
      11    H7      18.454020   18.086733   21.064496 H          1 MOL1         0.0833
      12    H8      18.079049   17.929903   22.770681 H          1 MOL1         0.0833
      13    C5      18.942016   19.840567   22.227408 C.3        1 MOL1         0.1219
      14    H9      18.981480   20.093630   23.293363 H          1 MOL1         0.0790
      15    C6      20.159331   20.481726   21.512395 C.3        1 MOL1        -0.1760
      16    H10     20.519287   19.837813   20.701268 H          1 MOL1         0.0833
      17    H11     19.824994   21.403856   21.018000 H          1 MOL1         0.0833
      18    C7      21.328412   20.873309   22.455211 C.3        1 MOL1        -0.1684
      19    H12     20.952170   21.542788   23.240848 H          1 MOL1         0.0833
      20    H13     22.040316   21.473942   21.872797 H          1 MOL1         0.0833
      21    C8      22.117718   19.707541   23.107016 C.3        1 MOL1        -0.1684
      22    H14     22.982785   20.152562   23.617532 H          1 MOL1         0.0833
      23    H15     22.546420   19.050606   22.339384 H          1 MOL1         0.0833
      24    O1      17.752194   20.405610   21.688368 O.3        1 MOL1        -0.5508
      25    H16     17.003795   20.017015   22.187698 H          1 MOL1         0.3780
@<TRIPOS>BOND
    1     1     2    1
    2     1     3    1
    3     1     4    1
    4     4     5    1
    5     4     6    1
    6     4     7    1
    7     7     8    1
    8     7     9    1
    9     7    10    1
   10    10    11    1
   11    10    12    1
   12    10    13    1
   13    13    14    1
   14    13    15    1
   15    15    16    1
   16    15    17    1
   17    15    18    1
   18    18    19    1
   19    18    20    1
   20     1    21    1
   21    18    21    1
   22    21    22    1
   23    21    23    1
   24    13    24    1
   25    24    25    1
@<TRIPOS>SUBSTRUCTURE
       1 MOL1            1 RESIDUE      1      MOL     
@<SCITEGIC>MOL_PROPERTY
VConf Rank
SciTegic.value.IntegerValue
280

@<SCITEGIC>MOL_PROPERTY
Conf_Id
SciTegic.value.IntegerValue
133

@<SCITEGIC>MOL_PROPERTY
Delta U+W
SciTegic.value.DoubleValue
-2.139

@<SCITEGIC>MOL_PROPERTY
U+W
SciTegic.value.DoubleValue
8.774

@<SCITEGIC>MOL_PROPERTY
Grad RMS
SciTegic.value.DoubleValue
0.000000

@<SCITEGIC>MOL_PROPERTY
U
SciTegic.value.DoubleValue
10.905

@<SCITEGIC>MOL_PROPERTY
W
SciTegic.value.DoubleValue
-2.131

@<SCITEGIC>MOL_PROPERTY
W(PB)
SciTegic.value.DoubleValue
-4.281

@<SCITEGIC>MOL_PROPERTY
W(SA)
SciTegic.value.DoubleValue
2.150

@<SCITEGIC>MOL_PROPERTY
Valence
SciTegic.value.DoubleValue
16.378

@<SCITEGIC>MOL_PROPERTY
Coulomb
SciTegic.value.DoubleValue
-8.448

@<SCITEGIC>MOL_PROPERTY
VdW
SciTegic.value.DoubleValue
2.976

@<SCITEGIC>MOL_PROPERTY
VdW6
SciTegic.value.DoubleValue
-12.570

@<SCITEGIC>MOL_PROPERTY
VdW12
SciTegic.value.DoubleValue
15.545

@<SCITEGIC>MOL_PROPERTY
Bond
SciTegic.value.DoubleValue
0.439

@<SCITEGIC>MOL_PROPERTY
Angle
SciTegic.value.DoubleValue
5.049

@<SCITEGIC>MOL_PROPERTY
Pdih
SciTegic.value.DoubleValue
10.889

@<SCITEGIC>MOL_PROPERTY
Idih
SciTegic.value.DoubleValue
0.000

@<SCITEGIC>MOL_PROPERTY
Tether
SciTegic.value.DoubleValue
0.000

@<TRIPOS>MOLECULE
guest-s17_confgen4.mol2 : confsearch ligand conformer 281
          25          25           1
SMALL
USER_CHARGES
 
@<TRIPOS>ATOM
       1    C1      20.503395   18.180800   21.173449 C.3        1 MOL1        -0.1684
       2    H1      20.719310   17.543646   20.304828 H          1 MOL1         0.0833
       3    H2      19.465308   18.498791   21.024927 H          1 MOL1         0.0833
       4    C2      21.459836   19.400772   21.124317 C.3        1 MOL1        -0.1684
       5    H3      22.355426   19.226068   21.734239 H          1 MOL1         0.0833
       6    H4      21.829244   19.489265   20.093435 H          1 MOL1         0.0833
       7    C3      20.803145   20.758627   21.487440 C.3        1 MOL1        -0.1684
       8    H5      19.939863   20.933098   20.830712 H          1 MOL1         0.0833
       9    H6      21.522484   21.552735   21.245121 H          1 MOL1         0.0833
      10    C4      20.369551   20.949650   22.965444 C.3        1 MOL1        -0.1760
      11    H7      21.224612   20.810763   23.637531 H          1 MOL1         0.0833
      12    H8      20.083878   22.003971   23.080899 H          1 MOL1         0.0833
      13    C5      19.172794   20.067209   23.405047 C.3        1 MOL1         0.1219
      14    H9      18.634030   19.727884   22.512607 H          1 MOL1         0.0790
      15    C6      19.558230   18.839704   24.266684 C.3        1 MOL1        -0.1760
      16    H10     19.770112   19.189236   25.286218 H          1 MOL1         0.0833
      17    H11     18.685094   18.179635   24.348288 H          1 MOL1         0.0833
      18    C7      20.777129   18.002436   23.800537 C.3        1 MOL1        -0.1684
      19    H12     20.950657   17.227213   24.559232 H          1 MOL1         0.0833
      20    H13     21.688222   18.611535   23.814689 H          1 MOL1         0.0833
      21    C8      20.629191   17.286674   22.434469 C.3        1 MOL1        -0.1684
      22    H14     19.770921   16.602264   22.473511 H          1 MOL1         0.0833
      23    H15     21.512305   16.646446   22.303228 H          1 MOL1         0.0833
      24    O1      18.281640   20.865635   24.175678 O.3        1 MOL1        -0.5508
      25    H16     17.515993   20.296858   24.400877 H          1 MOL1         0.3780
@<TRIPOS>BOND
    1     1     2    1
    2     1     3    1
    3     1     4    1
    4     4     5    1
    5     4     6    1
    6     4     7    1
    7     7     8    1
    8     7     9    1
    9     7    10    1
   10    10    11    1
   11    10    12    1
   12    10    13    1
   13    13    14    1
   14    13    15    1
   15    15    16    1
   16    15    17    1
   17    15    18    1
   18    18    19    1
   19    18    20    1
   20     1    21    1
   21    18    21    1
   22    21    22    1
   23    21    23    1
   24    13    24    1
   25    24    25    1
@<TRIPOS>SUBSTRUCTURE
       1 MOL1            1 RESIDUE      1      MOL     
@<SCITEGIC>MOL_PROPERTY
VConf Rank
SciTegic.value.IntegerValue
281

@<SCITEGIC>MOL_PROPERTY
Conf_Id
SciTegic.value.IntegerValue
95

@<SCITEGIC>MOL_PROPERTY
Delta U+W
SciTegic.value.DoubleValue
-2.190

@<SCITEGIC>MOL_PROPERTY
U+W
SciTegic.value.DoubleValue
8.723

@<SCITEGIC>MOL_PROPERTY
Grad RMS
SciTegic.value.DoubleValue
0.000000

@<SCITEGIC>MOL_PROPERTY
U
SciTegic.value.DoubleValue
10.905

@<SCITEGIC>MOL_PROPERTY
W
SciTegic.value.DoubleValue
-2.182

@<SCITEGIC>MOL_PROPERTY
W(PB)
SciTegic.value.DoubleValue
-4.296

@<SCITEGIC>MOL_PROPERTY
W(SA)
SciTegic.value.DoubleValue
2.114

@<SCITEGIC>MOL_PROPERTY
Valence
SciTegic.value.DoubleValue
16.377

@<SCITEGIC>MOL_PROPERTY
Coulomb
SciTegic.value.DoubleValue
-8.448

@<SCITEGIC>MOL_PROPERTY
VdW
SciTegic.value.DoubleValue
2.976

@<SCITEGIC>MOL_PROPERTY
VdW6
SciTegic.value.DoubleValue
-12.570

@<SCITEGIC>MOL_PROPERTY
VdW12
SciTegic.value.DoubleValue
15.546

@<SCITEGIC>MOL_PROPERTY
Bond
SciTegic.value.DoubleValue
0.439

@<SCITEGIC>MOL_PROPERTY
Angle
SciTegic.value.DoubleValue
5.049

@<SCITEGIC>MOL_PROPERTY
Pdih
SciTegic.value.DoubleValue
10.889

@<SCITEGIC>MOL_PROPERTY
Idih
SciTegic.value.DoubleValue
0.000

@<SCITEGIC>MOL_PROPERTY
Tether
SciTegic.value.DoubleValue
0.000

@<TRIPOS>MOLECULE
guest-s17_confgen4.mol2 : confsearch ligand conformer 282
          25          25           1
SMALL
USER_CHARGES
 
@<TRIPOS>ATOM
       1    C1      20.915981   20.885951   22.775765 C.3        1 MOL1        -0.1684
       2    H1      21.177664   21.948461   22.873210 H          1 MOL1         0.0833
       3    H2      21.742265   20.473873   22.187820 H          1 MOL1         0.0833
       4    C2      19.578488   20.817537   21.981630 C.3        1 MOL1        -0.1684
       5    H3      18.978837   21.690446   22.273842 H          1 MOL1         0.0833
       6    H4      19.791251   20.954339   20.912757 H          1 MOL1         0.0833
       7    C3      18.677530   19.568670   22.168985 C.3        1 MOL1        -0.1684
       8    H5      17.737681   19.753061   21.630931 H          1 MOL1         0.0833
       9    H6      18.364292   19.502713   23.215675 H          1 MOL1         0.0833
      10    C4      19.232353   18.201805   21.668614 C.3        1 MOL1        -0.1760
      11    H7      18.690780   17.392228   22.175227 H          1 MOL1         0.0833
      12    H8      18.967361   18.117090   20.606603 H          1 MOL1         0.0833
      13    C5      20.755753   17.941755   21.784020 C.3        1 MOL1         0.1219
      14    H9      21.277407   18.732505   21.235013 H          1 MOL1         0.0790
      15    C6      21.344868   17.829549   23.219619 C.3        1 MOL1        -0.1760
      16    H10     21.228733   16.789237   23.552152 H          1 MOL1         0.0833
      17    H11     22.427156   18.001740   23.162245 H          1 MOL1         0.0833
      18    C7      20.749972   18.728802   24.336964 C.3        1 MOL1        -0.1684
      19    H12     21.215690   18.430323   25.286032 H          1 MOL1         0.0833
      20    H13     19.694373   18.477140   24.479962 H          1 MOL1         0.0833
      21    C8      20.938630   20.267895   24.198731 C.3        1 MOL1        -0.1684
      22    H14     21.911454   20.520800   24.642037 H          1 MOL1         0.0833
      23    H15     20.191757   20.774815   24.824556 H          1 MOL1         0.0833
      24    O1      21.029076   16.714504   21.117866 O.3        1 MOL1        -0.5508
      25    H16     20.713728   16.816707   20.195821 H          1 MOL1         0.3780
@<TRIPOS>BOND
    1     1     2    1
    2     1     3    1
    3     1     4    1
    4     4     5    1
    5     4     6    1
    6     4     7    1
    7     7     8    1
    8     7     9    1
    9     7    10    1
   10    10    11    1
   11    10    12    1
   12    10    13    1
   13    13    14    1
   14    13    15    1
   15    15    16    1
   16    15    17    1
   17    15    18    1
   18    18    19    1
   19    18    20    1
   20     1    21    1
   21    18    21    1
   22    21    22    1
   23    21    23    1
   24    13    24    1
   25    24    25    1
@<TRIPOS>SUBSTRUCTURE
       1 MOL1            1 RESIDUE      1      MOL     
@<SCITEGIC>MOL_PROPERTY
VConf Rank
SciTegic.value.IntegerValue
282

@<SCITEGIC>MOL_PROPERTY
Conf_Id
SciTegic.value.IntegerValue
161

@<SCITEGIC>MOL_PROPERTY
Delta U+W
SciTegic.value.DoubleValue
2.120

@<SCITEGIC>MOL_PROPERTY
U+W
SciTegic.value.DoubleValue
13.033

@<SCITEGIC>MOL_PROPERTY
Grad RMS
SciTegic.value.DoubleValue
0.000000

@<SCITEGIC>MOL_PROPERTY
U
SciTegic.value.DoubleValue
15.076

@<SCITEGIC>MOL_PROPERTY
W
SciTegic.value.DoubleValue
-2.043

@<SCITEGIC>MOL_PROPERTY
W(PB)
SciTegic.value.DoubleValue
-4.186

@<SCITEGIC>MOL_PROPERTY
W(SA)
SciTegic.value.DoubleValue
2.143

@<SCITEGIC>MOL_PROPERTY
Valence
SciTegic.value.DoubleValue
18.884

@<SCITEGIC>MOL_PROPERTY
Coulomb
SciTegic.value.DoubleValue
-8.074

@<SCITEGIC>MOL_PROPERTY
VdW
SciTegic.value.DoubleValue
4.266

@<SCITEGIC>MOL_PROPERTY
VdW6
SciTegic.value.DoubleValue
-13.486

@<SCITEGIC>MOL_PROPERTY
VdW12
SciTegic.value.DoubleValue
17.752

@<SCITEGIC>MOL_PROPERTY
Bond
SciTegic.value.DoubleValue
0.713

@<SCITEGIC>MOL_PROPERTY
Angle
SciTegic.value.DoubleValue
8.955

@<SCITEGIC>MOL_PROPERTY
Pdih
SciTegic.value.DoubleValue
9.215

@<SCITEGIC>MOL_PROPERTY
Idih
SciTegic.value.DoubleValue
0.000

@<SCITEGIC>MOL_PROPERTY
Tether
SciTegic.value.DoubleValue
0.000

@<TRIPOS>MOLECULE
guest-s17_confgen4.mol2 : confsearch ligand conformer 283
          25          25           1
SMALL
USER_CHARGES
 
@<TRIPOS>ATOM
       1    C1      19.585521   20.992159   23.060887 C.3        1 MOL1        -0.1684
       2    H1      18.950100   21.873673   23.222630 H          1 MOL1         0.0833
       3    H2      20.612795   21.373445   23.120583 H          1 MOL1         0.0833
       4    C2      19.303473   20.454090   21.635893 C.3        1 MOL1        -0.1684
       5    H3      18.450213   19.762640   21.641516 H          1 MOL1         0.0833
       6    H4      18.978213   21.311440   21.030642 H          1 MOL1         0.0833
       7    C3      20.527958   19.830194   20.910139 C.3        1 MOL1        -0.1684
       8    H5      21.448865   20.382820   21.139968 H          1 MOL1         0.0833
       9    H6      20.364920   19.973277   19.833038 H          1 MOL1         0.0833
      10    C4      20.727322   18.309014   21.135391 C.3        1 MOL1        -0.1760
      11    H7      19.752266   17.816049   21.231406 H          1 MOL1         0.0833
      12    H8      21.166537   17.891145   20.219907 H          1 MOL1         0.0833
      13    C5      21.668915   17.906379   22.298627 C.3        1 MOL1         0.1219
      14    H9      22.695750   18.171725   22.008841 H          1 MOL1         0.0790
      15    C6      21.389757   18.564988   23.669462 C.3        1 MOL1        -0.1760
      16    H10     21.967109   18.027372   24.433476 H          1 MOL1         0.0833
      17    H11     21.810940   19.576109   23.670829 H          1 MOL1         0.0833
      18    C7      19.896632   18.586003   24.092979 C.3        1 MOL1        -0.1684
      19    H12     19.797528   18.080985   25.063476 H          1 MOL1         0.0833
      20    H13     19.280061   17.996746   23.404709 H          1 MOL1         0.0833
      21    C8      19.299340   20.007409   24.225374 C.3        1 MOL1        -0.1684
      22    H14     19.669737   20.460492   25.155069 H          1 MOL1         0.0833
      23    H15     18.212149   19.913243   24.351587 H          1 MOL1         0.0833
      24    O1      21.588791   16.497113   22.459614 O.3        1 MOL1        -0.5508
      25    H16     20.708051   16.321546   22.848564 H          1 MOL1         0.3780
@<TRIPOS>BOND
    1     1     2    1
    2     1     3    1
    3     1     4    1
    4     4     5    1
    5     4     6    1
    6     4     7    1
    7     7     8    1
    8     7     9    1
    9     7    10    1
   10    10    11    1
   11    10    12    1
   12    10    13    1
   13    13    14    1
   14    13    15    1
   15    15    16    1
   16    15    17    1
   17    15    18    1
   18    18    19    1
   19    18    20    1
   20     1    21    1
   21    18    21    1
   22    21    22    1
   23    21    23    1
   24    13    24    1
   25    24    25    1
@<TRIPOS>SUBSTRUCTURE
       1 MOL1            1 RESIDUE      1      MOL     
@<SCITEGIC>MOL_PROPERTY
VConf Rank
SciTegic.value.IntegerValue
283

@<SCITEGIC>MOL_PROPERTY
Conf_Id
SciTegic.value.IntegerValue
164

@<SCITEGIC>MOL_PROPERTY
Delta U+W
SciTegic.value.DoubleValue
0.008

@<SCITEGIC>MOL_PROPERTY
U+W
SciTegic.value.DoubleValue
10.922

@<SCITEGIC>MOL_PROPERTY
Grad RMS
SciTegic.value.DoubleValue
0.000000

@<SCITEGIC>MOL_PROPERTY
U
SciTegic.value.DoubleValue
12.433

@<SCITEGIC>MOL_PROPERTY
W
SciTegic.value.DoubleValue
-1.511

@<SCITEGIC>MOL_PROPERTY
W(PB)
SciTegic.value.DoubleValue
-3.669

@<SCITEGIC>MOL_PROPERTY
W(SA)
SciTegic.value.DoubleValue
2.157

@<SCITEGIC>MOL_PROPERTY
Valence
SciTegic.value.DoubleValue
19.007

@<SCITEGIC>MOL_PROPERTY
Coulomb
SciTegic.value.DoubleValue
-9.373

@<SCITEGIC>MOL_PROPERTY
VdW
SciTegic.value.DoubleValue
2.799

@<SCITEGIC>MOL_PROPERTY
VdW6
SciTegic.value.DoubleValue
-12.597

@<SCITEGIC>MOL_PROPERTY
VdW12
SciTegic.value.DoubleValue
15.396

@<SCITEGIC>MOL_PROPERTY
Bond
SciTegic.value.DoubleValue
0.425

@<SCITEGIC>MOL_PROPERTY
Angle
SciTegic.value.DoubleValue
4.784

@<SCITEGIC>MOL_PROPERTY
Pdih
SciTegic.value.DoubleValue
13.799

@<SCITEGIC>MOL_PROPERTY
Idih
SciTegic.value.DoubleValue
0.000

@<SCITEGIC>MOL_PROPERTY
Tether
SciTegic.value.DoubleValue
0.000

@<TRIPOS>MOLECULE
guest-s17_confgen4.mol2 : confsearch ligand conformer 284
          25          25           1
SMALL
USER_CHARGES
 
@<TRIPOS>ATOM
       1    C1      19.103707   18.183770   21.747115 C.3        1 MOL1        -0.1684
       2    H1      19.734947   18.623245   20.966526 H          1 MOL1         0.0833
       3    H2      18.378408   17.565821   21.200533 H          1 MOL1         0.0833
       4    C2      18.304642   19.288796   22.482051 C.3        1 MOL1        -0.1684
       5    H3      17.681524   19.797015   21.733493 H          1 MOL1         0.0833
       6    H4      17.601991   18.821654   23.185306 H          1 MOL1         0.0833
       7    C3      19.121713   20.371617   23.232155 C.3        1 MOL1        -0.1684
       8    H5      19.412892   20.014262   24.226426 H          1 MOL1         0.0833
       9    H6      18.441436   21.211197   23.430480 H          1 MOL1         0.0833
      10    C4      20.356363   20.918588   22.467146 C.3        1 MOL1        -0.1760
      11    H7      20.234758   20.792829   21.384475 H          1 MOL1         0.0833
      12    H8      20.387343   22.004056   22.631581 H          1 MOL1         0.0833
      13    C5      21.718960   20.350875   22.937789 C.3        1 MOL1         0.1219
      14    H9      21.792501   20.494318   24.025270 H          1 MOL1         0.0790
      15    C6      21.990999   18.857285   22.628499 C.3        1 MOL1        -0.1760
      16    H10     21.923170   18.663731   21.551133 H          1 MOL1         0.0833
      17    H11     23.038614   18.660757   22.893298 H          1 MOL1         0.0833
      18    C7      21.117430   17.854968   23.429137 C.3        1 MOL1        -0.1684
      19    H12     20.762489   18.312389   24.359646 H          1 MOL1         0.0833
      20    H13     21.759829   17.026607   23.757992 H          1 MOL1         0.0833
      21    C8      19.935452   17.232306   22.643016 C.3        1 MOL1        -0.1684
      22    H14     19.266771   16.722325   23.349622 H          1 MOL1         0.0833
      23    H15     20.341498   16.442722   21.996035 H          1 MOL1         0.0833
      24    O1      22.742291   21.113485   22.312955 O.3        1 MOL1        -0.5508
      25    H16     22.648910   20.964189   21.349743 H          1 MOL1         0.3780
@<TRIPOS>BOND
    1     1     2    1
    2     1     3    1
    3     1     4    1
    4     4     5    1
    5     4     6    1
    6     4     7    1
    7     7     8    1
    8     7     9    1
    9     7    10    1
   10    10    11    1
   11    10    12    1
   12    10    13    1
   13    13    14    1
   14    13    15    1
   15    15    16    1
   16    15    17    1
   17    15    18    1
   18    18    19    1
   19    18    20    1
   20     1    21    1
   21    18    21    1
   22    21    22    1
   23    21    23    1
   24    13    24    1
   25    24    25    1
@<TRIPOS>SUBSTRUCTURE
       1 MOL1            1 RESIDUE      1      MOL     
@<SCITEGIC>MOL_PROPERTY
VConf Rank
SciTegic.value.IntegerValue
284

@<SCITEGIC>MOL_PROPERTY
Conf_Id
SciTegic.value.IntegerValue
15

@<SCITEGIC>MOL_PROPERTY
Delta U+W
SciTegic.value.DoubleValue
-1.271

@<SCITEGIC>MOL_PROPERTY
U+W
SciTegic.value.DoubleValue
9.643

@<SCITEGIC>MOL_PROPERTY
Grad RMS
SciTegic.value.DoubleValue
0.000000

@<SCITEGIC>MOL_PROPERTY
U
SciTegic.value.DoubleValue
11.413

@<SCITEGIC>MOL_PROPERTY
W
SciTegic.value.DoubleValue
-1.770

@<SCITEGIC>MOL_PROPERTY
W(PB)
SciTegic.value.DoubleValue
-3.908

@<SCITEGIC>MOL_PROPERTY
W(SA)
SciTegic.value.DoubleValue
2.138

@<SCITEGIC>MOL_PROPERTY
Valence
SciTegic.value.DoubleValue
17.496

@<SCITEGIC>MOL_PROPERTY
Coulomb
SciTegic.value.DoubleValue
-8.736

@<SCITEGIC>MOL_PROPERTY
VdW
SciTegic.value.DoubleValue
2.653

@<SCITEGIC>MOL_PROPERTY
VdW6
SciTegic.value.DoubleValue
-12.485

@<SCITEGIC>MOL_PROPERTY
VdW12
SciTegic.value.DoubleValue
15.138

@<SCITEGIC>MOL_PROPERTY
Bond
SciTegic.value.DoubleValue
0.414

@<SCITEGIC>MOL_PROPERTY
Angle
SciTegic.value.DoubleValue
5.295

@<SCITEGIC>MOL_PROPERTY
Pdih
SciTegic.value.DoubleValue
11.787

@<SCITEGIC>MOL_PROPERTY
Idih
SciTegic.value.DoubleValue
0.000

@<SCITEGIC>MOL_PROPERTY
Tether
SciTegic.value.DoubleValue
0.000

@<TRIPOS>MOLECULE
guest-s17_confgen4.mol2 : confsearch ligand conformer 285
          25          25           1
SMALL
USER_CHARGES
 
@<TRIPOS>ATOM
       1    C1      22.118798   18.763506   23.190112 C.3        1 MOL1        -0.1684
       2    H1      23.087376   18.588460   23.678167 H          1 MOL1         0.0833
       3    H2      22.351928   18.823292   22.119486 H          1 MOL1         0.0833
       4    C2      21.231132   17.526619   23.488412 C.3        1 MOL1        -0.1684
       5    H3      21.668967   16.660681   22.973363 H          1 MOL1         0.0833
       6    H4      21.290287   17.297104   24.561072 H          1 MOL1         0.0833
       7    C3      19.737630   17.633235   23.096726 C.3        1 MOL1        -0.1684
       8    H5      19.201778   18.221507   23.850762 H          1 MOL1         0.0833
       9    H6      19.296450   16.629103   23.158922 H          1 MOL1         0.0833
      10    C4      19.494366   18.197054   21.672513 C.3        1 MOL1        -0.1760
      11    H7      20.435737   18.277858   21.117822 H          1 MOL1         0.0833
      12    H8      18.896344   17.469238   21.108731 H          1 MOL1         0.0833
      13    C5      18.740590   19.546442   21.637280 C.3        1 MOL1         0.1219
      14    H9      17.687242   19.345075   21.879640 H          1 MOL1         0.0790
      15    C6      19.233091   20.641329   22.618678 C.3        1 MOL1        -0.1760
      16    H10     18.714706   21.571017   22.347954 H          1 MOL1         0.0833
      17    H11     18.883778   20.419480   23.634195 H          1 MOL1         0.0833
      18    C7      20.757637   20.931680   22.640995 C.3        1 MOL1        -0.1684
      19    H12     20.873707   21.992967   22.900494 H          1 MOL1         0.0833
      20    H13     21.195649   20.830151   21.639671 H          1 MOL1         0.0833
      21    C8      21.570839   20.123316   23.689342 C.3        1 MOL1        -0.1684
      22    H14     21.003568   19.997311   24.621282 H          1 MOL1         0.0833
      23    H15     22.440752   20.737608   23.959659 H          1 MOL1         0.0833
      24    O1      18.813626   20.060851   20.314988 O.3        1 MOL1        -0.5508
      25    H16     19.748661   20.313663   20.177370 H          1 MOL1         0.3780
@<TRIPOS>BOND
    1     1     2    1
    2     1     3    1
    3     1     4    1
    4     4     5    1
    5     4     6    1
    6     4     7    1
    7     7     8    1
    8     7     9    1
    9     7    10    1
   10    10    11    1
   11    10    12    1
   12    10    13    1
   13    13    14    1
   14    13    15    1
   15    15    16    1
   16    15    17    1
   17    15    18    1
   18    18    19    1
   19    18    20    1
   20     1    21    1
   21    18    21    1
   22    21    22    1
   23    21    23    1
   24    13    24    1
   25    24    25    1
@<TRIPOS>SUBSTRUCTURE
       1 MOL1            1 RESIDUE      1      MOL     
@<SCITEGIC>MOL_PROPERTY
VConf Rank
SciTegic.value.IntegerValue
285

@<SCITEGIC>MOL_PROPERTY
Conf_Id
SciTegic.value.IntegerValue
115

@<SCITEGIC>MOL_PROPERTY
Delta U+W
SciTegic.value.DoubleValue
0.038

@<SCITEGIC>MOL_PROPERTY
U+W
SciTegic.value.DoubleValue
10.952

@<SCITEGIC>MOL_PROPERTY
Grad RMS
SciTegic.value.DoubleValue
0.000000

@<SCITEGIC>MOL_PROPERTY
U
SciTegic.value.DoubleValue
12.526

@<SCITEGIC>MOL_PROPERTY
W
SciTegic.value.DoubleValue
-1.575

@<SCITEGIC>MOL_PROPERTY
W(PB)
SciTegic.value.DoubleValue
-3.698

@<SCITEGIC>MOL_PROPERTY
W(SA)
SciTegic.value.DoubleValue
2.123

@<SCITEGIC>MOL_PROPERTY
Valence
SciTegic.value.DoubleValue
19.016

@<SCITEGIC>MOL_PROPERTY
Coulomb
SciTegic.value.DoubleValue
-9.226

@<SCITEGIC>MOL_PROPERTY
VdW
SciTegic.value.DoubleValue
2.737

@<SCITEGIC>MOL_PROPERTY
VdW6
SciTegic.value.DoubleValue
-12.612

@<SCITEGIC>MOL_PROPERTY
VdW12
SciTegic.value.DoubleValue
15.349

@<SCITEGIC>MOL_PROPERTY
Bond
SciTegic.value.DoubleValue
0.421

@<SCITEGIC>MOL_PROPERTY
Angle
SciTegic.value.DoubleValue
4.883

@<SCITEGIC>MOL_PROPERTY
Pdih
SciTegic.value.DoubleValue
13.711

@<SCITEGIC>MOL_PROPERTY
Idih
SciTegic.value.DoubleValue
0.000

@<SCITEGIC>MOL_PROPERTY
Tether
SciTegic.value.DoubleValue
0.000

@<TRIPOS>MOLECULE
guest-s17_confgen4.mol2 : confsearch ligand conformer 286
          25          25           1
SMALL
USER_CHARGES
 
@<TRIPOS>ATOM
       1    C1      19.932098   18.099685   20.900236 C.3        1 MOL1        -0.1684
       2    H1      19.270844   17.650069   20.146861 H          1 MOL1         0.0833
       3    H2      20.947510   18.010724   20.490968 H          1 MOL1         0.0833
       4    C2      19.803183   17.254940   22.189159 C.3        1 MOL1        -0.1684
       5    H3      18.759188   17.244766   22.530575 H          1 MOL1         0.0833
       6    H4      20.037133   16.214593   21.924689 H          1 MOL1         0.0833
       7    C3      20.739459   17.673920   23.346198 C.3        1 MOL1        -0.1684
       8    H5      21.739423   17.912700   22.960150 H          1 MOL1         0.0833
       9    H6      20.878319   16.795297   23.991103 H          1 MOL1         0.0833
      10    C4      20.184727   18.820414   24.233759 C.3        1 MOL1        -0.1760
      11    H7      19.117467   18.990503   24.044459 H          1 MOL1         0.0833
      12    H8      20.246456   18.485094   25.277938 H          1 MOL1         0.0833
      13    C5      20.960622   20.151656   24.116558 C.3        1 MOL1         0.1219
      14    H9      22.029148   19.930143   23.982939 H          1 MOL1         0.0790
      15    C6      20.491369   21.071904   22.967915 C.3        1 MOL1        -0.1760
      16    H10     19.440972   21.353678   23.119110 H          1 MOL1         0.0833
      17    H11     21.064085   22.006040   23.037177 H          1 MOL1         0.0833
      18    C7      20.691087   20.507016   21.540441 C.3        1 MOL1        -0.1684
      19    H12     21.665942   20.007909   21.459317 H          1 MOL1         0.0833
      20    H13     20.745356   21.363737   20.854647 H          1 MOL1         0.0833
      21    C8      19.542490   19.589529   21.045522 C.3        1 MOL1        -0.1684
      22    H14     19.242501   19.946798   20.050751 H          1 MOL1         0.0833
      23    H15     18.646948   19.692047   21.672676 H          1 MOL1         0.0833
      24    O1      20.792010   20.868034   25.333941 O.3        1 MOL1        -0.5508
      25    H16     21.333505   21.681562   25.261210 H          1 MOL1         0.3780
@<TRIPOS>BOND
    1     1     2    1
    2     1     3    1
    3     1     4    1
    4     4     5    1
    5     4     6    1
    6     4     7    1
    7     7     8    1
    8     7     9    1
    9     7    10    1
   10    10    11    1
   11    10    12    1
   12    10    13    1
   13    13    14    1
   14    13    15    1
   15    15    16    1
   16    15    17    1
   17    15    18    1
   18    18    19    1
   19    18    20    1
   20     1    21    1
   21    18    21    1
   22    21    22    1
   23    21    23    1
   24    13    24    1
   25    24    25    1
@<TRIPOS>SUBSTRUCTURE
       1 MOL1            1 RESIDUE      1      MOL     
@<SCITEGIC>MOL_PROPERTY
VConf Rank
SciTegic.value.IntegerValue
286

@<SCITEGIC>MOL_PROPERTY
Conf_Id
SciTegic.value.IntegerValue
30

@<SCITEGIC>MOL_PROPERTY
Delta U+W
SciTegic.value.DoubleValue
0.000

@<SCITEGIC>MOL_PROPERTY
U+W
SciTegic.value.DoubleValue
10.913

@<SCITEGIC>MOL_PROPERTY
Grad RMS
SciTegic.value.DoubleValue
0.000000

@<SCITEGIC>MOL_PROPERTY
U
SciTegic.value.DoubleValue
13.140

@<SCITEGIC>MOL_PROPERTY
W
SciTegic.value.DoubleValue
-2.227

@<SCITEGIC>MOL_PROPERTY
W(PB)
SciTegic.value.DoubleValue
-4.367

@<SCITEGIC>MOL_PROPERTY
W(SA)
SciTegic.value.DoubleValue
2.140

@<SCITEGIC>MOL_PROPERTY
Valence
SciTegic.value.DoubleValue
19.155

@<SCITEGIC>MOL_PROPERTY
Coulomb
SciTegic.value.DoubleValue
-8.157

@<SCITEGIC>MOL_PROPERTY
VdW
SciTegic.value.DoubleValue
2.142

@<SCITEGIC>MOL_PROPERTY
VdW6
SciTegic.value.DoubleValue
-11.576

@<SCITEGIC>MOL_PROPERTY
VdW12
SciTegic.value.DoubleValue
13.718

@<SCITEGIC>MOL_PROPERTY
Bond
SciTegic.value.DoubleValue
0.294

@<SCITEGIC>MOL_PROPERTY
Angle
SciTegic.value.DoubleValue
3.547

@<SCITEGIC>MOL_PROPERTY
Pdih
SciTegic.value.DoubleValue
15.314

@<SCITEGIC>MOL_PROPERTY
Idih
SciTegic.value.DoubleValue
0.000

@<SCITEGIC>MOL_PROPERTY
Tether
SciTegic.value.DoubleValue
0.000

@<TRIPOS>MOLECULE
guest-s17_confgen4.mol2 : confsearch ligand conformer 287
          25          25           1
SMALL
USER_CHARGES
 
@<TRIPOS>ATOM
       1    C1      19.108117   20.887043   21.973377 C.3        1 MOL1        -0.1684
       2    H1      18.481433   21.041801   21.084460 H          1 MOL1         0.0833
       3    H2      19.090509   21.840624   22.518488 H          1 MOL1         0.0833
       4    C2      20.561325   20.620597   21.509399 C.3        1 MOL1        -0.1684
       5    H3      20.799390   21.339229   20.713306 H          1 MOL1         0.0833
       6    H4      21.257385   20.865170   22.320102 H          1 MOL1         0.0833
       7    C3      20.810158   19.187967   20.973252 C.3        1 MOL1        -0.1684
       8    H5      21.222764   19.258096   19.957612 H          1 MOL1         0.0833
       9    H6      19.866587   18.642764   20.854663 H          1 MOL1         0.0833
      10    C4      21.791659   18.352578   21.833681 C.3        1 MOL1        -0.1760
      11    H7      21.755818   17.311042   21.487738 H          1 MOL1         0.0833
      12    H8      22.812954   18.701702   21.633096 H          1 MOL1         0.0833
      13    C5      21.577662   18.383010   23.367779 C.3        1 MOL1         0.1219
      14    H9      21.865244   19.370223   23.753384 H          1 MOL1         0.0790
      15    C6      20.135778   18.069512   23.836805 C.3        1 MOL1        -0.1760
      16    H10     19.652534   17.369970   23.142782 H          1 MOL1         0.0833
      17    H11     20.196990   17.533287   24.793211 H          1 MOL1         0.0833
      18    C7      19.239775   19.316788   24.080178 C.3        1 MOL1        -0.1684
      19    H12     19.818303   20.143764   24.513581 H          1 MOL1         0.0833
      20    H13     18.507874   19.038127   24.850831 H          1 MOL1         0.0833
      21    C8      18.433631   19.796673   22.847845 C.3        1 MOL1        -0.1684
      22    H14     17.485287   20.218084   23.208571 H          1 MOL1         0.0833
      23    H15     18.140238   18.935908   22.233570 H          1 MOL1         0.0833
      24    O1      22.454379   17.415690   23.933356 O.3        1 MOL1        -0.5508
      25    H16     22.372840   17.495649   24.906707 H          1 MOL1         0.3780
@<TRIPOS>BOND
    1     1     2    1
    2     1     3    1
    3     1     4    1
    4     4     5    1
    5     4     6    1
    6     4     7    1
    7     7     8    1
    8     7     9    1
    9     7    10    1
   10    10    11    1
   11    10    12    1
   12    10    13    1
   13    13    14    1
   14    13    15    1
   15    15    16    1
   16    15    17    1
   17    15    18    1
   18    18    19    1
   19    18    20    1
   20     1    21    1
   21    18    21    1
   22    21    22    1
   23    21    23    1
   24    13    24    1
   25    24    25    1
@<TRIPOS>SUBSTRUCTURE
       1 MOL1            1 RESIDUE      1      MOL     
@<SCITEGIC>MOL_PROPERTY
VConf Rank
SciTegic.value.IntegerValue
287

@<SCITEGIC>MOL_PROPERTY
Conf_Id
SciTegic.value.IntegerValue
162

@<SCITEGIC>MOL_PROPERTY
Delta U+W
SciTegic.value.DoubleValue
0.219

@<SCITEGIC>MOL_PROPERTY
U+W
SciTegic.value.DoubleValue
11.132

@<SCITEGIC>MOL_PROPERTY
Grad RMS
SciTegic.value.DoubleValue
0.000000

@<SCITEGIC>MOL_PROPERTY
U
SciTegic.value.DoubleValue
13.296

@<SCITEGIC>MOL_PROPERTY
W
SciTegic.value.DoubleValue
-2.164

@<SCITEGIC>MOL_PROPERTY
W(PB)
SciTegic.value.DoubleValue
-4.311

@<SCITEGIC>MOL_PROPERTY
W(SA)
SciTegic.value.DoubleValue
2.148

@<SCITEGIC>MOL_PROPERTY
Valence
SciTegic.value.DoubleValue
18.607

@<SCITEGIC>MOL_PROPERTY
Coulomb
SciTegic.value.DoubleValue
-8.339

@<SCITEGIC>MOL_PROPERTY
VdW
SciTegic.value.DoubleValue
3.028

@<SCITEGIC>MOL_PROPERTY
VdW6
SciTegic.value.DoubleValue
-12.271

@<SCITEGIC>MOL_PROPERTY
VdW12
SciTegic.value.DoubleValue
15.299

@<SCITEGIC>MOL_PROPERTY
Bond
SciTegic.value.DoubleValue
0.423

@<SCITEGIC>MOL_PROPERTY
Angle
SciTegic.value.DoubleValue
4.488

@<SCITEGIC>MOL_PROPERTY
Pdih
SciTegic.value.DoubleValue
13.696

@<SCITEGIC>MOL_PROPERTY
Idih
SciTegic.value.DoubleValue
0.000

@<SCITEGIC>MOL_PROPERTY
Tether
SciTegic.value.DoubleValue
0.000

@<TRIPOS>MOLECULE
guest-s17_confgen4.mol2 : confsearch ligand conformer 288
          25          25           1
SMALL
USER_CHARGES
 
@<TRIPOS>ATOM
       1    C1      20.316667   18.358374   24.472816 C.3        1 MOL1        -0.1684
       2    H1      20.475503   17.401512   23.959609 H          1 MOL1         0.0833
       3    H2      20.309036   18.104554   25.541686 H          1 MOL1         0.0833
       4    C2      21.517223   19.302567   24.214227 C.3        1 MOL1        -0.1684
       5    H3      21.238228   20.348179   24.401545 H          1 MOL1         0.0833
       6    H4      22.277896   19.064885   24.970549 H          1 MOL1         0.0833
       7    C3      22.197702   19.142996   22.826046 C.3        1 MOL1        -0.1684
       8    H5      22.219409   18.090422   22.513341 H          1 MOL1         0.0833
       9    H6      23.250624   19.429479   22.954161 H          1 MOL1         0.0833
      10    C4      21.622512   20.041246   21.700217 C.3        1 MOL1        -0.1760
      11    H7      21.288698   20.998576   22.119004 H          1 MOL1         0.0833
      12    H8      22.447507   20.300972   21.024095 H          1 MOL1         0.0833
      13    C5      20.511551   19.414755   20.820104 C.3        1 MOL1         0.1219
      14    H9      20.976329   18.641852   20.191062 H          1 MOL1         0.0790
      15    C6      19.335149   18.748806   21.572861 C.3        1 MOL1        -0.1760
      16    H10     18.532679   18.540924   20.853259 H          1 MOL1         0.0833
      17    H11     19.650789   17.759876   21.922094 H          1 MOL1         0.0833
      18    C7      18.752454   19.588138   22.740535 C.3        1 MOL1        -0.1684
      19    H12     17.681070   19.748764   22.559717 H          1 MOL1         0.0833
      20    H13     19.186970   20.594679   22.754065 H          1 MOL1         0.0833
      21    C8      18.916240   18.934710   24.134088 C.3        1 MOL1        -0.1684
      22    H14     18.180854   18.124524   24.231788 H          1 MOL1         0.0833
      23    H15     18.644526   19.677988   24.895942 H          1 MOL1         0.0833
      24    O1      19.991000   20.440003   19.982253 O.3        1 MOL1        -0.5508
      25    H16     19.290094   20.028539   19.435860 H          1 MOL1         0.3780
@<TRIPOS>BOND
    1     1     2    1
    2     1     3    1
    3     1     4    1
    4     4     5    1
    5     4     6    1
    6     4     7    1
    7     7     8    1
    8     7     9    1
    9     7    10    1
   10    10    11    1
   11    10    12    1
   12    10    13    1
   13    13    14    1
   14    13    15    1
   15    15    16    1
   16    15    17    1
   17    15    18    1
   18    18    19    1
   19    18    20    1
   20     1    21    1
   21    18    21    1
   22    21    22    1
   23    21    23    1
   24    13    24    1
   25    24    25    1
@<TRIPOS>SUBSTRUCTURE
       1 MOL1            1 RESIDUE      1      MOL     
@<SCITEGIC>MOL_PROPERTY
VConf Rank
SciTegic.value.IntegerValue
288

@<SCITEGIC>MOL_PROPERTY
Conf_Id
SciTegic.value.IntegerValue
155

@<SCITEGIC>MOL_PROPERTY
Delta U+W
SciTegic.value.DoubleValue
0.339

@<SCITEGIC>MOL_PROPERTY
U+W
SciTegic.value.DoubleValue
11.252

@<SCITEGIC>MOL_PROPERTY
Grad RMS
SciTegic.value.DoubleValue
0.000000

@<SCITEGIC>MOL_PROPERTY
U
SciTegic.value.DoubleValue
13.420

@<SCITEGIC>MOL_PROPERTY
W
SciTegic.value.DoubleValue
-2.167

@<SCITEGIC>MOL_PROPERTY
W(PB)
SciTegic.value.DoubleValue
-4.325

@<SCITEGIC>MOL_PROPERTY
W(SA)
SciTegic.value.DoubleValue
2.157

@<SCITEGIC>MOL_PROPERTY
Valence
SciTegic.value.DoubleValue
18.609

@<SCITEGIC>MOL_PROPERTY
Coulomb
SciTegic.value.DoubleValue
-8.052

@<SCITEGIC>MOL_PROPERTY
VdW
SciTegic.value.DoubleValue
2.863

@<SCITEGIC>MOL_PROPERTY
VdW6
SciTegic.value.DoubleValue
-12.524

@<SCITEGIC>MOL_PROPERTY
VdW12
SciTegic.value.DoubleValue
15.387

@<SCITEGIC>MOL_PROPERTY
Bond
SciTegic.value.DoubleValue
0.430

@<SCITEGIC>MOL_PROPERTY
Angle
SciTegic.value.DoubleValue
4.724

@<SCITEGIC>MOL_PROPERTY
Pdih
SciTegic.value.DoubleValue
13.455

@<SCITEGIC>MOL_PROPERTY
Idih
SciTegic.value.DoubleValue
0.000

@<SCITEGIC>MOL_PROPERTY
Tether
SciTegic.value.DoubleValue
0.000

@<TRIPOS>MOLECULE
guest-s17_confgen4.mol2 : confsearch ligand conformer 289
          25          25           1
SMALL
USER_CHARGES
 
@<TRIPOS>ATOM
       1    C1      20.990004   19.864685   24.465807 C.3        1 MOL1        -0.1684
       2    H1      20.187780   20.156113   25.157071 H          1 MOL1         0.0833
       3    H2      21.924902   20.017038   25.022168 H          1 MOL1         0.0833
       4    C2      20.883511   18.345335   24.170759 C.3        1 MOL1        -0.1684
       5    H3      21.748018   18.030783   23.577611 H          1 MOL1         0.0833
       6    H4      21.017152   17.812440   25.122010 H          1 MOL1         0.0833
       7    C3      19.559506   17.825881   23.537994 C.3        1 MOL1        -0.1684
       8    H5      18.859355   17.623567   24.359827 H          1 MOL1         0.0833
       9    H6      19.748393   16.851813   23.066578 H          1 MOL1         0.0833
      10    C4      18.820037   18.744811   22.527718 C.3        1 MOL1        -0.1760
      11    H7      17.852746   18.275740   22.304961 H          1 MOL1         0.0833
      12    H8      18.535618   19.674161   23.028884 H          1 MOL1         0.0833
      13    C5      19.522296   19.054645   21.173045 C.3        1 MOL1         0.1219
      14    H9      19.104156   19.995112   20.786457 H          1 MOL1         0.0790
      15    C6      21.066100   19.185799   21.175848 C.3        1 MOL1        -0.1760
      16    H10     21.504632   18.236929   21.498114 H          1 MOL1         0.0833
      17    H11     21.391041   19.279566   20.131220 H          1 MOL1         0.0833
      18    C7      21.694494   20.380011   21.955132 C.3        1 MOL1        -0.1684
      19    H12     21.714964   21.242245   21.274712 H          1 MOL1         0.0833
      20    H13     22.747230   20.150356   22.168033 H          1 MOL1         0.0833
      21    C8      21.000706   20.850228   23.260599 C.3        1 MOL1        -0.1684
      22    H14     19.987643   21.194499   23.030040 H          1 MOL1         0.0833
      23    H15     21.510975   21.763384   23.596232 H          1 MOL1         0.0833
      24    O1      19.197469   18.008360   20.264221 O.3        1 MOL1        -0.5508
      25    H16     18.219997   17.961372   20.224447 H          1 MOL1         0.3780
@<TRIPOS>BOND
    1     1     2    1
    2     1     3    1
    3     1     4    1
    4     4     5    1
    5     4     6    1
    6     4     7    1
    7     7     8    1
    8     7     9    1
    9     7    10    1
   10    10    11    1
   11    10    12    1
   12    10    13    1
   13    13    14    1
   14    13    15    1
   15    15    16    1
   16    15    17    1
   17    15    18    1
   18    18    19    1
   19    18    20    1
   20     1    21    1
   21    18    21    1
   22    21    22    1
   23    21    23    1
   24    13    24    1
   25    24    25    1
@<TRIPOS>SUBSTRUCTURE
       1 MOL1            1 RESIDUE      1      MOL     
@<SCITEGIC>MOL_PROPERTY
VConf Rank
SciTegic.value.IntegerValue
289

@<SCITEGIC>MOL_PROPERTY
Conf_Id
SciTegic.value.IntegerValue
146

@<SCITEGIC>MOL_PROPERTY
Delta U+W
SciTegic.value.DoubleValue
2.553

@<SCITEGIC>MOL_PROPERTY
U+W
SciTegic.value.DoubleValue
13.466

@<SCITEGIC>MOL_PROPERTY
Grad RMS
SciTegic.value.DoubleValue
0.000000

@<SCITEGIC>MOL_PROPERTY
U
SciTegic.value.DoubleValue
15.643

@<SCITEGIC>MOL_PROPERTY
W
SciTegic.value.DoubleValue
-2.176

@<SCITEGIC>MOL_PROPERTY
W(PB)
SciTegic.value.DoubleValue
-4.307

@<SCITEGIC>MOL_PROPERTY
W(SA)
SciTegic.value.DoubleValue
2.131

@<SCITEGIC>MOL_PROPERTY
Valence
SciTegic.value.DoubleValue
18.916

@<SCITEGIC>MOL_PROPERTY
Coulomb
SciTegic.value.DoubleValue
-7.506

@<SCITEGIC>MOL_PROPERTY
VdW
SciTegic.value.DoubleValue
4.232

@<SCITEGIC>MOL_PROPERTY
VdW6
SciTegic.value.DoubleValue
-13.632

@<SCITEGIC>MOL_PROPERTY
VdW12
SciTegic.value.DoubleValue
17.864

@<SCITEGIC>MOL_PROPERTY
Bond
SciTegic.value.DoubleValue
0.735

@<SCITEGIC>MOL_PROPERTY
Angle
SciTegic.value.DoubleValue
9.140

@<SCITEGIC>MOL_PROPERTY
Pdih
SciTegic.value.DoubleValue
9.042

@<SCITEGIC>MOL_PROPERTY
Idih
SciTegic.value.DoubleValue
0.000

@<SCITEGIC>MOL_PROPERTY
Tether
SciTegic.value.DoubleValue
0.000

@<TRIPOS>MOLECULE
guest-s17_confgen4.mol2 : confsearch ligand conformer 290
          25          25           1
SMALL
USER_CHARGES
 
@<TRIPOS>ATOM
       1    C1      21.209576   17.733182   23.755223 C.3        1 MOL1        -0.1684
       2    H1      20.870468   16.689573   23.706336 H          1 MOL1         0.0833
       3    H2      22.050050   17.738624   24.462673 H          1 MOL1         0.0833
       4    C2      20.085921   18.607879   24.365506 C.3        1 MOL1        -0.1684
       5    H3      19.890058   18.227352   25.377256 H          1 MOL1         0.0833
       6    H4      20.442349   19.632568   24.520805 H          1 MOL1         0.0833
       7    C3      18.735325   18.611029   23.606386 C.3        1 MOL1        -0.1684
       8    H5      18.014577   19.172806   24.216231 H          1 MOL1         0.0833
       9    H6      18.345622   17.585434   23.554151 H          1 MOL1         0.0833
      10    C4      18.730903   19.224528   22.181850 C.3        1 MOL1        -0.1760
      11    H7      19.090218   18.492734   21.451480 H          1 MOL1         0.0833
      12    H8      17.681055   19.393692   21.906644 H          1 MOL1         0.0833
      13    C5      19.513307   20.555157   22.035751 C.3        1 MOL1         0.1219
      14    H9      19.638276   21.019230   23.023305 H          1 MOL1         0.0790
      15    C6      20.900025   20.404201   21.360482 C.3        1 MOL1        -0.1760
      16    H10     20.775483   19.910071   20.387834 H          1 MOL1         0.0833
      17    H11     21.278869   21.409856   21.135813 H          1 MOL1         0.0833
      18    C7      21.999873   19.667884   22.172749 C.3        1 MOL1        -0.1684
      19    H12     22.172492   20.165802   23.135598 H          1 MOL1         0.0833
      20    H13     22.940565   19.784574   21.617353 H          1 MOL1         0.0833
      21    C8      21.759024   18.148290   22.365905 C.3        1 MOL1        -0.1684
      22    H14     22.718637   17.630593   22.231105 H          1 MOL1         0.0833
      23    H15     21.122605   17.754615   21.565397 H          1 MOL1         0.0833
      24    O1      18.741795   21.434876   21.225681 O.3        1 MOL1        -0.5508
      25    H16     19.224022   22.287345   21.194461 H          1 MOL1         0.3780
@<TRIPOS>BOND
    1     1     2    1
    2     1     3    1
    3     1     4    1
    4     4     5    1
    5     4     6    1
    6     4     7    1
    7     7     8    1
    8     7     9    1
    9     7    10    1
   10    10    11    1
   11    10    12    1
   12    10    13    1
   13    13    14    1
   14    13    15    1
   15    15    16    1
   16    15    17    1
   17    15    18    1
   18    18    19    1
   19    18    20    1
   20     1    21    1
   21    18    21    1
   22    21    22    1
   23    21    23    1
   24    13    24    1
   25    24    25    1
@<TRIPOS>SUBSTRUCTURE
       1 MOL1            1 RESIDUE      1      MOL     
@<SCITEGIC>MOL_PROPERTY
VConf Rank
SciTegic.value.IntegerValue
290

@<SCITEGIC>MOL_PROPERTY
Conf_Id
SciTegic.value.IntegerValue
62

@<SCITEGIC>MOL_PROPERTY
Delta U+W
SciTegic.value.DoubleValue
-1.779

@<SCITEGIC>MOL_PROPERTY
U+W
SciTegic.value.DoubleValue
9.134

@<SCITEGIC>MOL_PROPERTY
Grad RMS
SciTegic.value.DoubleValue
0.000000

@<SCITEGIC>MOL_PROPERTY
U
SciTegic.value.DoubleValue
11.364

@<SCITEGIC>MOL_PROPERTY
W
SciTegic.value.DoubleValue
-2.230

@<SCITEGIC>MOL_PROPERTY
W(PB)
SciTegic.value.DoubleValue
-4.359

@<SCITEGIC>MOL_PROPERTY
W(SA)
SciTegic.value.DoubleValue
2.129

@<SCITEGIC>MOL_PROPERTY
Valence
SciTegic.value.DoubleValue
16.582

@<SCITEGIC>MOL_PROPERTY
Coulomb
SciTegic.value.DoubleValue
-8.150

@<SCITEGIC>MOL_PROPERTY
VdW
SciTegic.value.DoubleValue
2.933

@<SCITEGIC>MOL_PROPERTY
VdW6
SciTegic.value.DoubleValue
-12.531

@<SCITEGIC>MOL_PROPERTY
VdW12
SciTegic.value.DoubleValue
15.464

@<SCITEGIC>MOL_PROPERTY
Bond
SciTegic.value.DoubleValue
0.439

@<SCITEGIC>MOL_PROPERTY
Angle
SciTegic.value.DoubleValue
5.099

@<SCITEGIC>MOL_PROPERTY
Pdih
SciTegic.value.DoubleValue
11.044

@<SCITEGIC>MOL_PROPERTY
Idih
SciTegic.value.DoubleValue
0.000

@<SCITEGIC>MOL_PROPERTY
Tether
SciTegic.value.DoubleValue
0.000

@<TRIPOS>MOLECULE
guest-s17_confgen4.mol2 : confsearch ligand conformer 291
          25          25           1
SMALL
USER_CHARGES
 
@<TRIPOS>ATOM
       1    C1      21.240972   18.760405   24.259568 C.3        1 MOL1        -0.1684
       2    H1      20.552711   19.564549   24.543775 H          1 MOL1         0.0833
       3    H2      21.772838   18.510772   25.187706 H          1 MOL1         0.0833
       4    C2      22.294933   19.282550   23.251508 C.3        1 MOL1        -0.1684
       5    H3      22.845506   20.096156   23.743242 H          1 MOL1         0.0833
       6    H4      23.036457   18.494872   23.061241 H          1 MOL1         0.0833
       7    C3      21.770400   19.817906   21.894682 C.3        1 MOL1        -0.1684
       8    H5      21.604201   18.992170   21.193589 H          1 MOL1         0.0833
       9    H6      22.582589   20.403063   21.441950 H          1 MOL1         0.0833
      10    C4      20.511259   20.721525   21.980424 C.3        1 MOL1        -0.1760
      11    H7      20.425512   21.185875   22.970514 H          1 MOL1         0.0833
      12    H8      20.662390   21.555134   21.282141 H          1 MOL1         0.0833
      13    C5      19.182095   20.027365   21.589453 C.3        1 MOL1         0.1219
      14    H9      19.311079   19.569323   20.598221 H          1 MOL1         0.0790
      15    C6      18.663379   18.936741   22.559701 C.3        1 MOL1        -0.1760
      16    H10     18.523150   19.351717   23.565147 H          1 MOL1         0.0833
      17    H11     17.656911   18.658860   22.219680 H          1 MOL1         0.0833
      18    C7      19.512982   17.638303   22.602157 C.3        1 MOL1        -0.1684
      19    H12     20.077716   17.518063   21.670726 H          1 MOL1         0.0833
      20    H13     18.827060   16.780318   22.620066 H          1 MOL1         0.0833
      21    C8      20.450209   17.499811   23.829083 C.3        1 MOL1        -0.1684
      22    H14     21.152379   16.674352   23.650034 H          1 MOL1         0.0833
      23    H15     19.837403   17.187819   24.685828 H          1 MOL1         0.0833
      24    O1      18.180082   21.032637   21.500994 O.3        1 MOL1        -0.5508
      25    H16     18.487980   21.681447   20.834367 H          1 MOL1         0.3780
@<TRIPOS>BOND
    1     1     2    1
    2     1     3    1
    3     1     4    1
    4     4     5    1
    5     4     6    1
    6     4     7    1
    7     7     8    1
    8     7     9    1
    9     7    10    1
   10    10    11    1
   11    10    12    1
   12    10    13    1
   13    13    14    1
   14    13    15    1
   15    15    16    1
   16    15    17    1
   17    15    18    1
   18    18    19    1
   19    18    20    1
   20     1    21    1
   21    18    21    1
   22    21    22    1
   23    21    23    1
   24    13    24    1
   25    24    25    1
@<TRIPOS>SUBSTRUCTURE
       1 MOL1            1 RESIDUE      1      MOL     
@<SCITEGIC>MOL_PROPERTY
VConf Rank
SciTegic.value.IntegerValue
291

@<SCITEGIC>MOL_PROPERTY
Conf_Id
SciTegic.value.IntegerValue
121

@<SCITEGIC>MOL_PROPERTY
Delta U+W
SciTegic.value.DoubleValue
-1.283

@<SCITEGIC>MOL_PROPERTY
U+W
SciTegic.value.DoubleValue
9.630

@<SCITEGIC>MOL_PROPERTY
Grad RMS
SciTegic.value.DoubleValue
0.000000

@<SCITEGIC>MOL_PROPERTY
U
SciTegic.value.DoubleValue
11.876

@<SCITEGIC>MOL_PROPERTY
W
SciTegic.value.DoubleValue
-2.246

@<SCITEGIC>MOL_PROPERTY
W(PB)
SciTegic.value.DoubleValue
-4.376

@<SCITEGIC>MOL_PROPERTY
W(SA)
SciTegic.value.DoubleValue
2.130

@<SCITEGIC>MOL_PROPERTY
Valence
SciTegic.value.DoubleValue
17.153

@<SCITEGIC>MOL_PROPERTY
Coulomb
SciTegic.value.DoubleValue
-7.966

@<SCITEGIC>MOL_PROPERTY
VdW
SciTegic.value.DoubleValue
2.689

@<SCITEGIC>MOL_PROPERTY
VdW6
SciTegic.value.DoubleValue
-12.458

@<SCITEGIC>MOL_PROPERTY
VdW12
SciTegic.value.DoubleValue
15.147

@<SCITEGIC>MOL_PROPERTY
Bond
SciTegic.value.DoubleValue
0.421

@<SCITEGIC>MOL_PROPERTY
Angle
SciTegic.value.DoubleValue
5.258

@<SCITEGIC>MOL_PROPERTY
Pdih
SciTegic.value.DoubleValue
11.475

@<SCITEGIC>MOL_PROPERTY
Idih
SciTegic.value.DoubleValue
0.000

@<SCITEGIC>MOL_PROPERTY
Tether
SciTegic.value.DoubleValue
0.000

@<TRIPOS>MOLECULE
guest-s17_confgen4.mol2 : confsearch ligand conformer 292
          25          25           1
SMALL
USER_CHARGES
 
@<TRIPOS>ATOM
       1    C1      21.067807   19.781268   21.030631 C.3        1 MOL1        -0.1684
       2    H1      21.105163   18.686286   21.003362 H          1 MOL1         0.0833
       3    H2      21.475418   20.096073   20.060378 H          1 MOL1         0.0833
       4    C2      22.016438   20.326784   22.127095 C.3        1 MOL1        -0.1684
       5    H3      23.032332   19.989144   21.880434 H          1 MOL1         0.0833
       6    H4      22.045738   21.423262   22.069140 H          1 MOL1         0.0833
       7    C3      21.720505   19.907913   23.589933 C.3        1 MOL1        -0.1684
       8    H5      20.953028   20.555856   24.028219 H          1 MOL1         0.0833
       9    H6      22.625261   20.118475   24.176472 H          1 MOL1         0.0833
      10    C4      21.350428   18.413741   23.790099 C.3        1 MOL1        -0.1760
      11    H7      21.752724   17.793772   22.979800 H          1 MOL1         0.0833
      12    H8      21.861831   18.068280   24.698358 H          1 MOL1         0.0833
      13    C5      19.839749   18.134179   23.989121 C.3        1 MOL1         0.1219
      14    H9      19.478201   18.776253   24.805213 H          1 MOL1         0.0790
      15    C6      18.929340   18.358045   22.755255 C.3        1 MOL1        -0.1760
      16    H10     19.263251   17.738500   21.913876 H          1 MOL1         0.0833
      17    H11     17.930795   17.981598   23.013207 H          1 MOL1         0.0833
      18    C7      18.763395   19.840389   22.325805 C.3        1 MOL1        -0.1684
      19    H12     18.954003   20.509720   23.172362 H          1 MOL1         0.0833
      20    H13     17.707084   20.008896   22.075133 H          1 MOL1         0.0833
      21    C8      19.599268   20.270278   21.093235 C.3        1 MOL1        -0.1684
      22    H14     19.577787   21.365495   21.012414 H          1 MOL1         0.0833
      23    H15     19.089518   19.896184   20.194848 H          1 MOL1         0.0833
      24    O1      19.704843   16.774620   24.383865 O.3        1 MOL1        -0.5508
      25    H16     18.754659   16.627562   24.572740 H          1 MOL1         0.3780
@<TRIPOS>BOND
    1     1     2    1
    2     1     3    1
    3     1     4    1
    4     4     5    1
    5     4     6    1
    6     4     7    1
    7     7     8    1
    8     7     9    1
    9     7    10    1
   10    10    11    1
   11    10    12    1
   12    10    13    1
   13    13    14    1
   14    13    15    1
   15    15    16    1
   16    15    17    1
   17    15    18    1
   18    18    19    1
   19    18    20    1
   20     1    21    1
   21    18    21    1
   22    21    22    1
   23    21    23    1
   24    13    24    1
   25    24    25    1
@<TRIPOS>SUBSTRUCTURE
       1 MOL1            1 RESIDUE      1      MOL     
@<SCITEGIC>MOL_PROPERTY
VConf Rank
SciTegic.value.IntegerValue
292

@<SCITEGIC>MOL_PROPERTY
Conf_Id
SciTegic.value.IntegerValue
24

@<SCITEGIC>MOL_PROPERTY
Delta U+W
SciTegic.value.DoubleValue
-1.236

@<SCITEGIC>MOL_PROPERTY
U+W
SciTegic.value.DoubleValue
9.678

@<SCITEGIC>MOL_PROPERTY
Grad RMS
SciTegic.value.DoubleValue
0.000000

@<SCITEGIC>MOL_PROPERTY
U
SciTegic.value.DoubleValue
11.876

@<SCITEGIC>MOL_PROPERTY
W
SciTegic.value.DoubleValue
-2.199

@<SCITEGIC>MOL_PROPERTY
W(PB)
SciTegic.value.DoubleValue
-4.335

@<SCITEGIC>MOL_PROPERTY
W(SA)
SciTegic.value.DoubleValue
2.137

@<SCITEGIC>MOL_PROPERTY
Valence
SciTegic.value.DoubleValue
17.153

@<SCITEGIC>MOL_PROPERTY
Coulomb
SciTegic.value.DoubleValue
-7.966

@<SCITEGIC>MOL_PROPERTY
VdW
SciTegic.value.DoubleValue
2.689

@<SCITEGIC>MOL_PROPERTY
VdW6
SciTegic.value.DoubleValue
-12.458

@<SCITEGIC>MOL_PROPERTY
VdW12
SciTegic.value.DoubleValue
15.147

@<SCITEGIC>MOL_PROPERTY
Bond
SciTegic.value.DoubleValue
0.421

@<SCITEGIC>MOL_PROPERTY
Angle
SciTegic.value.DoubleValue
5.258

@<SCITEGIC>MOL_PROPERTY
Pdih
SciTegic.value.DoubleValue
11.475

@<SCITEGIC>MOL_PROPERTY
Idih
SciTegic.value.DoubleValue
0.000

@<SCITEGIC>MOL_PROPERTY
Tether
SciTegic.value.DoubleValue
0.000

@<TRIPOS>MOLECULE
guest-s17_confgen4.mol2 : confsearch ligand conformer 293
          25          25           1
SMALL
USER_CHARGES
 
@<TRIPOS>ATOM
       1    C1      22.253065   18.935224   21.883249 C.3        1 MOL1        -0.1684
       2    H1      22.528920   19.163660   20.844741 H          1 MOL1         0.0833
       3    H2      23.159005   18.521777   22.347131 H          1 MOL1         0.0833
       4    C2      21.905068   20.259834   22.612980 C.3        1 MOL1        -0.1684
       5    H3      21.945482   20.123774   23.701166 H          1 MOL1         0.0833
       6    H4      22.713782   20.969367   22.390246 H          1 MOL1         0.0833
       7    C3      20.564972   20.924831   22.212257 C.3        1 MOL1        -0.1684
       8    H5      20.353010   20.764032   21.146578 H          1 MOL1         0.0833
       9    H6      20.702300   22.009492   22.321129 H          1 MOL1         0.0833
      10    C4      19.344423   20.534258   23.092963 C.3        1 MOL1        -0.1760
      11    H7      19.643342   20.410234   24.141650 H          1 MOL1         0.0833
      12    H8      18.661604   21.394822   23.081217 H          1 MOL1         0.0833
      13    C5      18.553671   19.296532   22.603245 C.3        1 MOL1         0.1219
      14    H9      18.659059   19.224391   21.512665 H          1 MOL1         0.0790
      15    C6      18.964600   17.948336   23.247691 C.3        1 MOL1        -0.1760
      16    H10     18.617893   17.921638   24.289062 H          1 MOL1         0.0833
      17    H11     18.418090   17.150890   22.727088 H          1 MOL1         0.0833
      18    C7      20.473395   17.596326   23.231379 C.3        1 MOL1        -0.1684
      19    H12     20.578704   16.536143   23.499110 H          1 MOL1         0.0833
      20    H13     20.988368   18.139203   24.032490 H          1 MOL1         0.0833
      21    C8      21.163850   17.834877   21.864734 C.3        1 MOL1        -0.1684
      22    H14     20.427680   18.058693   21.083955 H          1 MOL1         0.0833
      23    H15     21.635390   16.896884   21.541174 H          1 MOL1         0.0833
      24    O1      17.177260   19.500971   22.895491 O.3        1 MOL1        -0.5508
      25    H16     17.109931   19.582735   23.869017 H          1 MOL1         0.3780
@<TRIPOS>BOND
    1     1     2    1
    2     1     3    1
    3     1     4    1
    4     4     5    1
    5     4     6    1
    6     4     7    1
    7     7     8    1
    8     7     9    1
    9     7    10    1
   10    10    11    1
   11    10    12    1
   12    10    13    1
   13    13    14    1
   14    13    15    1
   15    15    16    1
   16    15    17    1
   17    15    18    1
   18    18    19    1
   19    18    20    1
   20     1    21    1
   21    18    21    1
   22    21    22    1
   23    21    23    1
   24    13    24    1
   25    24    25    1
@<TRIPOS>SUBSTRUCTURE
       1 MOL1            1 RESIDUE      1      MOL     
@<SCITEGIC>MOL_PROPERTY
VConf Rank
SciTegic.value.IntegerValue
293

@<SCITEGIC>MOL_PROPERTY
Conf_Id
SciTegic.value.IntegerValue
167

@<SCITEGIC>MOL_PROPERTY
Delta U+W
SciTegic.value.DoubleValue
0.388

@<SCITEGIC>MOL_PROPERTY
U+W
SciTegic.value.DoubleValue
11.301

@<SCITEGIC>MOL_PROPERTY
Grad RMS
SciTegic.value.DoubleValue
0.000000

@<SCITEGIC>MOL_PROPERTY
U
SciTegic.value.DoubleValue
13.202

@<SCITEGIC>MOL_PROPERTY
W
SciTegic.value.DoubleValue
-1.901

@<SCITEGIC>MOL_PROPERTY
W(PB)
SciTegic.value.DoubleValue
-4.065

@<SCITEGIC>MOL_PROPERTY
W(SA)
SciTegic.value.DoubleValue
2.163

@<SCITEGIC>MOL_PROPERTY
Valence
SciTegic.value.DoubleValue
18.957

@<SCITEGIC>MOL_PROPERTY
Coulomb
SciTegic.value.DoubleValue
-8.753

@<SCITEGIC>MOL_PROPERTY
VdW
SciTegic.value.DoubleValue
2.998

@<SCITEGIC>MOL_PROPERTY
VdW6
SciTegic.value.DoubleValue
-12.294

@<SCITEGIC>MOL_PROPERTY
VdW12
SciTegic.value.DoubleValue
15.292

@<SCITEGIC>MOL_PROPERTY
Bond
SciTegic.value.DoubleValue
0.419

@<SCITEGIC>MOL_PROPERTY
Angle
SciTegic.value.DoubleValue
4.543

@<SCITEGIC>MOL_PROPERTY
Pdih
SciTegic.value.DoubleValue
13.996

@<SCITEGIC>MOL_PROPERTY
Idih
SciTegic.value.DoubleValue
0.000

@<SCITEGIC>MOL_PROPERTY
Tether
SciTegic.value.DoubleValue
0.000

@<TRIPOS>MOLECULE
guest-s17_confgen4.mol2 : confsearch ligand conformer 294
          25          25           1
SMALL
USER_CHARGES
 
@<TRIPOS>ATOM
       1    C1      22.159033   18.446195   23.109400 C.3        1 MOL1        -0.1684
       2    H1      22.276589   17.390470   23.388917 H          1 MOL1         0.0833
       3    H2      23.173298   18.868285   23.114521 H          1 MOL1         0.0833
       4    C2      21.341739   19.169363   24.211380 C.3        1 MOL1        -0.1684
       5    H3      20.517520   18.536599   24.559341 H          1 MOL1         0.0833
       6    H4      21.998225   19.267431   25.086847 H          1 MOL1         0.0833
       7    C3      20.822994   20.582277   23.837988 C.3        1 MOL1        -0.1684
       8    H5      21.452597   21.042455   23.065585 H          1 MOL1         0.0833
       9    H6      20.941554   21.222060   24.723158 H          1 MOL1         0.0833
      10    C4      19.324380   20.641108   23.434328 C.3        1 MOL1        -0.1760
      11    H7      18.712541   20.212892   24.239018 H          1 MOL1         0.0833
      12    H8      19.039157   21.699960   23.377160 H          1 MOL1         0.0833
      13    C5      18.935348   19.977198   22.089974 C.3        1 MOL1         0.1219
      14    H9      19.571008   20.383170   21.291677 H          1 MOL1         0.0790
      15    C6      19.027322   18.429232   22.098324 C.3        1 MOL1        -0.1760
      16    H10     18.971799   18.054314   23.125275 H          1 MOL1         0.0833
      17    H11     18.140875   18.006974   21.606538 H          1 MOL1         0.0833
      18    C7      20.270679   17.842859   21.380694 C.3        1 MOL1        -0.1684
      19    H12     20.088846   17.889061   20.298221 H          1 MOL1         0.0833
      20    H13     20.351603   16.774687   21.623616 H          1 MOL1         0.0833
      21    C8      21.629731   18.534323   21.655874 C.3        1 MOL1        -0.1684
      22    H14     21.605754   19.577955   21.322098 H          1 MOL1         0.0833
      23    H15     22.376043   18.054617   21.008013 H          1 MOL1         0.0833
      24    O1      17.588412   20.341532   21.812151 O.3        1 MOL1        -0.5508
      25    H16     17.374965   19.974827   20.928700 H          1 MOL1         0.3780
@<TRIPOS>BOND
    1     1     2    1
    2     1     3    1
    3     1     4    1
    4     4     5    1
    5     4     6    1
    6     4     7    1
    7     7     8    1
    8     7     9    1
    9     7    10    1
   10    10    11    1
   11    10    12    1
   12    10    13    1
   13    13    14    1
   14    13    15    1
   15    15    16    1
   16    15    17    1
   17    15    18    1
   18    18    19    1
   19    18    20    1
   20     1    21    1
   21    18    21    1
   22    21    22    1
   23    21    23    1
   24    13    24    1
   25    24    25    1
@<TRIPOS>SUBSTRUCTURE
       1 MOL1            1 RESIDUE      1      MOL     
@<SCITEGIC>MOL_PROPERTY
VConf Rank
SciTegic.value.IntegerValue
294

@<SCITEGIC>MOL_PROPERTY
Conf_Id
SciTegic.value.IntegerValue
60

@<SCITEGIC>MOL_PROPERTY
Delta U+W
SciTegic.value.DoubleValue
-1.838

@<SCITEGIC>MOL_PROPERTY
U+W
SciTegic.value.DoubleValue
9.075

@<SCITEGIC>MOL_PROPERTY
Grad RMS
SciTegic.value.DoubleValue
0.000000

@<SCITEGIC>MOL_PROPERTY
U
SciTegic.value.DoubleValue
11.150

@<SCITEGIC>MOL_PROPERTY
W
SciTegic.value.DoubleValue
-2.074

@<SCITEGIC>MOL_PROPERTY
W(PB)
SciTegic.value.DoubleValue
-4.196

@<SCITEGIC>MOL_PROPERTY
W(SA)
SciTegic.value.DoubleValue
2.121

@<SCITEGIC>MOL_PROPERTY
Valence
SciTegic.value.DoubleValue
16.582

@<SCITEGIC>MOL_PROPERTY
Coulomb
SciTegic.value.DoubleValue
-8.361

@<SCITEGIC>MOL_PROPERTY
VdW
SciTegic.value.DoubleValue
2.928

@<SCITEGIC>MOL_PROPERTY
VdW6
SciTegic.value.DoubleValue
-12.539

@<SCITEGIC>MOL_PROPERTY
VdW12
SciTegic.value.DoubleValue
15.467

@<SCITEGIC>MOL_PROPERTY
Bond
SciTegic.value.DoubleValue
0.441

@<SCITEGIC>MOL_PROPERTY
Angle
SciTegic.value.DoubleValue
5.093

@<SCITEGIC>MOL_PROPERTY
Pdih
SciTegic.value.DoubleValue
11.049

@<SCITEGIC>MOL_PROPERTY
Idih
SciTegic.value.DoubleValue
0.000

@<SCITEGIC>MOL_PROPERTY
Tether
SciTegic.value.DoubleValue
0.000

@<TRIPOS>MOLECULE
guest-s17_confgen4.mol2 : confsearch ligand conformer 295
          25          25           1
SMALL
USER_CHARGES
 
@<TRIPOS>ATOM
       1    C1      19.070786   18.422618   21.204466 C.3        1 MOL1        -0.1684
       2    H1      19.328068   18.481914   20.138261 H          1 MOL1         0.0833
       3    H2      18.085718   17.937900   21.244578 H          1 MOL1         0.0833
       4    C2      18.903679   19.855223   21.770489 C.3        1 MOL1        -0.1684
       5    H3      18.086601   20.332479   21.212430 H          1 MOL1         0.0833
       6    H4      18.544233   19.816225   22.805103 H          1 MOL1         0.0833
       7    C3      20.139719   20.782770   21.657659 C.3        1 MOL1        -0.1684
       8    H5      19.833386   21.784420   21.989025 H          1 MOL1         0.0833
       9    H6      20.416620   20.890799   20.600206 H          1 MOL1         0.0833
      10    C4      21.397809   20.376604   22.468214 C.3        1 MOL1        -0.1760
      11    H7      21.964710   19.611614   21.928132 H          1 MOL1         0.0833
      12    H8      22.066062   21.247836   22.486473 H          1 MOL1         0.0833
      13    C5      21.118880   19.908172   23.919935 C.3        1 MOL1         0.1219
      14    H9      20.131864   20.265530   24.242811 H          1 MOL1         0.0790
      15    C6      21.190168   18.373006   24.113808 C.3        1 MOL1        -0.1760
      16    H10     22.164080   18.009250   23.761075 H          1 MOL1         0.0833
      17    H11     21.172839   18.172959   25.193375 H          1 MOL1         0.0833
      18    C7      20.058305   17.530641   23.464535 C.3        1 MOL1        -0.1684
      19    H12     19.075031   17.849441   23.833737 H          1 MOL1         0.0833
      20    H13     20.179372   16.499881   23.824786 H          1 MOL1         0.0833
      21    C8      20.085148   17.488745   21.914577 C.3        1 MOL1        -0.1684
      22    H14     19.854662   16.462528   21.597105 H          1 MOL1         0.0833
      23    H15     21.100402   17.666696   21.542559 H          1 MOL1         0.0833
      24    O1      22.100255   20.488306   24.771118 O.3        1 MOL1        -0.5508
      25    H16     22.000318   21.460133   24.693137 H          1 MOL1         0.3780
@<TRIPOS>BOND
    1     1     2    1
    2     1     3    1
    3     1     4    1
    4     4     5    1
    5     4     6    1
    6     4     7    1
    7     7     8    1
    8     7     9    1
    9     7    10    1
   10    10    11    1
   11    10    12    1
   12    10    13    1
   13    13    14    1
   14    13    15    1
   15    15    16    1
   16    15    17    1
   17    15    18    1
   18    18    19    1
   19    18    20    1
   20     1    21    1
   21    18    21    1
   22    21    22    1
   23    21    23    1
   24    13    24    1
   25    24    25    1
@<TRIPOS>SUBSTRUCTURE
       1 MOL1            1 RESIDUE      1      MOL     
@<SCITEGIC>MOL_PROPERTY
VConf Rank
SciTegic.value.IntegerValue
295

@<SCITEGIC>MOL_PROPERTY
Conf_Id
SciTegic.value.IntegerValue
129

@<SCITEGIC>MOL_PROPERTY
Delta U+W
SciTegic.value.DoubleValue
-1.846

@<SCITEGIC>MOL_PROPERTY
U+W
SciTegic.value.DoubleValue
9.067

@<SCITEGIC>MOL_PROPERTY
Grad RMS
SciTegic.value.DoubleValue
0.000000

@<SCITEGIC>MOL_PROPERTY
U
SciTegic.value.DoubleValue
11.150

@<SCITEGIC>MOL_PROPERTY
W
SciTegic.value.DoubleValue
-2.083

@<SCITEGIC>MOL_PROPERTY
W(PB)
SciTegic.value.DoubleValue
-4.217

@<SCITEGIC>MOL_PROPERTY
W(SA)
SciTegic.value.DoubleValue
2.134

@<SCITEGIC>MOL_PROPERTY
Valence
SciTegic.value.DoubleValue
16.583

@<SCITEGIC>MOL_PROPERTY
Coulomb
SciTegic.value.DoubleValue
-8.361

@<SCITEGIC>MOL_PROPERTY
VdW
SciTegic.value.DoubleValue
2.928

@<SCITEGIC>MOL_PROPERTY
VdW6
SciTegic.value.DoubleValue
-12.539

@<SCITEGIC>MOL_PROPERTY
VdW12
SciTegic.value.DoubleValue
15.467

@<SCITEGIC>MOL_PROPERTY
Bond
SciTegic.value.DoubleValue
0.441

@<SCITEGIC>MOL_PROPERTY
Angle
SciTegic.value.DoubleValue
5.093

@<SCITEGIC>MOL_PROPERTY
Pdih
SciTegic.value.DoubleValue
11.049

@<SCITEGIC>MOL_PROPERTY
Idih
SciTegic.value.DoubleValue
0.000

@<SCITEGIC>MOL_PROPERTY
Tether
SciTegic.value.DoubleValue
0.000

@<TRIPOS>MOLECULE
guest-s17_confgen4.mol2 : confsearch ligand conformer 296
          25          25           1
SMALL
USER_CHARGES
 
@<TRIPOS>ATOM
       1    C1      20.469033   20.361150   20.944614 C.3        1 MOL1        -0.1684
       2    H1      20.166674   19.971391   19.963200 H          1 MOL1         0.0833
       3    H2      20.838815   21.378664   20.757944 H          1 MOL1         0.0833
       4    C2      21.659907   19.527939   21.481078 C.3        1 MOL1        -0.1684
       5    H3      22.483994   19.637911   20.763030 H          1 MOL1         0.0833
       6    H4      22.043758   19.965371   22.409793 H          1 MOL1         0.0833
       7    C3      21.405719   18.010095   21.659416 C.3        1 MOL1        -0.1684
       8    H5      22.363306   17.544322   21.929849 H          1 MOL1         0.0833
       9    H6      21.124819   17.572902   20.691710 H          1 MOL1         0.0833
      10    C4      20.357891   17.592673   22.723883 C.3        1 MOL1        -0.1760
      11    H7      19.347316   17.671746   22.310331 H          1 MOL1         0.0833
      12    H8      20.498975   16.518850   22.907233 H          1 MOL1         0.0833
      13    C5      20.449177   18.357267   24.069853 C.3        1 MOL1         0.1219
      14    H9      21.445986   18.806119   24.173643 H          1 MOL1         0.0790
      15    C6      19.372567   19.456649   24.251983 C.3        1 MOL1        -0.1760
      16    H10     18.375332   19.017349   24.118742 H          1 MOL1         0.0833
      17    H11     19.412890   19.792976   25.296729 H          1 MOL1         0.0833
      18    C7      19.498474   20.716903   23.353692 C.3        1 MOL1        -0.1684
      19    H12     20.471961   21.202858   23.498481 H          1 MOL1         0.0833
      20    H13     18.758808   21.443996   23.715901 H          1 MOL1         0.0833
      21    C8      19.214362   20.473444   21.848849 C.3        1 MOL1        -0.1684
      22    H14     18.620519   21.317712   21.472534 H          1 MOL1         0.0833
      23    H15     18.563255   19.602127   21.715937 H          1 MOL1         0.0833
      24    O1      20.278247   17.420102   25.125632 O.3        1 MOL1        -0.5508
      25    H16     19.383584   17.037896   25.014105 H          1 MOL1         0.3780
@<TRIPOS>BOND
    1     1     2    1
    2     1     3    1
    3     1     4    1
    4     4     5    1
    5     4     6    1
    6     4     7    1
    7     7     8    1
    8     7     9    1
    9     7    10    1
   10    10    11    1
   11    10    12    1
   12    10    13    1
   13    13    14    1
   14    13    15    1
   15    15    16    1
   16    15    17    1
   17    15    18    1
   18    18    19    1
   19    18    20    1
   20     1    21    1
   21    18    21    1
   22    21    22    1
   23    21    23    1
   24    13    24    1
   25    24    25    1
@<TRIPOS>SUBSTRUCTURE
       1 MOL1            1 RESIDUE      1      MOL     
@<SCITEGIC>MOL_PROPERTY
VConf Rank
SciTegic.value.IntegerValue
296

@<SCITEGIC>MOL_PROPERTY
Conf_Id
SciTegic.value.IntegerValue
140

@<SCITEGIC>MOL_PROPERTY
Delta U+W
SciTegic.value.DoubleValue
-1.702

@<SCITEGIC>MOL_PROPERTY
U+W
SciTegic.value.DoubleValue
9.211

@<SCITEGIC>MOL_PROPERTY
Grad RMS
SciTegic.value.DoubleValue
0.000000

@<SCITEGIC>MOL_PROPERTY
U
SciTegic.value.DoubleValue
11.181

@<SCITEGIC>MOL_PROPERTY
W
SciTegic.value.DoubleValue
-1.969

@<SCITEGIC>MOL_PROPERTY
W(PB)
SciTegic.value.DoubleValue
-4.093

@<SCITEGIC>MOL_PROPERTY
W(SA)
SciTegic.value.DoubleValue
2.124

@<SCITEGIC>MOL_PROPERTY
Valence
SciTegic.value.DoubleValue
16.954

@<SCITEGIC>MOL_PROPERTY
Coulomb
SciTegic.value.DoubleValue
-8.661

@<SCITEGIC>MOL_PROPERTY
VdW
SciTegic.value.DoubleValue
2.887

@<SCITEGIC>MOL_PROPERTY
VdW6
SciTegic.value.DoubleValue
-12.561

@<SCITEGIC>MOL_PROPERTY
VdW12
SciTegic.value.DoubleValue
15.448

@<SCITEGIC>MOL_PROPERTY
Bond
SciTegic.value.DoubleValue
0.433

@<SCITEGIC>MOL_PROPERTY
Angle
SciTegic.value.DoubleValue
5.120

@<SCITEGIC>MOL_PROPERTY
Pdih
SciTegic.value.DoubleValue
11.401

@<SCITEGIC>MOL_PROPERTY
Idih
SciTegic.value.DoubleValue
0.000

@<SCITEGIC>MOL_PROPERTY
Tether
SciTegic.value.DoubleValue
0.000

@<TRIPOS>MOLECULE
guest-s17_confgen4.mol2 : confsearch ligand conformer 297
          25          25           1
SMALL
USER_CHARGES
 
@<TRIPOS>ATOM
       1    C1      20.186190   17.177468   22.155021 C.3        1 MOL1        -0.1684
       2    H1      19.220293   16.659639   22.081497 H          1 MOL1         0.0833
       3    H2      20.947342   16.417403   21.931710 H          1 MOL1         0.0833
       4    C2      20.397527   17.640982   23.619582 C.3        1 MOL1        -0.1684
       5    H3      19.464457   18.034016   24.038758 H          1 MOL1         0.0833
       6    H4      20.606693   16.741741   24.215122 H          1 MOL1         0.0833
       7    C3      21.558808   18.644967   23.838649 C.3        1 MOL1        -0.1684
       8    H5      22.318519   18.548144   23.052355 H          1 MOL1         0.0833
       9    H6      22.070695   18.359999   24.768019 H          1 MOL1         0.0833
      10    C4      21.117859   20.125049   23.999693 C.3        1 MOL1        -0.1760
      11    H7      20.391744   20.197500   24.819890 H          1 MOL1         0.0833
      12    H8      21.996898   20.695417   24.328639 H          1 MOL1         0.0833
      13    C5      20.546421   20.825685   22.741337 C.3        1 MOL1         0.1219
      14    H9      21.262026   20.724811   21.914532 H          1 MOL1         0.0790
      15    C6      19.156394   20.301943   22.296266 C.3        1 MOL1        -0.1760
      16    H10     18.643296   19.825213   23.137692 H          1 MOL1         0.0833
      17    H11     18.517065   21.154194   22.028792 H          1 MOL1         0.0833
      18    C7      19.174736   19.350000   21.072035 C.3        1 MOL1        -0.1684
      19    H12     19.300331   19.964804   20.170207 H          1 MOL1         0.0833
      20    H13     18.188826   18.875777   20.974092 H          1 MOL1         0.0833
      21    C8      20.273056   18.257584   21.047766 C.3        1 MOL1        -0.1684
      22    H14     21.269416   18.714056   21.037588 H          1 MOL1         0.0833
      23    H15     20.196590   17.740404   20.081597 H          1 MOL1         0.0833
      24    O1      20.422740   22.208761   23.047871 O.3        1 MOL1        -0.5508
      25    H16     19.784821   22.272056   23.788139 H          1 MOL1         0.3780
@<TRIPOS>BOND
    1     1     2    1
    2     1     3    1
    3     1     4    1
    4     4     5    1
    5     4     6    1
    6     4     7    1
    7     7     8    1
    8     7     9    1
    9     7    10    1
   10    10    11    1
   11    10    12    1
   12    10    13    1
   13    13    14    1
   14    13    15    1
   15    15    16    1
   16    15    17    1
   17    15    18    1
   18    18    19    1
   19    18    20    1
   20     1    21    1
   21    18    21    1
   22    21    22    1
   23    21    23    1
   24    13    24    1
   25    24    25    1
@<TRIPOS>SUBSTRUCTURE
       1 MOL1            1 RESIDUE      1      MOL     
@<SCITEGIC>MOL_PROPERTY
VConf Rank
SciTegic.value.IntegerValue
297

@<SCITEGIC>MOL_PROPERTY
Conf_Id
SciTegic.value.IntegerValue
68

@<SCITEGIC>MOL_PROPERTY
Delta U+W
SciTegic.value.DoubleValue
-1.765

@<SCITEGIC>MOL_PROPERTY
U+W
SciTegic.value.DoubleValue
9.148

@<SCITEGIC>MOL_PROPERTY
Grad RMS
SciTegic.value.DoubleValue
0.000000

@<SCITEGIC>MOL_PROPERTY
U
SciTegic.value.DoubleValue
11.181

@<SCITEGIC>MOL_PROPERTY
W
SciTegic.value.DoubleValue
-2.032

@<SCITEGIC>MOL_PROPERTY
W(PB)
SciTegic.value.DoubleValue
-4.147

@<SCITEGIC>MOL_PROPERTY
W(SA)
SciTegic.value.DoubleValue
2.114

@<SCITEGIC>MOL_PROPERTY
Valence
SciTegic.value.DoubleValue
16.955

@<SCITEGIC>MOL_PROPERTY
Coulomb
SciTegic.value.DoubleValue
-8.661

@<SCITEGIC>MOL_PROPERTY
VdW
SciTegic.value.DoubleValue
2.887

@<SCITEGIC>MOL_PROPERTY
VdW6
SciTegic.value.DoubleValue
-12.561

@<SCITEGIC>MOL_PROPERTY
VdW12
SciTegic.value.DoubleValue
15.448

@<SCITEGIC>MOL_PROPERTY
Bond
SciTegic.value.DoubleValue
0.433

@<SCITEGIC>MOL_PROPERTY
Angle
SciTegic.value.DoubleValue
5.121

@<SCITEGIC>MOL_PROPERTY
Pdih
SciTegic.value.DoubleValue
11.402

@<SCITEGIC>MOL_PROPERTY
Idih
SciTegic.value.DoubleValue
0.000

@<SCITEGIC>MOL_PROPERTY
Tether
SciTegic.value.DoubleValue
0.000

@<TRIPOS>MOLECULE
guest-s17_confgen4.mol2 : confsearch ligand conformer 298
          25          25           1
SMALL
USER_CHARGES
 
@<TRIPOS>ATOM
       1    C1      20.919093   20.181575   21.229622 C.3        1 MOL1        -0.1684
       2    H1      21.205080   20.773540   20.349358 H          1 MOL1         0.0833
       3    H2      21.861109   19.745696   21.581060 H          1 MOL1         0.0833
       4    C2      19.943276   19.069316   20.764904 C.3        1 MOL1        -0.1684
       5    H3      18.898601   19.380521   20.893050 H          1 MOL1         0.0833
       6    H4      20.073975   18.947422   19.680894 H          1 MOL1         0.0833
       7    C3      20.186445   17.679062   21.408851 C.3        1 MOL1        -0.1684
       8    H5      21.224489   17.369231   21.225700 H          1 MOL1         0.0833
       9    H6      19.562983   16.949898   20.873643 H          1 MOL1         0.0833
      10    C4      19.871846   17.547917   22.922912 C.3        1 MOL1        -0.1760
      11    H7      18.829478   17.824737   23.121400 H          1 MOL1         0.0833
      12    H8      19.937965   16.479186   23.167969 H          1 MOL1         0.0833
      13    C5      20.838854   18.328619   23.850429 C.3        1 MOL1         0.1219
      14    H9      21.763499   18.544026   23.302546 H          1 MOL1         0.0790
      15    C6      20.266345   19.650029   24.419773 C.3        1 MOL1        -0.1760
      16    H10     19.575565   19.406630   25.237793 H          1 MOL1         0.0833
      17    H11     21.088494   20.214406   24.878720 H          1 MOL1         0.0833
      18    C7      19.508040   20.576039   23.434105 C.3        1 MOL1        -0.1684
      19    H12     19.110058   21.417873   24.016899 H          1 MOL1         0.0833
      20    H13     18.620176   20.069714   23.038328 H          1 MOL1         0.0833
      21    C8      20.348134   21.172455   22.277096 C.3        1 MOL1        -0.1684
      22    H14     21.173749   21.764329   22.694986 H          1 MOL1         0.0833
      23    H15     19.709222   21.890337   21.744710 H          1 MOL1         0.0833
      24    O1      21.176421   17.498271   24.954628 O.3        1 MOL1        -0.5508
      25    H16     20.337701   17.302306   25.420498 H          1 MOL1         0.3780
@<TRIPOS>BOND
    1     1     2    1
    2     1     3    1
    3     1     4    1
    4     4     5    1
    5     4     6    1
    6     4     7    1
    7     7     8    1
    8     7     9    1
    9     7    10    1
   10    10    11    1
   11    10    12    1
   12    10    13    1
   13    13    14    1
   14    13    15    1
   15    15    16    1
   16    15    17    1
   17    15    18    1
   18    18    19    1
   19    18    20    1
   20     1    21    1
   21    18    21    1
   22    21    22    1
   23    21    23    1
   24    13    24    1
   25    24    25    1
@<TRIPOS>SUBSTRUCTURE
       1 MOL1            1 RESIDUE      1      MOL     
@<SCITEGIC>MOL_PROPERTY
VConf Rank
SciTegic.value.IntegerValue
298

@<SCITEGIC>MOL_PROPERTY
Conf_Id
SciTegic.value.IntegerValue
165

@<SCITEGIC>MOL_PROPERTY
Delta U+W
SciTegic.value.DoubleValue
-1.999

@<SCITEGIC>MOL_PROPERTY
U+W
SciTegic.value.DoubleValue
8.915

@<SCITEGIC>MOL_PROPERTY
Grad RMS
SciTegic.value.DoubleValue
0.000000

@<SCITEGIC>MOL_PROPERTY
U
SciTegic.value.DoubleValue
10.935

@<SCITEGIC>MOL_PROPERTY
W
SciTegic.value.DoubleValue
-2.020

@<SCITEGIC>MOL_PROPERTY
W(PB)
SciTegic.value.DoubleValue
-4.135

@<SCITEGIC>MOL_PROPERTY
W(SA)
SciTegic.value.DoubleValue
2.115

@<SCITEGIC>MOL_PROPERTY
Valence
SciTegic.value.DoubleValue
16.757

@<SCITEGIC>MOL_PROPERTY
Coulomb
SciTegic.value.DoubleValue
-8.731

@<SCITEGIC>MOL_PROPERTY
VdW
SciTegic.value.DoubleValue
2.908

@<SCITEGIC>MOL_PROPERTY
VdW6
SciTegic.value.DoubleValue
-12.597

@<SCITEGIC>MOL_PROPERTY
VdW12
SciTegic.value.DoubleValue
15.506

@<SCITEGIC>MOL_PROPERTY
Bond
SciTegic.value.DoubleValue
0.434

@<SCITEGIC>MOL_PROPERTY
Angle
SciTegic.value.DoubleValue
5.069

@<SCITEGIC>MOL_PROPERTY
Pdih
SciTegic.value.DoubleValue
11.254

@<SCITEGIC>MOL_PROPERTY
Idih
SciTegic.value.DoubleValue
0.000

@<SCITEGIC>MOL_PROPERTY
Tether
SciTegic.value.DoubleValue
0.000

@<TRIPOS>MOLECULE
guest-s17_confgen4.mol2 : confsearch ligand conformer 299
          25          25           1
SMALL
USER_CHARGES
 
@<TRIPOS>ATOM
       1    C1      19.396697   17.610156   22.379141 C.3        1 MOL1        -0.1684
       2    H1      18.855505   16.657272   22.300358 H          1 MOL1         0.0833
       3    H2      19.323254   18.047190   21.376938 H          1 MOL1         0.0833
       4    C2      20.869894   17.268173   22.722927 C.3        1 MOL1        -0.1684
       5    H3      20.860193   16.464032   23.471439 H          1 MOL1         0.0833
       6    H4      21.353205   16.839463   21.834566 H          1 MOL1         0.0833
       7    C3      21.751560   18.411322   23.285257 C.3        1 MOL1        -0.1684
       8    H5      22.720084   17.972411   23.560974 H          1 MOL1         0.0833
       9    H6      21.337504   18.782185   24.229879 H          1 MOL1         0.0833
      10    C4      22.037288   19.589807   22.319047 C.3        1 MOL1        -0.1760
      11    H7      22.754572   20.256384   22.816736 H          1 MOL1         0.0833
      12    H8      22.550757   19.202504   21.429630 H          1 MOL1         0.0833
      13    C5      20.825587   20.438503   21.861598 C.3        1 MOL1         0.1219
      14    H9      20.277437   19.895914   21.082504 H          1 MOL1         0.0790
      15    C6      19.840423   20.822408   22.995728 C.3        1 MOL1        -0.1760
      16    H10     20.336573   20.785903   23.972775 H          1 MOL1         0.0833
      17    H11     19.550106   21.873290   22.861959 H          1 MOL1         0.0833
      18    C7      18.529685   19.991530   23.020211 C.3        1 MOL1        -0.1684
      19    H12     18.033648   20.067639   22.042897 H          1 MOL1         0.0833
      20    H13     17.845471   20.468102   23.735406 H          1 MOL1         0.0833
      21    C8      18.659777   18.497182   23.416277 C.3        1 MOL1        -0.1684
      22    H14     17.639387   18.103763   23.521331 H          1 MOL1         0.0833
      23    H15     19.108405   18.396274   24.412851 H          1 MOL1         0.0833
      24    O1      21.337032   21.634136   21.283325 O.3        1 MOL1        -0.5508
      25    H16     21.919494   21.363046   20.543266 H          1 MOL1         0.3780
@<TRIPOS>BOND
    1     1     2    1
    2     1     3    1
    3     1     4    1
    4     4     5    1
    5     4     6    1
    6     4     7    1
    7     7     8    1
    8     7     9    1
    9     7    10    1
   10    10    11    1
   11    10    12    1
   12    10    13    1
   13    13    14    1
   14    13    15    1
   15    15    16    1
   16    15    17    1
   17    15    18    1
   18    18    19    1
   19    18    20    1
   20     1    21    1
   21    18    21    1
   22    21    22    1
   23    21    23    1
   24    13    24    1
   25    24    25    1
@<TRIPOS>SUBSTRUCTURE
       1 MOL1            1 RESIDUE      1      MOL     
@<SCITEGIC>MOL_PROPERTY
VConf Rank
SciTegic.value.IntegerValue
299

@<SCITEGIC>MOL_PROPERTY
Conf_Id
SciTegic.value.IntegerValue
133

@<SCITEGIC>MOL_PROPERTY
Delta U+W
SciTegic.value.DoubleValue
-2.139

@<SCITEGIC>MOL_PROPERTY
U+W
SciTegic.value.DoubleValue
8.774

@<SCITEGIC>MOL_PROPERTY
Grad RMS
SciTegic.value.DoubleValue
0.000000

@<SCITEGIC>MOL_PROPERTY
U
SciTegic.value.DoubleValue
10.905

@<SCITEGIC>MOL_PROPERTY
W
SciTegic.value.DoubleValue
-2.131

@<SCITEGIC>MOL_PROPERTY
W(PB)
SciTegic.value.DoubleValue
-4.281

@<SCITEGIC>MOL_PROPERTY
W(SA)
SciTegic.value.DoubleValue
2.150

@<SCITEGIC>MOL_PROPERTY
Valence
SciTegic.value.DoubleValue
16.378

@<SCITEGIC>MOL_PROPERTY
Coulomb
SciTegic.value.DoubleValue
-8.448

@<SCITEGIC>MOL_PROPERTY
VdW
SciTegic.value.DoubleValue
2.976

@<SCITEGIC>MOL_PROPERTY
VdW6
SciTegic.value.DoubleValue
-12.570

@<SCITEGIC>MOL_PROPERTY
VdW12
SciTegic.value.DoubleValue
15.545

@<SCITEGIC>MOL_PROPERTY
Bond
SciTegic.value.DoubleValue
0.439

@<SCITEGIC>MOL_PROPERTY
Angle
SciTegic.value.DoubleValue
5.049

@<SCITEGIC>MOL_PROPERTY
Pdih
SciTegic.value.DoubleValue
10.889

@<SCITEGIC>MOL_PROPERTY
Idih
SciTegic.value.DoubleValue
0.000

@<SCITEGIC>MOL_PROPERTY
Tether
SciTegic.value.DoubleValue
0.000

@<TRIPOS>MOLECULE
guest-s17_confgen4.mol2 : confsearch ligand conformer 300
          25          25           1
SMALL
USER_CHARGES
 
@<TRIPOS>ATOM
       1    C1      21.012704   20.858069   23.117992 C.3        1 MOL1        -0.1684
       2    H1      21.523210   21.801574   23.355203 H          1 MOL1         0.0833
       3    H2      20.050365   20.932772   23.636764 H          1 MOL1         0.0833
       4    C2      21.857354   19.694896   23.700331 C.3        1 MOL1        -0.1684
       5    H3      22.534793   19.280198   22.942894 H          1 MOL1         0.0833
       6    H4      22.515807   20.118725   24.470929 H          1 MOL1         0.0833
       7    C3      21.034479   18.568065   24.378565 C.3        1 MOL1        -0.1684
       8    H5      20.401982   19.001739   25.165243 H          1 MOL1         0.0833
       9    H6      21.740144   17.906705   24.899540 H          1 MOL1         0.0833
      10    C4      20.161032   17.685977   23.446900 C.3        1 MOL1        -0.1760
      11    H7      20.778735   17.217380   22.671671 H          1 MOL1         0.0833
      12    H8      19.785798   16.852281   24.055737 H          1 MOL1         0.0833
      13    C5      18.947396   18.418056   22.818147 C.3        1 MOL1         0.1219
      14    H9      18.728395   19.315659   23.408236 H          1 MOL1         0.0790
      15    C6      19.131994   18.815463   21.332975 C.3        1 MOL1        -0.1760
      16    H10     19.001017   17.914754   20.718090 H          1 MOL1         0.0833
      17    H11     18.320222   19.497104   21.048177 H          1 MOL1         0.0833
      18    C7      20.486675   19.456070   20.934869 C.3        1 MOL1        -0.1684
      19    H12     20.471668   19.602618   19.846293 H          1 MOL1         0.0833
      20    H13     21.308763   18.752018   21.107421 H          1 MOL1         0.0833
      21    C8      20.807512   20.827181   21.580982 C.3        1 MOL1        -0.1684
      22    H14     20.024381   21.548597   21.311104 H          1 MOL1         0.0833
      23    H15     21.728479   21.201679   21.113463 H          1 MOL1         0.0833
      24    O1      17.814309   17.560036   22.891810 O.3        1 MOL1        -0.5508
      25    H16     17.055158   18.063299   22.530071 H          1 MOL1         0.3780
@<TRIPOS>BOND
    1     1     2    1
    2     1     3    1
    3     1     4    1
    4     4     5    1
    5     4     6    1
    6     4     7    1
    7     7     8    1
    8     7     9    1
    9     7    10    1
   10    10    11    1
   11    10    12    1
   12    10    13    1
   13    13    14    1
   14    13    15    1
   15    15    16    1
   16    15    17    1
   17    15    18    1
   18    18    19    1
   19    18    20    1
   20     1    21    1
   21    18    21    1
   22    21    22    1
   23    21    23    1
   24    13    24    1
   25    24    25    1
@<TRIPOS>SUBSTRUCTURE
       1 MOL1            1 RESIDUE      1      MOL     
@<SCITEGIC>MOL_PROPERTY
VConf Rank
SciTegic.value.IntegerValue
300

@<SCITEGIC>MOL_PROPERTY
Conf_Id
SciTegic.value.IntegerValue
95

@<SCITEGIC>MOL_PROPERTY
Delta U+W
SciTegic.value.DoubleValue
-2.190

@<SCITEGIC>MOL_PROPERTY
U+W
SciTegic.value.DoubleValue
8.723

@<SCITEGIC>MOL_PROPERTY
Grad RMS
SciTegic.value.DoubleValue
0.000000

@<SCITEGIC>MOL_PROPERTY
U
SciTegic.value.DoubleValue
10.905

@<SCITEGIC>MOL_PROPERTY
W
SciTegic.value.DoubleValue
-2.182

@<SCITEGIC>MOL_PROPERTY
W(PB)
SciTegic.value.DoubleValue
-4.296

@<SCITEGIC>MOL_PROPERTY
W(SA)
SciTegic.value.DoubleValue
2.114

@<SCITEGIC>MOL_PROPERTY
Valence
SciTegic.value.DoubleValue
16.377

@<SCITEGIC>MOL_PROPERTY
Coulomb
SciTegic.value.DoubleValue
-8.448

@<SCITEGIC>MOL_PROPERTY
VdW
SciTegic.value.DoubleValue
2.976

@<SCITEGIC>MOL_PROPERTY
VdW6
SciTegic.value.DoubleValue
-12.570

@<SCITEGIC>MOL_PROPERTY
VdW12
SciTegic.value.DoubleValue
15.546

@<SCITEGIC>MOL_PROPERTY
Bond
SciTegic.value.DoubleValue
0.439

@<SCITEGIC>MOL_PROPERTY
Angle
SciTegic.value.DoubleValue
5.049

@<SCITEGIC>MOL_PROPERTY
Pdih
SciTegic.value.DoubleValue
10.889

@<SCITEGIC>MOL_PROPERTY
Idih
SciTegic.value.DoubleValue
0.000

@<SCITEGIC>MOL_PROPERTY
Tether
SciTegic.value.DoubleValue
0.000

@<TRIPOS>MOLECULE
guest-s17_confgen4.mol2 : confsearch ligand conformer 301
          25          25           1
SMALL
USER_CHARGES
 
@<TRIPOS>ATOM
       1    C1      19.709586   17.946477   21.440199 C.3        1 MOL1        -0.1684
       2    H1      19.372654   17.294427   20.622759 H          1 MOL1         0.0833
       3    H2      19.324005   17.450003   22.336344 H          1 MOL1         0.0833
       4    C2      19.025187   19.329254   21.231049 C.3        1 MOL1        -0.1684
       5    H3      18.953192   19.498810   20.147994 H          1 MOL1         0.0833
       6    H4      17.987642   19.270829   21.586799 H          1 MOL1         0.0833
       7    C3      19.705563   20.583657   21.839373 C.3        1 MOL1        -0.1684
       8    H5      19.150412   21.465067   21.490457 H          1 MOL1         0.0833
       9    H6      20.695815   20.711056   21.390821 H          1 MOL1         0.0833
      10    C4      19.783855   20.675649   23.392412 C.3        1 MOL1        -0.1760
      11    H7      20.577659   21.382910   23.666326 H          1 MOL1         0.0833
      12    H8      18.846791   21.134027   23.734558 H          1 MOL1         0.0833
      13    C5      19.974142   19.364516   24.196409 C.3        1 MOL1         0.1219
      14    H9      19.149199   18.689829   23.945248 H          1 MOL1         0.0790
      15    C6      21.328214   18.619128   24.018983 C.3        1 MOL1        -0.1760
      16    H10     22.048875   19.055249   24.723796 H          1 MOL1         0.0833
      17    H11     21.193459   17.578723   24.340987 H          1 MOL1         0.0833
      18    C7      22.002513   18.630546   22.620339 C.3        1 MOL1        -0.1684
      19    H12     22.986030   18.152017   22.722401 H          1 MOL1         0.0833
      20    H13     22.247112   19.661358   22.345258 H          1 MOL1         0.0833
      21    C8      21.260575   17.908259   21.457869 C.3        1 MOL1        -0.1684
      22    H14     21.554299   16.850103   21.487866 H          1 MOL1         0.0833
      23    H15     21.642144   18.290363   20.501394 H          1 MOL1         0.0833
      24    O1      19.848315   19.689813   25.575889 O.3        1 MOL1        -0.5508
      25    H16     18.965844   20.099880   25.690548 H          1 MOL1         0.3780
@<TRIPOS>BOND
    1     1     2    1
    2     1     3    1
    3     1     4    1
    4     4     5    1
    5     4     6    1
    6     4     7    1
    7     7     8    1
    8     7     9    1
    9     7    10    1
   10    10    11    1
   11    10    12    1
   12    10    13    1
   13    13    14    1
   14    13    15    1
   15    15    16    1
   16    15    17    1
   17    15    18    1
   18    18    19    1
   19    18    20    1
   20     1    21    1
   21    18    21    1
   22    21    22    1
   23    21    23    1
   24    13    24    1
   25    24    25    1
@<TRIPOS>SUBSTRUCTURE
       1 MOL1            1 RESIDUE      1      MOL     
@<SCITEGIC>MOL_PROPERTY
VConf Rank
SciTegic.value.IntegerValue
301

@<SCITEGIC>MOL_PROPERTY
Conf_Id
SciTegic.value.IntegerValue
161

@<SCITEGIC>MOL_PROPERTY
Delta U+W
SciTegic.value.DoubleValue
2.120

@<SCITEGIC>MOL_PROPERTY
U+W
SciTegic.value.DoubleValue
13.033

@<SCITEGIC>MOL_PROPERTY
Grad RMS
SciTegic.value.DoubleValue
0.000000

@<SCITEGIC>MOL_PROPERTY
U
SciTegic.value.DoubleValue
15.076

@<SCITEGIC>MOL_PROPERTY
W
SciTegic.value.DoubleValue
-2.043

@<SCITEGIC>MOL_PROPERTY
W(PB)
SciTegic.value.DoubleValue
-4.186

@<SCITEGIC>MOL_PROPERTY
W(SA)
SciTegic.value.DoubleValue
2.143

@<SCITEGIC>MOL_PROPERTY
Valence
SciTegic.value.DoubleValue
18.884

@<SCITEGIC>MOL_PROPERTY
Coulomb
SciTegic.value.DoubleValue
-8.074

@<SCITEGIC>MOL_PROPERTY
VdW
SciTegic.value.DoubleValue
4.266

@<SCITEGIC>MOL_PROPERTY
VdW6
SciTegic.value.DoubleValue
-13.486

@<SCITEGIC>MOL_PROPERTY
VdW12
SciTegic.value.DoubleValue
17.752

@<SCITEGIC>MOL_PROPERTY
Bond
SciTegic.value.DoubleValue
0.713

@<SCITEGIC>MOL_PROPERTY
Angle
SciTegic.value.DoubleValue
8.955

@<SCITEGIC>MOL_PROPERTY
Pdih
SciTegic.value.DoubleValue
9.215

@<SCITEGIC>MOL_PROPERTY
Idih
SciTegic.value.DoubleValue
0.000

@<SCITEGIC>MOL_PROPERTY
Tether
SciTegic.value.DoubleValue
0.000

@<TRIPOS>MOLECULE
guest-s17_confgen4.mol2 : confsearch ligand conformer 302
          25          25           1
SMALL
USER_CHARGES
 
@<TRIPOS>ATOM
       1    C1      19.275240   19.550193   24.281790 C.3        1 MOL1        -0.1684
       2    H1      18.516520   19.834913   25.023588 H          1 MOL1         0.0833
       3    H2      20.181374   19.355652   24.869421 H          1 MOL1         0.0833
       4    C2      19.504093   20.760741   23.342707 C.3        1 MOL1        -0.1684
       5    H3      18.781269   20.755482   22.515855 H          1 MOL1         0.0833
       6    H4      19.272481   21.663308   23.924860 H          1 MOL1         0.0833
       7    C3      20.957635   20.925085   22.817791 C.3        1 MOL1        -0.1684
       8    H5      21.690759   20.654409   23.589510 H          1 MOL1         0.0833
       9    H6      21.109919   21.998011   22.636573 H          1 MOL1         0.0833
      10    C4      21.266822   20.196682   21.484260 C.3        1 MOL1        -0.1760
      11    H7      20.377036   20.200697   20.842986 H          1 MOL1         0.0833
      12    H8      22.009426   20.796152   20.941298 H          1 MOL1         0.0833
      13    C5      21.856935   18.768700   21.604527 C.3        1 MOL1         0.1219
      14    H9      22.882200   18.858750   21.991174 H          1 MOL1         0.0790
      15    C6      21.098798   17.786175   22.526892 C.3        1 MOL1        -0.1760
      16    H10     21.481379   16.773875   22.339900 H          1 MOL1         0.0833
      17    H11     21.371361   17.992711   23.567476 H          1 MOL1         0.0833
      18    C7      19.556903   17.779456   22.348723 C.3        1 MOL1        -0.1684
      19    H12     19.233677   16.757875   22.106594 H          1 MOL1         0.0833
      20    H13     19.254058   18.382662   21.485284 H          1 MOL1         0.0833
      21    C8      18.776176   18.248952   23.599611 C.3        1 MOL1        -0.1684
      22    H14     18.790461   17.443990   24.347035 H          1 MOL1         0.0833
      23    H15     17.721862   18.377134   23.318947 H          1 MOL1         0.0833
      24    O1      21.907326   18.204141   20.301799 O.3        1 MOL1        -0.5508
      25    H16     20.979232   18.014311   20.056004 H          1 MOL1         0.3780
@<TRIPOS>BOND
    1     1     2    1
    2     1     3    1
    3     1     4    1
    4     4     5    1
    5     4     6    1
    6     4     7    1
    7     7     8    1
    8     7     9    1
    9     7    10    1
   10    10    11    1
   11    10    12    1
   12    10    13    1
   13    13    14    1
   14    13    15    1
   15    15    16    1
   16    15    17    1
   17    15    18    1
   18    18    19    1
   19    18    20    1
   20     1    21    1
   21    18    21    1
   22    21    22    1
   23    21    23    1
   24    13    24    1
   25    24    25    1
@<TRIPOS>SUBSTRUCTURE
       1 MOL1            1 RESIDUE      1      MOL     
@<SCITEGIC>MOL_PROPERTY
VConf Rank
SciTegic.value.IntegerValue
302

@<SCITEGIC>MOL_PROPERTY
Conf_Id
SciTegic.value.IntegerValue
164

@<SCITEGIC>MOL_PROPERTY
Delta U+W
SciTegic.value.DoubleValue
0.008

@<SCITEGIC>MOL_PROPERTY
U+W
SciTegic.value.DoubleValue
10.922

@<SCITEGIC>MOL_PROPERTY
Grad RMS
SciTegic.value.DoubleValue
0.000000

@<SCITEGIC>MOL_PROPERTY
U
SciTegic.value.DoubleValue
12.433

@<SCITEGIC>MOL_PROPERTY
W
SciTegic.value.DoubleValue
-1.511

@<SCITEGIC>MOL_PROPERTY
W(PB)
SciTegic.value.DoubleValue
-3.669

@<SCITEGIC>MOL_PROPERTY
W(SA)
SciTegic.value.DoubleValue
2.157

@<SCITEGIC>MOL_PROPERTY
Valence
SciTegic.value.DoubleValue
19.007

@<SCITEGIC>MOL_PROPERTY
Coulomb
SciTegic.value.DoubleValue
-9.373

@<SCITEGIC>MOL_PROPERTY
VdW
SciTegic.value.DoubleValue
2.799

@<SCITEGIC>MOL_PROPERTY
VdW6
SciTegic.value.DoubleValue
-12.597

@<SCITEGIC>MOL_PROPERTY
VdW12
SciTegic.value.DoubleValue
15.396

@<SCITEGIC>MOL_PROPERTY
Bond
SciTegic.value.DoubleValue
0.425

@<SCITEGIC>MOL_PROPERTY
Angle
SciTegic.value.DoubleValue
4.784

@<SCITEGIC>MOL_PROPERTY
Pdih
SciTegic.value.DoubleValue
13.799

@<SCITEGIC>MOL_PROPERTY
Idih
SciTegic.value.DoubleValue
0.000

@<SCITEGIC>MOL_PROPERTY
Tether
SciTegic.value.DoubleValue
0.000

@<TRIPOS>MOLECULE
guest-s17_confgen4.mol2 : confsearch ligand conformer 303
          25          25           1
SMALL
USER_CHARGES
 
@<TRIPOS>ATOM
       1    C1      18.760250   18.558987   23.325489 C.3        1 MOL1        -0.1684
       2    H1      18.543764   19.602933   23.072048 H          1 MOL1         0.0833
       3    H2      17.818485   18.174297   23.739936 H          1 MOL1         0.0833
       4    C2      19.822046   18.484909   24.451020 C.3        1 MOL1        -0.1684
       5    H3      19.411787   19.008921   25.325092 H          1 MOL1         0.0833
       6    H4      19.947169   17.439369   24.763585 H          1 MOL1         0.0833
       7    C3      21.216772   19.089565   24.147880 C.3        1 MOL1        -0.1684
       8    H5      21.839052   18.369014   23.605075 H          1 MOL1         0.0833
       9    H6      21.728117   19.223239   25.111032 H          1 MOL1         0.0833
      10    C4      21.200946   20.456890   23.413748 C.3        1 MOL1        -0.1760
      11    H7      20.258552   20.988214   23.593662 H          1 MOL1         0.0833
      12    H8      21.978790   21.082222   23.872176 H          1 MOL1         0.0833
      13    C5      21.512580   20.386471   21.897701 C.3        1 MOL1         0.1219
      14    H9      22.459258   19.842904   21.767564 H          1 MOL1         0.0790
      15    C6      20.442735   19.713970   21.001233 C.3        1 MOL1        -0.1760
      16    H10     19.475407   20.220868   21.101789 H          1 MOL1         0.0833
      17    H11     20.749033   19.877247   19.959234 H          1 MOL1         0.0833
      18    C7      20.291058   18.182537   21.202450 C.3        1 MOL1        -0.1684
      19    H12     21.213051   17.755634   21.613237 H          1 MOL1         0.0833
      20    H13     20.188857   17.715075   20.213491 H          1 MOL1         0.0833
      21    C8      19.065596   17.743728   22.044148 C.3        1 MOL1        -0.1684
      22    H14     19.174958   16.682748   22.306576 H          1 MOL1         0.0833
      23    H15     18.177955   17.799998   21.399300 H          1 MOL1         0.0833
      24    O1      21.689976   21.717256   21.432148 O.3        1 MOL1        -0.5508
      25    H16     20.832448   22.171813   21.561806 H          1 MOL1         0.3780
@<TRIPOS>BOND
    1     1     2    1
    2     1     3    1
    3     1     4    1
    4     4     5    1
    5     4     6    1
    6     4     7    1
    7     7     8    1
    8     7     9    1
    9     7    10    1
   10    10    11    1
   11    10    12    1
   12    10    13    1
   13    13    14    1
   14    13    15    1
   15    15    16    1
   16    15    17    1
   17    15    18    1
   18    18    19    1
   19    18    20    1
   20     1    21    1
   21    18    21    1
   22    21    22    1
   23    21    23    1
   24    13    24    1
   25    24    25    1
@<TRIPOS>SUBSTRUCTURE
       1 MOL1            1 RESIDUE      1      MOL     
@<SCITEGIC>MOL_PROPERTY
VConf Rank
SciTegic.value.IntegerValue
303

@<SCITEGIC>MOL_PROPERTY
Conf_Id
SciTegic.value.IntegerValue
15

@<SCITEGIC>MOL_PROPERTY
Delta U+W
SciTegic.value.DoubleValue
-1.271

@<SCITEGIC>MOL_PROPERTY
U+W
SciTegic.value.DoubleValue
9.643

@<SCITEGIC>MOL_PROPERTY
Grad RMS
SciTegic.value.DoubleValue
0.000000

@<SCITEGIC>MOL_PROPERTY
U
SciTegic.value.DoubleValue
11.413

@<SCITEGIC>MOL_PROPERTY
W
SciTegic.value.DoubleValue
-1.770

@<SCITEGIC>MOL_PROPERTY
W(PB)
SciTegic.value.DoubleValue
-3.908

@<SCITEGIC>MOL_PROPERTY
W(SA)
SciTegic.value.DoubleValue
2.138

@<SCITEGIC>MOL_PROPERTY
Valence
SciTegic.value.DoubleValue
17.496

@<SCITEGIC>MOL_PROPERTY
Coulomb
SciTegic.value.DoubleValue
-8.736

@<SCITEGIC>MOL_PROPERTY
VdW
SciTegic.value.DoubleValue
2.653

@<SCITEGIC>MOL_PROPERTY
VdW6
SciTegic.value.DoubleValue
-12.485

@<SCITEGIC>MOL_PROPERTY
VdW12
SciTegic.value.DoubleValue
15.138

@<SCITEGIC>MOL_PROPERTY
Bond
SciTegic.value.DoubleValue
0.414

@<SCITEGIC>MOL_PROPERTY
Angle
SciTegic.value.DoubleValue
5.295

@<SCITEGIC>MOL_PROPERTY
Pdih
SciTegic.value.DoubleValue
11.787

@<SCITEGIC>MOL_PROPERTY
Idih
SciTegic.value.DoubleValue
0.000

@<SCITEGIC>MOL_PROPERTY
Tether
SciTegic.value.DoubleValue
0.000

@<TRIPOS>MOLECULE
guest-s17_confgen4.mol2 : confsearch ligand conformer 304
          25          25           1
SMALL
USER_CHARGES
 
@<TRIPOS>ATOM
       1    C1      18.893501   18.666648   23.774011 C.3        1 MOL1        -0.1684
       2    H1      18.187240   18.403794   24.573439 H          1 MOL1         0.0833
       3    H2      18.646055   17.987954   22.947990 H          1 MOL1         0.0833
       4    C2      18.602805   20.138360   23.378558 C.3        1 MOL1        -0.1684
       5    H3      17.606723   20.176846   22.916862 H          1 MOL1         0.0833
       6    H4      18.531937   20.744443   24.292022 H          1 MOL1         0.0833
       7    C3      19.617432   20.814429   22.425250 C.3        1 MOL1        -0.1684
       8    H5      20.503533   21.123357   22.991959 H          1 MOL1         0.0833
       9    H6      19.173769   21.752637   22.065090 H          1 MOL1         0.0833
      10    C4      20.011988   19.947636   21.201138 C.3        1 MOL1        -0.1760
      11    H7      19.378834   19.056096   21.132853 H          1 MOL1         0.0833
      12    H8      19.795794   20.517739   20.288209 H          1 MOL1         0.0833
      13    C5      21.503590   19.543492   21.155777 C.3        1 MOL1         0.1219
      14    H9      22.081288   20.435958   20.875424 H          1 MOL1         0.0790
      15    C6      22.114790   18.999867   22.473118 C.3        1 MOL1        -0.1760
      16    H10     23.110127   18.606572   22.226223 H          1 MOL1         0.0833
      17    H11     22.311946   19.827643   23.164804 H          1 MOL1         0.0833
      18    C7      21.325861   17.881850   23.205696 C.3        1 MOL1        -0.1684
      19    H12     22.067870   17.257995   23.722774 H          1 MOL1         0.0833
      20    H13     20.832693   17.210551   22.490885 H          1 MOL1         0.0833
      21    C8      20.325683   18.376205   24.286916 C.3        1 MOL1        -0.1684
      22    H14     20.726916   19.239540   24.834502 H          1 MOL1         0.0833
      23    H15     20.240595   17.573513   25.032316 H          1 MOL1         0.0833
      24    O1      21.665853   18.559309   20.144114 O.3        1 MOL1        -0.5508
      25    H16     21.217815   17.756113   20.477704 H          1 MOL1         0.3780
@<TRIPOS>BOND
    1     1     2    1
    2     1     3    1
    3     1     4    1
    4     4     5    1
    5     4     6    1
    6     4     7    1
    7     7     8    1
    8     7     9    1
    9     7    10    1
   10    10    11    1
   11    10    12    1
   12    10    13    1
   13    13    14    1
   14    13    15    1
   15    15    16    1
   16    15    17    1
   17    15    18    1
   18    18    19    1
   19    18    20    1
   20     1    21    1
   21    18    21    1
   22    21    22    1
   23    21    23    1
   24    13    24    1
   25    24    25    1
@<TRIPOS>SUBSTRUCTURE
       1 MOL1            1 RESIDUE      1      MOL     
@<SCITEGIC>MOL_PROPERTY
VConf Rank
SciTegic.value.IntegerValue
304

@<SCITEGIC>MOL_PROPERTY
Conf_Id
SciTegic.value.IntegerValue
115

@<SCITEGIC>MOL_PROPERTY
Delta U+W
SciTegic.value.DoubleValue
0.038

@<SCITEGIC>MOL_PROPERTY
U+W
SciTegic.value.DoubleValue
10.952

@<SCITEGIC>MOL_PROPERTY
Grad RMS
SciTegic.value.DoubleValue
0.000000

@<SCITEGIC>MOL_PROPERTY
U
SciTegic.value.DoubleValue
12.526

@<SCITEGIC>MOL_PROPERTY
W
SciTegic.value.DoubleValue
-1.575

@<SCITEGIC>MOL_PROPERTY
W(PB)
SciTegic.value.DoubleValue
-3.698

@<SCITEGIC>MOL_PROPERTY
W(SA)
SciTegic.value.DoubleValue
2.123

@<SCITEGIC>MOL_PROPERTY
Valence
SciTegic.value.DoubleValue
19.016

@<SCITEGIC>MOL_PROPERTY
Coulomb
SciTegic.value.DoubleValue
-9.226

@<SCITEGIC>MOL_PROPERTY
VdW
SciTegic.value.DoubleValue
2.737

@<SCITEGIC>MOL_PROPERTY
VdW6
SciTegic.value.DoubleValue
-12.612

@<SCITEGIC>MOL_PROPERTY
VdW12
SciTegic.value.DoubleValue
15.349

@<SCITEGIC>MOL_PROPERTY
Bond
SciTegic.value.DoubleValue
0.421

@<SCITEGIC>MOL_PROPERTY
Angle
SciTegic.value.DoubleValue
4.883

@<SCITEGIC>MOL_PROPERTY
Pdih
SciTegic.value.DoubleValue
13.711

@<SCITEGIC>MOL_PROPERTY
Idih
SciTegic.value.DoubleValue
0.000

@<SCITEGIC>MOL_PROPERTY
Tether
SciTegic.value.DoubleValue
0.000

@<TRIPOS>MOLECULE
guest-s17_confgen4.mol2 : confsearch ligand conformer 305
          25          25           1
SMALL
USER_CHARGES
 
@<TRIPOS>ATOM
       1    C1      18.415617   18.306603   22.782901 C.3        1 MOL1        -0.1684
       2    H1      17.498769   17.879577   22.353921 H          1 MOL1         0.0833
       3    H2      18.419952   17.995674   23.836362 H          1 MOL1         0.0833
       4    C2      18.297152   19.845335   22.683878 C.3        1 MOL1        -0.1684
       5    H3      18.169773   20.147095   21.635398 H          1 MOL1         0.0833
       6    H4      17.366257   20.136220   23.189664 H          1 MOL1         0.0833
       7    C3      19.457431   20.637006   23.330335 C.3        1 MOL1        -0.1684
       8    H5      19.741901   20.182337   24.288631 H          1 MOL1         0.0833
       9    H6      19.073331   21.634677   23.583875 H          1 MOL1         0.0833
      10    C4      20.689735   20.832976   22.406775 C.3        1 MOL1        -0.1760
      11    H7      20.450769   20.585010   21.365038 H          1 MOL1         0.0833
      12    H8      20.929734   21.904869   22.404311 H          1 MOL1         0.0833
      13    C5      21.953321   20.065149   22.855935 C.3        1 MOL1         0.1219
      14    H9      21.994306   20.059165   23.954550 H          1 MOL1         0.0790
      15    C6      22.039945   18.610725   22.342534 C.3        1 MOL1        -0.1760
      16    H10     22.062563   18.601784   21.244810 H          1 MOL1         0.0833
      17    H11     23.007217   18.203118   22.664486 H          1 MOL1         0.0833
      18    C7      20.936099   17.656717   22.860281 C.3        1 MOL1        -0.1684
      19    H12     20.745588   17.835075   23.927017 H          1 MOL1         0.0833
      20    H13     21.334662   16.634401   22.803295 H          1 MOL1         0.0833
      21    C8      19.621516   17.687911   22.037539 C.3        1 MOL1        -0.1684
      22    H14     19.358949   16.648060   21.798851 H          1 MOL1         0.0833
      23    H15     19.765903   18.180646   21.066874 H          1 MOL1         0.0833
      24    O1      23.090715   20.761439   22.360795 O.3        1 MOL1        -0.5508
      25    H16     23.880637   20.291191   22.700244 H          1 MOL1         0.3780
@<TRIPOS>BOND
    1     1     2    1
    2     1     3    1
    3     1     4    1
    4     4     5    1
    5     4     6    1
    6     4     7    1
    7     7     8    1
    8     7     9    1
    9     7    10    1
   10    10    11    1
   11    10    12    1
   12    10    13    1
   13    13    14    1
   14    13    15    1
   15    15    16    1
   16    15    17    1
   17    15    18    1
   18    18    19    1
   19    18    20    1
   20     1    21    1
   21    18    21    1
   22    21    22    1
   23    21    23    1
   24    13    24    1
   25    24    25    1
@<TRIPOS>SUBSTRUCTURE
       1 MOL1            1 RESIDUE      1      MOL     
@<SCITEGIC>MOL_PROPERTY
VConf Rank
SciTegic.value.IntegerValue
305

@<SCITEGIC>MOL_PROPERTY
Conf_Id
SciTegic.value.IntegerValue
30

@<SCITEGIC>MOL_PROPERTY
Delta U+W
SciTegic.value.DoubleValue
0.000

@<SCITEGIC>MOL_PROPERTY
U+W
SciTegic.value.DoubleValue
10.913

@<SCITEGIC>MOL_PROPERTY
Grad RMS
SciTegic.value.DoubleValue
0.000000

@<SCITEGIC>MOL_PROPERTY
U
SciTegic.value.DoubleValue
13.140

@<SCITEGIC>MOL_PROPERTY
W
SciTegic.value.DoubleValue
-2.227

@<SCITEGIC>MOL_PROPERTY
W(PB)
SciTegic.value.DoubleValue
-4.367

@<SCITEGIC>MOL_PROPERTY
W(SA)
SciTegic.value.DoubleValue
2.140

@<SCITEGIC>MOL_PROPERTY
Valence
SciTegic.value.DoubleValue
19.155

@<SCITEGIC>MOL_PROPERTY
Coulomb
SciTegic.value.DoubleValue
-8.157

@<SCITEGIC>MOL_PROPERTY
VdW
SciTegic.value.DoubleValue
2.142

@<SCITEGIC>MOL_PROPERTY
VdW6
SciTegic.value.DoubleValue
-11.576

@<SCITEGIC>MOL_PROPERTY
VdW12
SciTegic.value.DoubleValue
13.718

@<SCITEGIC>MOL_PROPERTY
Bond
SciTegic.value.DoubleValue
0.294

@<SCITEGIC>MOL_PROPERTY
Angle
SciTegic.value.DoubleValue
3.547

@<SCITEGIC>MOL_PROPERTY
Pdih
SciTegic.value.DoubleValue
15.314

@<SCITEGIC>MOL_PROPERTY
Idih
SciTegic.value.DoubleValue
0.000

@<SCITEGIC>MOL_PROPERTY
Tether
SciTegic.value.DoubleValue
0.000

@<TRIPOS>MOLECULE
guest-s17_confgen4.mol2 : confsearch ligand conformer 306
          25          25           1
SMALL
USER_CHARGES
 
@<TRIPOS>ATOM
       1    C1      19.286050   20.667849   21.418089 C.3        1 MOL1        -0.1684
       2    H1      18.754573   20.585616   20.460160 H          1 MOL1         0.0833
       3    H2      19.281866   21.737367   21.668863 H          1 MOL1         0.0833
       4    C2      20.754706   20.225731   21.204398 C.3        1 MOL1        -0.1684
       5    H3      21.111270   20.677587   20.268685 H          1 MOL1         0.0833
       6    H4      21.388622   20.665426   21.983098 H          1 MOL1         0.0833
       7    C3      20.956186   18.691372   21.121044 C.3        1 MOL1        -0.1684
       8    H5      21.463354   18.452968   20.176253 H          1 MOL1         0.0833
       9    H6      19.993404   18.170756   21.060648 H          1 MOL1         0.0833
      10    C4      21.797864   18.100399   22.280305 C.3        1 MOL1        -0.1760
      11    H7      21.724978   17.005547   22.238527 H          1 MOL1         0.0833
      12    H8      22.854009   18.339169   22.099441 H          1 MOL1         0.0833
      13    C5      21.447440   18.575750   23.712583 C.3        1 MOL1         0.1219
      14    H9      21.763264   19.620481   23.834149 H          1 MOL1         0.0790
      15    C6      19.951269   18.463529   24.094912 C.3        1 MOL1        -0.1760
      16    H10     19.488133   17.613508   23.577688 H          1 MOL1         0.0833
      17    H11     19.889520   18.220927   25.164177 H          1 MOL1         0.0833
      18    C7      19.121167   19.761009   23.882251 C.3        1 MOL1        -0.1684
      19    H12     19.711149   20.655048   24.125226 H          1 MOL1         0.0833
      20    H13     18.305283   19.741706   24.617913 H          1 MOL1         0.0833
      21    C8      18.464140   19.898751   22.486492 C.3        1 MOL1        -0.1684
      22    H14     17.516785   20.440859   22.611809 H          1 MOL1         0.0833
      23    H15     18.171733   18.910009   22.110703 H          1 MOL1         0.0833
      24    O1      22.203154   17.778145   24.616431 O.3        1 MOL1        -0.5508
      25    H16     22.038716   18.135792   25.513929 H          1 MOL1         0.3780
@<TRIPOS>BOND
    1     1     2    1
    2     1     3    1
    3     1     4    1
    4     4     5    1
    5     4     6    1
    6     4     7    1
    7     7     8    1
    8     7     9    1
    9     7    10    1
   10    10    11    1
   11    10    12    1
   12    10    13    1
   13    13    14    1
   14    13    15    1
   15    15    16    1
   16    15    17    1
   17    15    18    1
   18    18    19    1
   19    18    20    1
   20     1    21    1
   21    18    21    1
   22    21    22    1
   23    21    23    1
   24    13    24    1
   25    24    25    1
@<TRIPOS>SUBSTRUCTURE
       1 MOL1            1 RESIDUE      1      MOL     
@<SCITEGIC>MOL_PROPERTY
VConf Rank
SciTegic.value.IntegerValue
306

@<SCITEGIC>MOL_PROPERTY
Conf_Id
SciTegic.value.IntegerValue
162

@<SCITEGIC>MOL_PROPERTY
Delta U+W
SciTegic.value.DoubleValue
0.219

@<SCITEGIC>MOL_PROPERTY
U+W
SciTegic.value.DoubleValue
11.132

@<SCITEGIC>MOL_PROPERTY
Grad RMS
SciTegic.value.DoubleValue
0.000000

@<SCITEGIC>MOL_PROPERTY
U
SciTegic.value.DoubleValue
13.296

@<SCITEGIC>MOL_PROPERTY
W
SciTegic.value.DoubleValue
-2.164

@<SCITEGIC>MOL_PROPERTY
W(PB)
SciTegic.value.DoubleValue
-4.311

@<SCITEGIC>MOL_PROPERTY
W(SA)
SciTegic.value.DoubleValue
2.148

@<SCITEGIC>MOL_PROPERTY
Valence
SciTegic.value.DoubleValue
18.607

@<SCITEGIC>MOL_PROPERTY
Coulomb
SciTegic.value.DoubleValue
-8.339

@<SCITEGIC>MOL_PROPERTY
VdW
SciTegic.value.DoubleValue
3.028

@<SCITEGIC>MOL_PROPERTY
VdW6
SciTegic.value.DoubleValue
-12.271

@<SCITEGIC>MOL_PROPERTY
VdW12
SciTegic.value.DoubleValue
15.299

@<SCITEGIC>MOL_PROPERTY
Bond
SciTegic.value.DoubleValue
0.423

@<SCITEGIC>MOL_PROPERTY
Angle
SciTegic.value.DoubleValue
4.488

@<SCITEGIC>MOL_PROPERTY
Pdih
SciTegic.value.DoubleValue
13.696

@<SCITEGIC>MOL_PROPERTY
Idih
SciTegic.value.DoubleValue
0.000

@<SCITEGIC>MOL_PROPERTY
Tether
SciTegic.value.DoubleValue
0.000

@<TRIPOS>MOLECULE
guest-s17_confgen4.mol2 : confsearch ligand conformer 307
          25          25           1
SMALL
USER_CHARGES
 
@<TRIPOS>ATOM
       1    C1      20.642510   19.686953   20.742772 C.3        1 MOL1        -0.1684
       2    H1      21.522670   19.032119   20.769309 H          1 MOL1         0.0833
       3    H2      20.582081   20.032192   19.701559 H          1 MOL1         0.0833
       4    C2      19.364364   18.867252   21.049586 C.3        1 MOL1        -0.1684
       5    H3      18.548015   19.525576   21.375803 H          1 MOL1         0.0833
       6    H4      19.026652   18.435676   20.097310 H          1 MOL1         0.0833
       7    C3      19.558914   17.682577   22.036631 C.3        1 MOL1        -0.1684
       8    H5      20.529831   17.192950   21.882515 H          1 MOL1         0.0833
       9    H6      18.807164   16.925187   21.775166 H          1 MOL1         0.0833
      10    C4      19.346253   18.027139   23.533708 C.3        1 MOL1        -0.1760
      11    H7      18.569172   18.794804   23.634359 H          1 MOL1         0.0833
      12    H8      18.930949   17.138424   24.026579 H          1 MOL1         0.0833
      13    C5      20.611758   18.424824   24.334751 C.3        1 MOL1         0.1219
      14    H9      21.227676   17.522664   24.460616 H          1 MOL1         0.0790
      15    C6      21.511792   19.510982   23.698942 C.3        1 MOL1        -0.1760
      16    H10     22.239050   19.845836   24.449920 H          1 MOL1         0.0833
      17    H11     22.122437   19.052029   22.914053 H          1 MOL1         0.0833
      18    C7      20.750816   20.749047   23.155262 C.3        1 MOL1        -0.1684
      19    H12     21.142997   21.649008   23.647829 H          1 MOL1         0.0833
      20    H13     19.692541   20.714147   23.439772 H          1 MOL1         0.0833
      21    C8      20.869225   20.943777   21.624300 C.3        1 MOL1        -0.1684
      22    H14     21.865988   21.345364   21.396420 H          1 MOL1         0.0833
      23    H15     20.156908   21.723155   21.321171 H          1 MOL1         0.0833
      24    O1      20.190515   18.878291   25.615775 O.3        1 MOL1        -0.5508
      25    H16     21.000434   19.127347   26.106815 H          1 MOL1         0.3780
@<TRIPOS>BOND
    1     1     2    1
    2     1     3    1
    3     1     4    1
    4     4     5    1
    5     4     6    1
    6     4     7    1
    7     7     8    1
    8     7     9    1
    9     7    10    1
   10    10    11    1
   11    10    12    1
   12    10    13    1
   13    13    14    1
   14    13    15    1
   15    15    16    1
   16    15    17    1
   17    15    18    1
   18    18    19    1
   19    18    20    1
   20     1    21    1
   21    18    21    1
   22    21    22    1
   23    21    23    1
   24    13    24    1
   25    24    25    1
@<TRIPOS>SUBSTRUCTURE
       1 MOL1            1 RESIDUE      1      MOL     
@<SCITEGIC>MOL_PROPERTY
VConf Rank
SciTegic.value.IntegerValue
307

@<SCITEGIC>MOL_PROPERTY
Conf_Id
SciTegic.value.IntegerValue
155

@<SCITEGIC>MOL_PROPERTY
Delta U+W
SciTegic.value.DoubleValue
0.339

@<SCITEGIC>MOL_PROPERTY
U+W
SciTegic.value.DoubleValue
11.252

@<SCITEGIC>MOL_PROPERTY
Grad RMS
SciTegic.value.DoubleValue
0.000000

@<SCITEGIC>MOL_PROPERTY
U
SciTegic.value.DoubleValue
13.420

@<SCITEGIC>MOL_PROPERTY
W
SciTegic.value.DoubleValue
-2.167

@<SCITEGIC>MOL_PROPERTY
W(PB)
SciTegic.value.DoubleValue
-4.325

@<SCITEGIC>MOL_PROPERTY
W(SA)
SciTegic.value.DoubleValue
2.157

@<SCITEGIC>MOL_PROPERTY
Valence
SciTegic.value.DoubleValue
18.609

@<SCITEGIC>MOL_PROPERTY
Coulomb
SciTegic.value.DoubleValue
-8.052

@<SCITEGIC>MOL_PROPERTY
VdW
SciTegic.value.DoubleValue
2.863

@<SCITEGIC>MOL_PROPERTY
VdW6
SciTegic.value.DoubleValue
-12.524

@<SCITEGIC>MOL_PROPERTY
VdW12
SciTegic.value.DoubleValue
15.387

@<SCITEGIC>MOL_PROPERTY
Bond
SciTegic.value.DoubleValue
0.430

@<SCITEGIC>MOL_PROPERTY
Angle
SciTegic.value.DoubleValue
4.724

@<SCITEGIC>MOL_PROPERTY
Pdih
SciTegic.value.DoubleValue
13.455

@<SCITEGIC>MOL_PROPERTY
Idih
SciTegic.value.DoubleValue
0.000

@<SCITEGIC>MOL_PROPERTY
Tether
SciTegic.value.DoubleValue
0.000

@<TRIPOS>MOLECULE
guest-s17_confgen4.mol2 : confsearch ligand conformer 308
          25          25           1
SMALL
USER_CHARGES
 
@<TRIPOS>ATOM
       1    C1      20.964674   21.126482   22.821830 C.3        1 MOL1        -0.1684
       2    H1      20.364715   21.746466   23.501542 H          1 MOL1         0.0833
       3    H2      21.752774   21.789810   22.440152 H          1 MOL1         0.0833
       4    C2      21.670170   20.010575   23.636597 C.3        1 MOL1        -0.1684
       5    H3      22.358230   19.465517   22.982668 H          1 MOL1         0.0833
       6    H4      22.336591   20.499106   24.360431 H          1 MOL1         0.0833
       7    C3      20.769738   19.024964   24.437228 C.3        1 MOL1        -0.1684
       8    H5      20.566414   19.484575   25.413941 H          1 MOL1         0.0833
       9    H6      21.344499   18.114503   24.655012 H          1 MOL1         0.0833
      10    C4      19.397549   18.626602   23.828698 C.3        1 MOL1        -0.1760
      11    H7      18.855967   18.050369   24.590238 H          1 MOL1         0.0833
      12    H8      18.782440   19.523119   23.711853 H          1 MOL1         0.0833
      13    C5      19.396306   17.795272   22.512190 C.3        1 MOL1         0.1219
      14    H9      18.430099   17.958840   22.013733 H          1 MOL1         0.0790
      15    C6      20.517666   18.078017   21.481100 C.3        1 MOL1        -0.1760
      16    H10     21.486990   17.860135   21.938767 H          1 MOL1         0.0833
      17    H11     20.431915   17.325698   20.685935 H          1 MOL1         0.0833
      18    C7      20.533673   19.472635   20.786054 C.3        1 MOL1        -0.1684
      19    H12     19.872001   19.411591   19.911239 H          1 MOL1         0.0833
      20    H13     21.537985   19.655876   20.380959 H          1 MOL1         0.0833
      21    C8      20.082403   20.707634   21.609353 C.3        1 MOL1        -0.1684
      22    H14     19.038527   20.580361   21.912836 H          1 MOL1         0.0833
      23    H15     20.046988   21.566522   20.925295 H          1 MOL1         0.0833
      24    O1      19.495666   16.419827   22.864982 O.3        1 MOL1        -0.5508
      25    H16     18.754744   16.230378   23.476852 H          1 MOL1         0.3780
@<TRIPOS>BOND
    1     1     2    1
    2     1     3    1
    3     1     4    1
    4     4     5    1
    5     4     6    1
    6     4     7    1
    7     7     8    1
    8     7     9    1
    9     7    10    1
   10    10    11    1
   11    10    12    1
   12    10    13    1
   13    13    14    1
   14    13    15    1
   15    15    16    1
   16    15    17    1
   17    15    18    1
   18    18    19    1
   19    18    20    1
   20     1    21    1
   21    18    21    1
   22    21    22    1
   23    21    23    1
   24    13    24    1
   25    24    25    1
@<TRIPOS>SUBSTRUCTURE
       1 MOL1            1 RESIDUE      1      MOL     
@<SCITEGIC>MOL_PROPERTY
VConf Rank
SciTegic.value.IntegerValue
308

@<SCITEGIC>MOL_PROPERTY
Conf_Id
SciTegic.value.IntegerValue
146

@<SCITEGIC>MOL_PROPERTY
Delta U+W
SciTegic.value.DoubleValue
2.553

@<SCITEGIC>MOL_PROPERTY
U+W
SciTegic.value.DoubleValue
13.466

@<SCITEGIC>MOL_PROPERTY
Grad RMS
SciTegic.value.DoubleValue
0.000000

@<SCITEGIC>MOL_PROPERTY
U
SciTegic.value.DoubleValue
15.643

@<SCITEGIC>MOL_PROPERTY
W
SciTegic.value.DoubleValue
-2.176

@<SCITEGIC>MOL_PROPERTY
W(PB)
SciTegic.value.DoubleValue
-4.307

@<SCITEGIC>MOL_PROPERTY
W(SA)
SciTegic.value.DoubleValue
2.131

@<SCITEGIC>MOL_PROPERTY
Valence
SciTegic.value.DoubleValue
18.916

@<SCITEGIC>MOL_PROPERTY
Coulomb
SciTegic.value.DoubleValue
-7.506

@<SCITEGIC>MOL_PROPERTY
VdW
SciTegic.value.DoubleValue
4.232

@<SCITEGIC>MOL_PROPERTY
VdW6
SciTegic.value.DoubleValue
-13.632

@<SCITEGIC>MOL_PROPERTY
VdW12
SciTegic.value.DoubleValue
17.864

@<SCITEGIC>MOL_PROPERTY
Bond
SciTegic.value.DoubleValue
0.735

@<SCITEGIC>MOL_PROPERTY
Angle
SciTegic.value.DoubleValue
9.140

@<SCITEGIC>MOL_PROPERTY
Pdih
SciTegic.value.DoubleValue
9.042

@<SCITEGIC>MOL_PROPERTY
Idih
SciTegic.value.DoubleValue
0.000

@<SCITEGIC>MOL_PROPERTY
Tether
SciTegic.value.DoubleValue
0.000

@<TRIPOS>MOLECULE
guest-s17_confgen4.mol2 : confsearch ligand conformer 309
          25          25           1
SMALL
USER_CHARGES
 
@<TRIPOS>ATOM
       1    C1      21.051739   19.080729   20.731719 C.3        1 MOL1        -0.1684
       2    H1      21.790434   19.778636   20.314875 H          1 MOL1         0.0833
       3    H2      20.840524   18.359565   19.930330 H          1 MOL1         0.0833
       4    C2      19.735967   19.844047   21.025373 C.3        1 MOL1        -0.1684
       5    H3      19.374560   20.249586   20.070531 H          1 MOL1         0.0833
       6    H4      18.952811   19.145880   21.342194 H          1 MOL1         0.0833
       7    C3      19.841644   21.029416   22.017399 C.3        1 MOL1        -0.1684
       8    H5      18.867221   21.536647   22.031494 H          1 MOL1         0.0833
       9    H6      20.555728   21.767123   21.627122 H          1 MOL1         0.0833
      10    C4      20.219984   20.688551   23.482449 C.3        1 MOL1        -0.1760
      11    H7      21.303839   20.568890   23.577355 H          1 MOL1         0.0833
      12    H8      19.987705   21.573701   24.089979 H          1 MOL1         0.0833
      13    C5      19.491113   19.458013   24.081279 C.3        1 MOL1         0.1219
      14    H9      18.581595   19.250621   23.501615 H          1 MOL1         0.0790
      15    C6      20.360511   18.176812   24.147869 C.3        1 MOL1        -0.1760
      16    H10     21.284193   18.396216   24.699589 H          1 MOL1         0.0833
      17    H11     19.823575   17.433894   24.752116 H          1 MOL1         0.0833
      18    C7      20.718569   17.500478   22.796584 C.3        1 MOL1        -0.1684
      19    H12     19.810053   17.234412   22.241060 H          1 MOL1         0.0833
      20    H13     21.199141   16.541860   23.035505 H          1 MOL1         0.0833
      21    C8      21.701266   18.304499   21.906449 C.3        1 MOL1        -0.1684
      22    H14     22.420260   17.598916   21.467998 H          1 MOL1         0.0833
      23    H15     22.315786   18.973869   22.518930 H          1 MOL1         0.0833
      24    O1      19.105885   19.777595   25.413501 O.3        1 MOL1        -0.5508
      25    H16     18.596993   19.011943   25.752657 H          1 MOL1         0.3780
@<TRIPOS>BOND
    1     1     2    1
    2     1     3    1
    3     1     4    1
    4     4     5    1
    5     4     6    1
    6     4     7    1
    7     7     8    1
    8     7     9    1
    9     7    10    1
   10    10    11    1
   11    10    12    1
   12    10    13    1
   13    13    14    1
   14    13    15    1
   15    15    16    1
   16    15    17    1
   17    15    18    1
   18    18    19    1
   19    18    20    1
   20     1    21    1
   21    18    21    1
   22    21    22    1
   23    21    23    1
   24    13    24    1
   25    24    25    1
@<TRIPOS>SUBSTRUCTURE
       1 MOL1            1 RESIDUE      1      MOL     
@<SCITEGIC>MOL_PROPERTY
VConf Rank
SciTegic.value.IntegerValue
309

@<SCITEGIC>MOL_PROPERTY
Conf_Id
SciTegic.value.IntegerValue
62

@<SCITEGIC>MOL_PROPERTY
Delta U+W
SciTegic.value.DoubleValue
-1.779

@<SCITEGIC>MOL_PROPERTY
U+W
SciTegic.value.DoubleValue
9.134

@<SCITEGIC>MOL_PROPERTY
Grad RMS
SciTegic.value.DoubleValue
0.000000

@<SCITEGIC>MOL_PROPERTY
U
SciTegic.value.DoubleValue
11.364

@<SCITEGIC>MOL_PROPERTY
W
SciTegic.value.DoubleValue
-2.230

@<SCITEGIC>MOL_PROPERTY
W(PB)
SciTegic.value.DoubleValue
-4.359

@<SCITEGIC>MOL_PROPERTY
W(SA)
SciTegic.value.DoubleValue
2.129

@<SCITEGIC>MOL_PROPERTY
Valence
SciTegic.value.DoubleValue
16.582

@<SCITEGIC>MOL_PROPERTY
Coulomb
SciTegic.value.DoubleValue
-8.150

@<SCITEGIC>MOL_PROPERTY
VdW
SciTegic.value.DoubleValue
2.933

@<SCITEGIC>MOL_PROPERTY
VdW6
SciTegic.value.DoubleValue
-12.531

@<SCITEGIC>MOL_PROPERTY
VdW12
SciTegic.value.DoubleValue
15.464

@<SCITEGIC>MOL_PROPERTY
Bond
SciTegic.value.DoubleValue
0.439

@<SCITEGIC>MOL_PROPERTY
Angle
SciTegic.value.DoubleValue
5.099

@<SCITEGIC>MOL_PROPERTY
Pdih
SciTegic.value.DoubleValue
11.044

@<SCITEGIC>MOL_PROPERTY
Idih
SciTegic.value.DoubleValue
0.000

@<SCITEGIC>MOL_PROPERTY
Tether
SciTegic.value.DoubleValue
0.000

@<TRIPOS>MOLECULE
guest-s17_confgen4.mol2 : confsearch ligand conformer 310
          25          25           1
SMALL
USER_CHARGES
 
@<TRIPOS>ATOM
       1    C1      19.281593   18.603286   21.271517 C.3        1 MOL1        -0.1684
       2    H1      19.553669   19.625417   20.984558 H          1 MOL1         0.0833
       3    H2      18.627182   18.253614   20.461508 H          1 MOL1         0.0833
       4    C2      18.439360   18.613267   22.571593 C.3        1 MOL1        -0.1684
       5    H3      17.534893   19.204337   22.372939 H          1 MOL1         0.0833
       6    H4      18.087631   17.594583   22.783877 H          1 MOL1         0.0833
       7    C3      19.111338   19.188826   23.844345 C.3        1 MOL1        -0.1684
       8    H5      19.732122   18.427153   24.329601 H          1 MOL1         0.0833
       9    H6      18.310921   19.392837   24.568733 H          1 MOL1         0.0833
      10    C4      19.919605   20.497106   23.633582 C.3        1 MOL1        -0.1760
      11    H7      19.565727   21.041437   22.749429 H          1 MOL1         0.0833
      12    H8      19.699982   21.154504   24.485015 H          1 MOL1         0.0833
      13    C5      21.457190   20.312371   23.577917 C.3        1 MOL1         0.1219
      14    H9      21.770348   19.757827   24.474239 H          1 MOL1         0.0790
      15    C6      22.017757   19.575490   22.335870 C.3        1 MOL1        -0.1760
      16    H10     21.725137   20.095510   21.415684 H          1 MOL1         0.0833
      17    H11     23.111609   19.661251   22.379953 H          1 MOL1         0.0833
      18    C7      21.674301   18.063621   22.259335 C.3        1 MOL1        -0.1684
      19    H12     21.465652   17.665950   23.258969 H          1 MOL1         0.0833
      20    H13     22.573341   17.524078   21.931358 H          1 MOL1         0.0833
      21    C8      20.534464   17.692236   21.276601 C.3        1 MOL1        -0.1684
      22    H14     20.227654   16.654043   21.462359 H          1 MOL1         0.0833
      23    H15     20.951503   17.701307   20.260295 H          1 MOL1         0.0833
      24    O1      22.048570   21.605272   23.611117 O.3        1 MOL1        -0.5508
      25    H16     21.740644   22.036409   24.435404 H          1 MOL1         0.3780
@<TRIPOS>BOND
    1     1     2    1
    2     1     3    1
    3     1     4    1
    4     4     5    1
    5     4     6    1
    6     4     7    1
    7     7     8    1
    8     7     9    1
    9     7    10    1
   10    10    11    1
   11    10    12    1
   12    10    13    1
   13    13    14    1
   14    13    15    1
   15    15    16    1
   16    15    17    1
   17    15    18    1
   18    18    19    1
   19    18    20    1
   20     1    21    1
   21    18    21    1
   22    21    22    1
   23    21    23    1
   24    13    24    1
   25    24    25    1
@<TRIPOS>SUBSTRUCTURE
       1 MOL1            1 RESIDUE      1      MOL     
@<SCITEGIC>MOL_PROPERTY
VConf Rank
SciTegic.value.IntegerValue
310

@<SCITEGIC>MOL_PROPERTY
Conf_Id
SciTegic.value.IntegerValue
121

@<SCITEGIC>MOL_PROPERTY
Delta U+W
SciTegic.value.DoubleValue
-1.283

@<SCITEGIC>MOL_PROPERTY
U+W
SciTegic.value.DoubleValue
9.630

@<SCITEGIC>MOL_PROPERTY
Grad RMS
SciTegic.value.DoubleValue
0.000000

@<SCITEGIC>MOL_PROPERTY
U
SciTegic.value.DoubleValue
11.876

@<SCITEGIC>MOL_PROPERTY
W
SciTegic.value.DoubleValue
-2.246

@<SCITEGIC>MOL_PROPERTY
W(PB)
SciTegic.value.DoubleValue
-4.376

@<SCITEGIC>MOL_PROPERTY
W(SA)
SciTegic.value.DoubleValue
2.130

@<SCITEGIC>MOL_PROPERTY
Valence
SciTegic.value.DoubleValue
17.153

@<SCITEGIC>MOL_PROPERTY
Coulomb
SciTegic.value.DoubleValue
-7.966

@<SCITEGIC>MOL_PROPERTY
VdW
SciTegic.value.DoubleValue
2.689

@<SCITEGIC>MOL_PROPERTY
VdW6
SciTegic.value.DoubleValue
-12.458

@<SCITEGIC>MOL_PROPERTY
VdW12
SciTegic.value.DoubleValue
15.147

@<SCITEGIC>MOL_PROPERTY
Bond
SciTegic.value.DoubleValue
0.421

@<SCITEGIC>MOL_PROPERTY
Angle
SciTegic.value.DoubleValue
5.258

@<SCITEGIC>MOL_PROPERTY
Pdih
SciTegic.value.DoubleValue
11.475

@<SCITEGIC>MOL_PROPERTY
Idih
SciTegic.value.DoubleValue
0.000

@<SCITEGIC>MOL_PROPERTY
Tether
SciTegic.value.DoubleValue
0.000

@<TRIPOS>MOLECULE
guest-s17_confgen4.mol2 : confsearch ligand conformer 311
          25          25           1
SMALL
USER_CHARGES
 
@<TRIPOS>ATOM
       1    C1      21.380496   17.862513   23.350412 C.3        1 MOL1        -0.1684
       2    H1      21.477393   17.763518   22.263244 H          1 MOL1         0.0833
       3    H2      22.003785   17.055139   23.758207 H          1 MOL1         0.0833
       4    C2      19.921396   17.584185   23.790052 C.3        1 MOL1        -0.1684
       5    H3      19.674606   16.559505   23.480199 H          1 MOL1         0.0833
       6    H4      19.866542   17.583965   24.887081 H          1 MOL1         0.0833
       7    C3      18.823354   18.525057   23.231492 C.3        1 MOL1        -0.1684
       8    H5      18.757399   19.439154   23.832342 H          1 MOL1         0.0833
       9    H6      17.857965   18.024192   23.386754 H          1 MOL1         0.0833
      10    C4      18.951660   18.872721   21.724096 C.3        1 MOL1        -0.1760
      11    H7      19.515830   18.101357   21.186046 H          1 MOL1         0.0833
      12    H8      17.941723   18.843810   21.293981 H          1 MOL1         0.0833
      13    C5      19.530009   20.277989   21.423014 C.3        1 MOL1         0.1219
      14    H9      18.939295   21.017511   21.982606 H          1 MOL1         0.0790
      15    C6      21.026457   20.494269   21.762504 C.3        1 MOL1        -0.1760
      16    H10     21.650677   19.767915   21.227705 H          1 MOL1         0.0833
      17    H11     21.314467   21.474485   21.360547 H          1 MOL1         0.0833
      18    C7      21.357614   20.505551   23.278919 C.3        1 MOL1        -0.1684
      19    H12     20.471747   20.777334   23.864042 H          1 MOL1         0.0833
      20    H13     22.071665   21.318762   23.468240 H          1 MOL1         0.0833
      21    C8      21.993513   19.202733   23.827568 C.3        1 MOL1        -0.1684
      22    H14     21.983196   19.235963   24.925422 H          1 MOL1         0.0833
      23    H15     23.053933   19.199984   23.540531 H          1 MOL1         0.0833
      24    O1      19.364006   20.519558   20.031428 O.3        1 MOL1        -0.5508
      25    H16     19.669835   21.435404   19.864564 H          1 MOL1         0.3780
@<TRIPOS>BOND
    1     1     2    1
    2     1     3    1
    3     1     4    1
    4     4     5    1
    5     4     6    1
    6     4     7    1
    7     7     8    1
    8     7     9    1
    9     7    10    1
   10    10    11    1
   11    10    12    1
   12    10    13    1
   13    13    14    1
   14    13    15    1
   15    15    16    1
   16    15    17    1
   17    15    18    1
   18    18    19    1
   19    18    20    1
   20     1    21    1
   21    18    21    1
   22    21    22    1
   23    21    23    1
   24    13    24    1
   25    24    25    1
@<TRIPOS>SUBSTRUCTURE
       1 MOL1            1 RESIDUE      1      MOL     
@<SCITEGIC>MOL_PROPERTY
VConf Rank
SciTegic.value.IntegerValue
311

@<SCITEGIC>MOL_PROPERTY
Conf_Id
SciTegic.value.IntegerValue
24

@<SCITEGIC>MOL_PROPERTY
Delta U+W
SciTegic.value.DoubleValue
-1.236

@<SCITEGIC>MOL_PROPERTY
U+W
SciTegic.value.DoubleValue
9.678

@<SCITEGIC>MOL_PROPERTY
Grad RMS
SciTegic.value.DoubleValue
0.000000

@<SCITEGIC>MOL_PROPERTY
U
SciTegic.value.DoubleValue
11.876

@<SCITEGIC>MOL_PROPERTY
W
SciTegic.value.DoubleValue
-2.199

@<SCITEGIC>MOL_PROPERTY
W(PB)
SciTegic.value.DoubleValue
-4.335

@<SCITEGIC>MOL_PROPERTY
W(SA)
SciTegic.value.DoubleValue
2.137

@<SCITEGIC>MOL_PROPERTY
Valence
SciTegic.value.DoubleValue
17.153

@<SCITEGIC>MOL_PROPERTY
Coulomb
SciTegic.value.DoubleValue
-7.966

@<SCITEGIC>MOL_PROPERTY
VdW
SciTegic.value.DoubleValue
2.689

@<SCITEGIC>MOL_PROPERTY
VdW6
SciTegic.value.DoubleValue
-12.458

@<SCITEGIC>MOL_PROPERTY
VdW12
SciTegic.value.DoubleValue
15.147

@<SCITEGIC>MOL_PROPERTY
Bond
SciTegic.value.DoubleValue
0.421

@<SCITEGIC>MOL_PROPERTY
Angle
SciTegic.value.DoubleValue
5.258

@<SCITEGIC>MOL_PROPERTY
Pdih
SciTegic.value.DoubleValue
11.475

@<SCITEGIC>MOL_PROPERTY
Idih
SciTegic.value.DoubleValue
0.000

@<SCITEGIC>MOL_PROPERTY
Tether
SciTegic.value.DoubleValue
0.000

@<TRIPOS>MOLECULE
guest-s17_confgen4.mol2 : confsearch ligand conformer 312
          25          25           1
SMALL
USER_CHARGES
 
@<TRIPOS>ATOM
       1    C1      19.715542   17.382834   23.674385 C.3        1 MOL1        -0.1684
       2    H1      19.253061   16.523746   23.169553 H          1 MOL1         0.0833
       3    H2      19.750044   17.117886   24.739968 H          1 MOL1         0.0833
       4    C2      21.176209   17.533178   23.172338 C.3        1 MOL1        -0.1684
       5    H3      21.762354   18.148015   23.867107 H          1 MOL1         0.0833
       6    H4      21.636355   16.536907   23.225017 H          1 MOL1         0.0833
       7    C3      21.346988   18.060200   21.726053 C.3        1 MOL1        -0.1684
       8    H5      20.534660   17.699222   21.080860 H          1 MOL1         0.0833
       9    H6      22.261882   17.601978   21.325797 H          1 MOL1         0.0833
      10    C4      21.521929   19.600191   21.600546 C.3        1 MOL1        -0.1760
      11    H7      22.109502   19.996029   22.438728 H          1 MOL1         0.0833
      12    H8      22.133251   19.773920   20.704414 H          1 MOL1         0.0833
      13    C5      20.204686   20.396997   21.436079 C.3        1 MOL1         0.1219
      14    H9      19.466042   19.751748   20.942386 H          1 MOL1         0.0790
      15    C6      19.599376   20.957476   22.748052 C.3        1 MOL1        -0.1760
      16    H10     20.214632   21.793784   23.105008 H          1 MOL1         0.0833
      17    H11     18.618493   21.386735   22.504684 H          1 MOL1         0.0833
      18    C7      19.417433   19.957581   23.917560 C.3        1 MOL1        -0.1684
      19    H12     18.775766   20.430604   24.673384 H          1 MOL1         0.0833
      20    H13     20.377267   19.802112   24.423759 H          1 MOL1         0.0833
      21    C8      18.782632   18.606496   23.501688 C.3        1 MOL1        -0.1684
      22    H14     18.412576   18.644678   22.470545 H          1 MOL1         0.0833
      23    H15     17.885430   18.437335   24.112659 H          1 MOL1         0.0833
      24    O1      20.456109   21.504941   20.581120 O.3        1 MOL1        -0.5508
      25    H16     21.130645   22.054333   21.030721 H          1 MOL1         0.3780
@<TRIPOS>BOND
    1     1     2    1
    2     1     3    1
    3     1     4    1
    4     4     5    1
    5     4     6    1
    6     4     7    1
    7     7     8    1
    8     7     9    1
    9     7    10    1
   10    10    11    1
   11    10    12    1
   12    10    13    1
   13    13    14    1
   14    13    15    1
   15    15    16    1
   16    15    17    1
   17    15    18    1
   18    18    19    1
   19    18    20    1
   20     1    21    1
   21    18    21    1
   22    21    22    1
   23    21    23    1
   24    13    24    1
   25    24    25    1
@<TRIPOS>SUBSTRUCTURE
       1 MOL1            1 RESIDUE      1      MOL     
@<SCITEGIC>MOL_PROPERTY
VConf Rank
SciTegic.value.IntegerValue
312

@<SCITEGIC>MOL_PROPERTY
Conf_Id
SciTegic.value.IntegerValue
167

@<SCITEGIC>MOL_PROPERTY
Delta U+W
SciTegic.value.DoubleValue
0.388

@<SCITEGIC>MOL_PROPERTY
U+W
SciTegic.value.DoubleValue
11.301

@<SCITEGIC>MOL_PROPERTY
Grad RMS
SciTegic.value.DoubleValue
0.000000

@<SCITEGIC>MOL_PROPERTY
U
SciTegic.value.DoubleValue
13.202

@<SCITEGIC>MOL_PROPERTY
W
SciTegic.value.DoubleValue
-1.901

@<SCITEGIC>MOL_PROPERTY
W(PB)
SciTegic.value.DoubleValue
-4.065

@<SCITEGIC>MOL_PROPERTY
W(SA)
SciTegic.value.DoubleValue
2.163

@<SCITEGIC>MOL_PROPERTY
Valence
SciTegic.value.DoubleValue
18.957

@<SCITEGIC>MOL_PROPERTY
Coulomb
SciTegic.value.DoubleValue
-8.753

@<SCITEGIC>MOL_PROPERTY
VdW
SciTegic.value.DoubleValue
2.998

@<SCITEGIC>MOL_PROPERTY
VdW6
SciTegic.value.DoubleValue
-12.294

@<SCITEGIC>MOL_PROPERTY
VdW12
SciTegic.value.DoubleValue
15.292

@<SCITEGIC>MOL_PROPERTY
Bond
SciTegic.value.DoubleValue
0.419

@<SCITEGIC>MOL_PROPERTY
Angle
SciTegic.value.DoubleValue
4.543

@<SCITEGIC>MOL_PROPERTY
Pdih
SciTegic.value.DoubleValue
13.996

@<SCITEGIC>MOL_PROPERTY
Idih
SciTegic.value.DoubleValue
0.000

@<SCITEGIC>MOL_PROPERTY
Tether
SciTegic.value.DoubleValue
0.000

@<TRIPOS>MOLECULE
guest-s17_confgen4.mol2 : confsearch ligand conformer 313
          25          25           1
SMALL
USER_CHARGES
 
@<TRIPOS>ATOM
       1    C1      20.695647   21.102529   23.447413 C.3        1 MOL1        -0.1684
       2    H1      21.541530   21.708189   23.095047 H          1 MOL1         0.0833
       3    H2      20.187431   21.715949   24.203953 H          1 MOL1         0.0833
       4    C2      21.244939   19.837693   24.157182 C.3        1 MOL1        -0.1684
       5    H3      22.100374   19.427483   23.608762 H          1 MOL1         0.0833
       6    H4      21.668187   20.165293   25.116647 H          1 MOL1         0.0833
       7    C3      20.200542   18.728209   24.445494 C.3        1 MOL1        -0.1684
       8    H5      19.189288   19.148211   24.521223 H          1 MOL1         0.0833
       9    H6      20.417529   18.321683   25.442769 H          1 MOL1         0.0833
      10    C4      20.227919   17.533261   23.453729 C.3        1 MOL1        -0.1760
      11    H7      21.238382   17.104962   23.426063 H          1 MOL1         0.0833
      12    H8      19.583978   16.745924   23.867526 H          1 MOL1         0.0833
      13    C5      19.753827   17.814517   22.006130 C.3        1 MOL1         0.1219
      14    H9      18.756409   18.273129   22.037550 H          1 MOL1         0.0790
      15    C6      20.718296   18.710883   21.186950 C.3        1 MOL1        -0.1760
      16    H10     21.724245   18.672792   21.616936 H          1 MOL1         0.0833
      17    H11     20.837965   18.293851   20.178136 H          1 MOL1         0.0833
      18    C7      20.262194   20.183730   21.021254 C.3        1 MOL1        -0.1684
      19    H12     19.480882   20.210472   20.249386 H          1 MOL1         0.0833
      20    H13     21.097890   20.772531   20.619411 H          1 MOL1         0.0833
      21    C8      19.698759   20.888865   22.280697 C.3        1 MOL1        -0.1684
      22    H14     18.798072   20.377090   22.638466 H          1 MOL1         0.0833
      23    H15     19.346270   21.881183   21.967842 H          1 MOL1         0.0833
      24    O1      19.643633   16.559320   21.345451 O.3        1 MOL1        -0.5508
      25    H16     19.277822   16.742094   20.454781 H          1 MOL1         0.3780
@<TRIPOS>BOND
    1     1     2    1
    2     1     3    1
    3     1     4    1
    4     4     5    1
    5     4     6    1
    6     4     7    1
    7     7     8    1
    8     7     9    1
    9     7    10    1
   10    10    11    1
   11    10    12    1
   12    10    13    1
   13    13    14    1
   14    13    15    1
   15    15    16    1
   16    15    17    1
   17    15    18    1
   18    18    19    1
   19    18    20    1
   20     1    21    1
   21    18    21    1
   22    21    22    1
   23    21    23    1
   24    13    24    1
   25    24    25    1
@<TRIPOS>SUBSTRUCTURE
       1 MOL1            1 RESIDUE      1      MOL     
@<SCITEGIC>MOL_PROPERTY
VConf Rank
SciTegic.value.IntegerValue
313

@<SCITEGIC>MOL_PROPERTY
Conf_Id
SciTegic.value.IntegerValue
60

@<SCITEGIC>MOL_PROPERTY
Delta U+W
SciTegic.value.DoubleValue
-1.838

@<SCITEGIC>MOL_PROPERTY
U+W
SciTegic.value.DoubleValue
9.075

@<SCITEGIC>MOL_PROPERTY
Grad RMS
SciTegic.value.DoubleValue
0.000000

@<SCITEGIC>MOL_PROPERTY
U
SciTegic.value.DoubleValue
11.150

@<SCITEGIC>MOL_PROPERTY
W
SciTegic.value.DoubleValue
-2.074

@<SCITEGIC>MOL_PROPERTY
W(PB)
SciTegic.value.DoubleValue
-4.196

@<SCITEGIC>MOL_PROPERTY
W(SA)
SciTegic.value.DoubleValue
2.121

@<SCITEGIC>MOL_PROPERTY
Valence
SciTegic.value.DoubleValue
16.582

@<SCITEGIC>MOL_PROPERTY
Coulomb
SciTegic.value.DoubleValue
-8.361

@<SCITEGIC>MOL_PROPERTY
VdW
SciTegic.value.DoubleValue
2.928

@<SCITEGIC>MOL_PROPERTY
VdW6
SciTegic.value.DoubleValue
-12.539

@<SCITEGIC>MOL_PROPERTY
VdW12
SciTegic.value.DoubleValue
15.467

@<SCITEGIC>MOL_PROPERTY
Bond
SciTegic.value.DoubleValue
0.441

@<SCITEGIC>MOL_PROPERTY
Angle
SciTegic.value.DoubleValue
5.093

@<SCITEGIC>MOL_PROPERTY
Pdih
SciTegic.value.DoubleValue
11.049

@<SCITEGIC>MOL_PROPERTY
Idih
SciTegic.value.DoubleValue
0.000

@<SCITEGIC>MOL_PROPERTY
Tether
SciTegic.value.DoubleValue
0.000

@<TRIPOS>MOLECULE
guest-s17_confgen4.mol2 : confsearch ligand conformer 314
          25          25           1
SMALL
USER_CHARGES
 
@<TRIPOS>ATOM
       1    C1      21.737826   20.690554   22.672557 C.3        1 MOL1        -0.1684
       2    H1      22.033152   21.186536   23.607057 H          1 MOL1         0.0833
       3    H2      22.313265   21.187204   21.879382 H          1 MOL1         0.0833
       4    C2      20.238449   20.968365   22.398052 C.3        1 MOL1        -0.1684
       5    H3      20.121642   22.056248   22.299617 H          1 MOL1         0.0833
       6    H4      19.950867   20.570938   21.418003 H          1 MOL1         0.0833
       7    C3      19.245306   20.496974   23.489989 C.3        1 MOL1        -0.1684
       8    H5      18.248081   20.864213   23.211380 H          1 MOL1         0.0833
       9    H6      19.489746   20.991056   24.440085 H          1 MOL1         0.0833
      10    C4      19.140450   18.968546   23.730140 C.3        1 MOL1        -0.1760
      11    H7      19.957686   18.630317   24.375121 H          1 MOL1         0.0833
      12    H8      18.234503   18.796160   24.326366 H          1 MOL1         0.0833
      13    C5      19.084608   18.105385   22.443066 C.3        1 MOL1         0.1219
      14    H9      18.782795   18.728292   21.590394 H          1 MOL1         0.0790
      15    C6      20.416180   17.391056   22.102400 C.3        1 MOL1        -0.1760
      16    H10     20.736646   16.793472   22.965787 H          1 MOL1         0.0833
      17    H11     20.210409   16.668001   21.302005 H          1 MOL1         0.0833
      18    C7      21.592697   18.288272   21.630106 C.3        1 MOL1        -0.1684
      19    H12     21.308976   18.866357   20.741236 H          1 MOL1         0.0833
      20    H13     22.392433   17.615557   21.291312 H          1 MOL1         0.0833
      21    C8      22.190641   19.208189   22.726035 C.3        1 MOL1        -0.1684
      22    H14     23.283917   19.201538   22.617704 H          1 MOL1         0.0833
      23    H15     22.013663   18.785634   23.721490 H          1 MOL1         0.0833
      24    O1      18.097984   17.096790   22.626026 O.3        1 MOL1        -0.5508
      25    H16     17.246792   17.560035   22.772282 H          1 MOL1         0.3780
@<TRIPOS>BOND
    1     1     2    1
    2     1     3    1
    3     1     4    1
    4     4     5    1
    5     4     6    1
    6     4     7    1
    7     7     8    1
    8     7     9    1
    9     7    10    1
   10    10    11    1
   11    10    12    1
   12    10    13    1
   13    13    14    1
   14    13    15    1
   15    15    16    1
   16    15    17    1
   17    15    18    1
   18    18    19    1
   19    18    20    1
   20     1    21    1
   21    18    21    1
   22    21    22    1
   23    21    23    1
   24    13    24    1
   25    24    25    1
@<TRIPOS>SUBSTRUCTURE
       1 MOL1            1 RESIDUE      1      MOL     
@<SCITEGIC>MOL_PROPERTY
VConf Rank
SciTegic.value.IntegerValue
314

@<SCITEGIC>MOL_PROPERTY
Conf_Id
SciTegic.value.IntegerValue
129

@<SCITEGIC>MOL_PROPERTY
Delta U+W
SciTegic.value.DoubleValue
-1.846

@<SCITEGIC>MOL_PROPERTY
U+W
SciTegic.value.DoubleValue
9.067

@<SCITEGIC>MOL_PROPERTY
Grad RMS
SciTegic.value.DoubleValue
0.000000

@<SCITEGIC>MOL_PROPERTY
U
SciTegic.value.DoubleValue
11.150

@<SCITEGIC>MOL_PROPERTY
W
SciTegic.value.DoubleValue
-2.083

@<SCITEGIC>MOL_PROPERTY
W(PB)
SciTegic.value.DoubleValue
-4.217

@<SCITEGIC>MOL_PROPERTY
W(SA)
SciTegic.value.DoubleValue
2.134

@<SCITEGIC>MOL_PROPERTY
Valence
SciTegic.value.DoubleValue
16.583

@<SCITEGIC>MOL_PROPERTY
Coulomb
SciTegic.value.DoubleValue
-8.361

@<SCITEGIC>MOL_PROPERTY
VdW
SciTegic.value.DoubleValue
2.928

@<SCITEGIC>MOL_PROPERTY
VdW6
SciTegic.value.DoubleValue
-12.539

@<SCITEGIC>MOL_PROPERTY
VdW12
SciTegic.value.DoubleValue
15.467

@<SCITEGIC>MOL_PROPERTY
Bond
SciTegic.value.DoubleValue
0.441

@<SCITEGIC>MOL_PROPERTY
Angle
SciTegic.value.DoubleValue
5.093

@<SCITEGIC>MOL_PROPERTY
Pdih
SciTegic.value.DoubleValue
11.049

@<SCITEGIC>MOL_PROPERTY
Idih
SciTegic.value.DoubleValue
0.000

@<SCITEGIC>MOL_PROPERTY
Tether
SciTegic.value.DoubleValue
0.000

@<TRIPOS>MOLECULE
guest-s17_confgen4.mol2 : confsearch ligand conformer 315
          25          25           1
SMALL
USER_CHARGES
 
@<TRIPOS>ATOM
       1    C1      22.326505   19.174916   22.644146 C.3        1 MOL1        -0.1684
       2    H1      22.877861   18.603393   21.885282 H          1 MOL1         0.0833
       3    H2      23.092881   19.641151   23.278348 H          1 MOL1         0.0833
       4    C2      21.521186   18.196945   23.535912 C.3        1 MOL1        -0.1684
       5    H3      22.244744   17.528064   24.021573 H          1 MOL1         0.0833
       6    H4      21.047430   18.737397   24.363359 H          1 MOL1         0.0833
       7    C3      20.486652   17.302992   22.807314 C.3        1 MOL1        -0.1684
       8    H5      20.086968   16.592620   23.543979 H          1 MOL1         0.0833
       9    H6      21.001702   16.692060   22.053668 H          1 MOL1         0.0833
      10    C4      19.284640   18.019735   22.138941 C.3        1 MOL1        -0.1760
      11    H7      19.575738   18.411099   21.158822 H          1 MOL1         0.0833
      12    H8      18.535151   17.247803   21.917572 H          1 MOL1         0.0833
      13    C5      18.630413   19.137713   22.991401 C.3        1 MOL1         0.1219
      14    H9      18.892101   18.997984   24.048693 H          1 MOL1         0.0790
      15    C6      19.011360   20.575350   22.556685 C.3        1 MOL1        -0.1760
      16    H10     18.779125   20.708949   21.492057 H          1 MOL1         0.0833
      17    H11     18.354076   21.271567   23.094732 H          1 MOL1         0.0833
      18    C7      20.475001   21.022494   22.819055 C.3        1 MOL1        -0.1684
      19    H12     20.722275   20.940327   23.885309 H          1 MOL1         0.0833
      20    H13     20.527101   22.096763   22.595008 H          1 MOL1         0.0833
      21    C8      21.538742   20.311629   21.942886 C.3        1 MOL1        -0.1684
      22    H14     22.273752   21.062435   21.621794 H          1 MOL1         0.0833
      23    H15     21.091144   19.952410   21.009388 H          1 MOL1         0.0833
      24    O1      17.218458   19.020233   22.869979 O.3        1 MOL1        -0.5508
      25    H16     17.010365   19.152382   21.922258 H          1 MOL1         0.3780
@<TRIPOS>BOND
    1     1     2    1
    2     1     3    1
    3     1     4    1
    4     4     5    1
    5     4     6    1
    6     4     7    1
    7     7     8    1
    8     7     9    1
    9     7    10    1
   10    10    11    1
   11    10    12    1
   12    10    13    1
   13    13    14    1
   14    13    15    1
   15    15    16    1
   16    15    17    1
   17    15    18    1
   18    18    19    1
   19    18    20    1
   20     1    21    1
   21    18    21    1
   22    21    22    1
   23    21    23    1
   24    13    24    1
   25    24    25    1
@<TRIPOS>SUBSTRUCTURE
       1 MOL1            1 RESIDUE      1      MOL     
@<SCITEGIC>MOL_PROPERTY
VConf Rank
SciTegic.value.IntegerValue
315

@<SCITEGIC>MOL_PROPERTY
Conf_Id
SciTegic.value.IntegerValue
140

@<SCITEGIC>MOL_PROPERTY
Delta U+W
SciTegic.value.DoubleValue
-1.702

@<SCITEGIC>MOL_PROPERTY
U+W
SciTegic.value.DoubleValue
9.211

@<SCITEGIC>MOL_PROPERTY
Grad RMS
SciTegic.value.DoubleValue
0.000000

@<SCITEGIC>MOL_PROPERTY
U
SciTegic.value.DoubleValue
11.181

@<SCITEGIC>MOL_PROPERTY
W
SciTegic.value.DoubleValue
-1.969

@<SCITEGIC>MOL_PROPERTY
W(PB)
SciTegic.value.DoubleValue
-4.093

@<SCITEGIC>MOL_PROPERTY
W(SA)
SciTegic.value.DoubleValue
2.124

@<SCITEGIC>MOL_PROPERTY
Valence
SciTegic.value.DoubleValue
16.954

@<SCITEGIC>MOL_PROPERTY
Coulomb
SciTegic.value.DoubleValue
-8.661

@<SCITEGIC>MOL_PROPERTY
VdW
SciTegic.value.DoubleValue
2.887

@<SCITEGIC>MOL_PROPERTY
VdW6
SciTegic.value.DoubleValue
-12.561

@<SCITEGIC>MOL_PROPERTY
VdW12
SciTegic.value.DoubleValue
15.448

@<SCITEGIC>MOL_PROPERTY
Bond
SciTegic.value.DoubleValue
0.433

@<SCITEGIC>MOL_PROPERTY
Angle
SciTegic.value.DoubleValue
5.120

@<SCITEGIC>MOL_PROPERTY
Pdih
SciTegic.value.DoubleValue
11.401

@<SCITEGIC>MOL_PROPERTY
Idih
SciTegic.value.DoubleValue
0.000

@<SCITEGIC>MOL_PROPERTY
Tether
SciTegic.value.DoubleValue
0.000

@<TRIPOS>MOLECULE
guest-s17_confgen4.mol2 : confsearch ligand conformer 316
          25          25           1
SMALL
USER_CHARGES
 
@<TRIPOS>ATOM
       1    C1      21.751811   17.732676   22.661079 C.3        1 MOL1        -0.1684
       2    H1      22.417398   17.597188   21.797861 H          1 MOL1         0.0833
       3    H2      22.062336   16.977245   23.395802 H          1 MOL1         0.0833
       4    C2      20.298619   17.403857   22.231474 C.3        1 MOL1        -0.1684
       5    H3      20.089819   17.807863   21.234486 H          1 MOL1         0.0833
       6    H4      20.239539   16.314425   22.102247 H          1 MOL1         0.0833
       7    C3      19.195650   17.830706   23.234373 C.3        1 MOL1        -0.1684
       8    H5      19.592631   17.892058   24.255860 H          1 MOL1         0.0833
       9    H6      18.448352   17.026005   23.265458 H          1 MOL1         0.0833
      10    C4      18.441958   19.134689   22.856758 C.3        1 MOL1        -0.1760
      11    H7      18.019922   19.027975   21.848932 H          1 MOL1         0.0833
      12    H8      17.580796   19.223427   23.532600 H          1 MOL1         0.0833
      13    C5      19.245302   20.456885   22.942360 C.3        1 MOL1         0.1219
      14    H9      19.691120   20.545450   23.941998 H          1 MOL1         0.0790
      15    C6      20.349089   20.602921   21.863056 C.3        1 MOL1        -0.1760
      16    H10     20.126809   19.961938   21.003829 H          1 MOL1         0.0833
      17    H11     20.327964   21.624362   21.459536 H          1 MOL1         0.0833
      18    C7      21.794361   20.345182   22.363089 C.3        1 MOL1        -0.1684
      19    H12     22.124939   21.238692   22.910271 H          1 MOL1         0.0833
      20    H13     22.462780   20.263262   21.495331 H          1 MOL1         0.0833
      21    C8      22.009230   19.124032   23.292010 C.3        1 MOL1        -0.1684
      22    H14     21.430356   19.236897   24.215790 H          1 MOL1         0.0833
      23    H15     23.057732   19.144311   23.619176 H          1 MOL1         0.0833
      24    O1      18.320040   21.524264   22.778799 O.3        1 MOL1        -0.5508
      25    H16     17.934191   21.421303   21.884672 H          1 MOL1         0.3780
@<TRIPOS>BOND
    1     1     2    1
    2     1     3    1
    3     1     4    1
    4     4     5    1
    5     4     6    1
    6     4     7    1
    7     7     8    1
    8     7     9    1
    9     7    10    1
   10    10    11    1
   11    10    12    1
   12    10    13    1
   13    13    14    1
   14    13    15    1
   15    15    16    1
   16    15    17    1
   17    15    18    1
   18    18    19    1
   19    18    20    1
   20     1    21    1
   21    18    21    1
   22    21    22    1
   23    21    23    1
   24    13    24    1
   25    24    25    1
@<TRIPOS>SUBSTRUCTURE
       1 MOL1            1 RESIDUE      1      MOL     
@<SCITEGIC>MOL_PROPERTY
VConf Rank
SciTegic.value.IntegerValue
316

@<SCITEGIC>MOL_PROPERTY
Conf_Id
SciTegic.value.IntegerValue
68

@<SCITEGIC>MOL_PROPERTY
Delta U+W
SciTegic.value.DoubleValue
-1.765

@<SCITEGIC>MOL_PROPERTY
U+W
SciTegic.value.DoubleValue
9.148

@<SCITEGIC>MOL_PROPERTY
Grad RMS
SciTegic.value.DoubleValue
0.000000

@<SCITEGIC>MOL_PROPERTY
U
SciTegic.value.DoubleValue
11.181

@<SCITEGIC>MOL_PROPERTY
W
SciTegic.value.DoubleValue
-2.032

@<SCITEGIC>MOL_PROPERTY
W(PB)
SciTegic.value.DoubleValue
-4.147

@<SCITEGIC>MOL_PROPERTY
W(SA)
SciTegic.value.DoubleValue
2.114

@<SCITEGIC>MOL_PROPERTY
Valence
SciTegic.value.DoubleValue
16.955

@<SCITEGIC>MOL_PROPERTY
Coulomb
SciTegic.value.DoubleValue
-8.661

@<SCITEGIC>MOL_PROPERTY
VdW
SciTegic.value.DoubleValue
2.887

@<SCITEGIC>MOL_PROPERTY
VdW6
SciTegic.value.DoubleValue
-12.561

@<SCITEGIC>MOL_PROPERTY
VdW12
SciTegic.value.DoubleValue
15.448

@<SCITEGIC>MOL_PROPERTY
Bond
SciTegic.value.DoubleValue
0.433

@<SCITEGIC>MOL_PROPERTY
Angle
SciTegic.value.DoubleValue
5.121

@<SCITEGIC>MOL_PROPERTY
Pdih
SciTegic.value.DoubleValue
11.402

@<SCITEGIC>MOL_PROPERTY
Idih
SciTegic.value.DoubleValue
0.000

@<SCITEGIC>MOL_PROPERTY
Tether
SciTegic.value.DoubleValue
0.000

@<TRIPOS>MOLECULE
guest-s17_confgen4.mol2 : confsearch ligand conformer 317
          25          25           1
SMALL
USER_CHARGES
 
@<TRIPOS>ATOM
       1    C1      21.324799   18.363490   23.934536 C.3        1 MOL1        -0.1684
       2    H1      21.862325   17.855820   24.747195 H          1 MOL1         0.0833
       3    H2      22.108742   18.889021   23.377632 H          1 MOL1         0.0833
       4    C2      20.335880   19.374992   24.570307 C.3        1 MOL1        -0.1684
       5    H3      19.335660   18.936155   24.677999 H          1 MOL1         0.0833
       6    H4      20.675371   19.567361   25.597321 H          1 MOL1         0.0833
       7    C3      20.259948   20.749096   23.854293 C.3        1 MOL1        -0.1684
       8    H5      21.265495   21.188629   23.801759 H          1 MOL1         0.0833
       9    H6      19.675940   21.426048   24.492653 H          1 MOL1         0.0833
      10    C4      19.619601   20.763658   22.440681 C.3        1 MOL1        -0.1760
      11    H7      18.602453   20.355556   22.478341 H          1 MOL1         0.0833
      12    H8      19.496750   21.818599   22.160293 H          1 MOL1         0.0833
      13    C5      20.460551   20.055974   21.346664 C.3        1 MOL1         0.1219
      14    H9      21.499487   19.980099   21.687838 H          1 MOL1         0.0790
      15    C6      19.953066   18.648454   20.947426 C.3        1 MOL1        -0.1760
      16    H10     19.080404   18.765794   20.291477 H          1 MOL1         0.0833
      17    H11     20.724857   18.162362   20.336577 H          1 MOL1         0.0833
      18    C7      19.542809   17.691415   22.096264 C.3        1 MOL1        -0.1684
      19    H12     19.140933   16.779412   21.634235 H          1 MOL1         0.0833
      20    H13     18.701368   18.108900   22.661058 H          1 MOL1         0.0833
      21    C8      20.676288   17.259202   23.059881 C.3        1 MOL1        -0.1684
      22    H14     21.463565   16.748376   22.489060 H          1 MOL1         0.0833
      23    H15     20.259969   16.499247   23.735266 H          1 MOL1         0.0833
      24    O1      20.450126   20.862239   20.175121 O.3        1 MOL1        -0.5508
      25    H16     19.514211   20.933240   19.895997 H          1 MOL1         0.3780
@<TRIPOS>BOND
    1     1     2    1
    2     1     3    1
    3     1     4    1
    4     4     5    1
    5     4     6    1
    6     4     7    1
    7     7     8    1
    8     7     9    1
    9     7    10    1
   10    10    11    1
   11    10    12    1
   12    10    13    1
   13    13    14    1
   14    13    15    1
   15    15    16    1
   16    15    17    1
   17    15    18    1
   18    18    19    1
   19    18    20    1
   20     1    21    1
   21    18    21    1
   22    21    22    1
   23    21    23    1
   24    13    24    1
   25    24    25    1
@<TRIPOS>SUBSTRUCTURE
       1 MOL1            1 RESIDUE      1      MOL     
@<SCITEGIC>MOL_PROPERTY
VConf Rank
SciTegic.value.IntegerValue
317

@<SCITEGIC>MOL_PROPERTY
Conf_Id
SciTegic.value.IntegerValue
165

@<SCITEGIC>MOL_PROPERTY
Delta U+W
SciTegic.value.DoubleValue
-1.999

@<SCITEGIC>MOL_PROPERTY
U+W
SciTegic.value.DoubleValue
8.915

@<SCITEGIC>MOL_PROPERTY
Grad RMS
SciTegic.value.DoubleValue
0.000000

@<SCITEGIC>MOL_PROPERTY
U
SciTegic.value.DoubleValue
10.935

@<SCITEGIC>MOL_PROPERTY
W
SciTegic.value.DoubleValue
-2.020

@<SCITEGIC>MOL_PROPERTY
W(PB)
SciTegic.value.DoubleValue
-4.135

@<SCITEGIC>MOL_PROPERTY
W(SA)
SciTegic.value.DoubleValue
2.115

@<SCITEGIC>MOL_PROPERTY
Valence
SciTegic.value.DoubleValue
16.757

@<SCITEGIC>MOL_PROPERTY
Coulomb
SciTegic.value.DoubleValue
-8.731

@<SCITEGIC>MOL_PROPERTY
VdW
SciTegic.value.DoubleValue
2.908

@<SCITEGIC>MOL_PROPERTY
VdW6
SciTegic.value.DoubleValue
-12.597

@<SCITEGIC>MOL_PROPERTY
VdW12
SciTegic.value.DoubleValue
15.506

@<SCITEGIC>MOL_PROPERTY
Bond
SciTegic.value.DoubleValue
0.434

@<SCITEGIC>MOL_PROPERTY
Angle
SciTegic.value.DoubleValue
5.069

@<SCITEGIC>MOL_PROPERTY
Pdih
SciTegic.value.DoubleValue
11.254

@<SCITEGIC>MOL_PROPERTY
Idih
SciTegic.value.DoubleValue
0.000

@<SCITEGIC>MOL_PROPERTY
Tether
SciTegic.value.DoubleValue
0.000

@<TRIPOS>MOLECULE
guest-s17_confgen4.mol2 : confsearch ligand conformer 318
          25          25           1
SMALL
USER_CHARGES
 
@<TRIPOS>ATOM
       1    C1      19.681345   18.607016   24.286242 C.3        1 MOL1        -0.1684
       2    H1      19.234257   18.231959   25.217117 H          1 MOL1         0.0833
       3    H2      20.680632   18.945237   24.582610 H          1 MOL1         0.0833
       4    C2      18.813388   19.803170   23.815798 C.3        1 MOL1        -0.1684
       5    H3      17.759685   19.530459   23.965286 H          1 MOL1         0.0833
       6    H4      18.994629   20.658629   24.480561 H          1 MOL1         0.0833
       7    C3      18.968070   20.256601   22.342430 C.3        1 MOL1        -0.1684
       8    H5      18.218009   21.038143   22.159948 H          1 MOL1         0.0833
       9    H6      18.690326   19.443126   21.662424 H          1 MOL1         0.0833
      10    C4      20.349341   20.842254   21.951109 C.3        1 MOL1        -0.1760
      11    H7      20.268635   21.214353   20.920797 H          1 MOL1         0.0833
      12    H8      20.551250   21.721919   22.575721 H          1 MOL1         0.0833
      13    C5      21.568065   19.890056   22.027212 C.3        1 MOL1         0.1219
      14    H9      21.878525   19.782793   23.073142 H          1 MOL1         0.0790
      15    C6      21.325836   18.481077   21.426973 C.3        1 MOL1        -0.1760
      16    H10     20.500937   18.500869   20.704984 H          1 MOL1         0.0833
      17    H11     22.210781   18.196596   20.841758 H          1 MOL1         0.0833
      18    C7      21.101138   17.361905   22.478617 C.3        1 MOL1        -0.1684
      19    H12     21.953126   17.339204   23.171860 H          1 MOL1         0.0833
      20    H13     21.125030   16.398482   21.951341 H          1 MOL1         0.0833
      21    C8      19.779707   17.423114   23.289138 C.3        1 MOL1        -0.1684
      22    H14     19.718631   16.494221   23.872609 H          1 MOL1         0.0833
      23    H15     18.910661   17.396879   22.619303 H          1 MOL1         0.0833
      24    O1      22.635507   20.506795   21.316075 O.3        1 MOL1        -0.5508
      25    H16     22.796027   21.373732   21.743967 H          1 MOL1         0.3780
@<TRIPOS>BOND
    1     1     2    1
    2     1     3    1
    3     1     4    1
    4     4     5    1
    5     4     6    1
    6     4     7    1
    7     7     8    1
    8     7     9    1
    9     7    10    1
   10    10    11    1
   11    10    12    1
   12    10    13    1
   13    13    14    1
   14    13    15    1
   15    15    16    1
   16    15    17    1
   17    15    18    1
   18    18    19    1
   19    18    20    1
   20     1    21    1
   21    18    21    1
   22    21    22    1
   23    21    23    1
   24    13    24    1
   25    24    25    1
@<TRIPOS>SUBSTRUCTURE
       1 MOL1            1 RESIDUE      1      MOL     
@<SCITEGIC>MOL_PROPERTY
VConf Rank
SciTegic.value.IntegerValue
318

@<SCITEGIC>MOL_PROPERTY
Conf_Id
SciTegic.value.IntegerValue
133

@<SCITEGIC>MOL_PROPERTY
Delta U+W
SciTegic.value.DoubleValue
-2.139

@<SCITEGIC>MOL_PROPERTY
U+W
SciTegic.value.DoubleValue
8.774

@<SCITEGIC>MOL_PROPERTY
Grad RMS
SciTegic.value.DoubleValue
0.000000

@<SCITEGIC>MOL_PROPERTY
U
SciTegic.value.DoubleValue
10.905

@<SCITEGIC>MOL_PROPERTY
W
SciTegic.value.DoubleValue
-2.131

@<SCITEGIC>MOL_PROPERTY
W(PB)
SciTegic.value.DoubleValue
-4.281

@<SCITEGIC>MOL_PROPERTY
W(SA)
SciTegic.value.DoubleValue
2.150

@<SCITEGIC>MOL_PROPERTY
Valence
SciTegic.value.DoubleValue
16.378

@<SCITEGIC>MOL_PROPERTY
Coulomb
SciTegic.value.DoubleValue
-8.448

@<SCITEGIC>MOL_PROPERTY
VdW
SciTegic.value.DoubleValue
2.976

@<SCITEGIC>MOL_PROPERTY
VdW6
SciTegic.value.DoubleValue
-12.570

@<SCITEGIC>MOL_PROPERTY
VdW12
SciTegic.value.DoubleValue
15.545

@<SCITEGIC>MOL_PROPERTY
Bond
SciTegic.value.DoubleValue
0.439

@<SCITEGIC>MOL_PROPERTY
Angle
SciTegic.value.DoubleValue
5.049

@<SCITEGIC>MOL_PROPERTY
Pdih
SciTegic.value.DoubleValue
10.889

@<SCITEGIC>MOL_PROPERTY
Idih
SciTegic.value.DoubleValue
0.000

@<SCITEGIC>MOL_PROPERTY
Tether
SciTegic.value.DoubleValue
0.000

@<TRIPOS>MOLECULE
guest-s17_confgen4.mol2 : confsearch ligand conformer 319
          25          25           1
SMALL
USER_CHARGES
 
@<TRIPOS>ATOM
       1    C1      19.115929   20.624981   22.413524 C.3        1 MOL1        -0.1684
       2    H1      18.353381   21.409648   22.314000 H          1 MOL1         0.0833
       3    H2      19.927134   20.950018   21.752388 H          1 MOL1         0.0833
       4    C2      18.502846   19.292265   21.910016 C.3        1 MOL1        -0.1684
       5    H3      18.088548   18.708267   22.741829 H          1 MOL1         0.0833
       6    H4      17.638963   19.543740   21.279559 H          1 MOL1         0.0833
       7    C3      19.454347   18.422238   21.047130 C.3        1 MOL1        -0.1684
       8    H5      19.816116   19.013473   20.194749 H          1 MOL1         0.0833
       9    H6      18.858766   17.609341   20.609802 H          1 MOL1         0.0833
      10    C4      20.664924   17.780623   21.776392 C.3        1 MOL1        -0.1760
      11    H7      20.324053   17.159561   22.613177 H          1 MOL1         0.0833
      12    H8      21.128116   17.078617   21.069872 H          1 MOL1         0.0833
      13    C5      21.745361   18.790334   22.242574 C.3        1 MOL1         0.1219
      14    H9      21.630191   19.721753   21.675960 H          1 MOL1         0.0790
      15    C6      21.721001   19.107837   23.757944 C.3        1 MOL1        -0.1760
      16    H10     22.174815   18.262562   24.292807 H          1 MOL1         0.0833
      17    H11     22.372776   19.970561   23.946657 H          1 MOL1         0.0833
      18    C7      20.336616   19.375555   24.402793 C.3        1 MOL1        -0.1684
      19    H12     20.498234   19.506786   25.481383 H          1 MOL1         0.0833
      20    H13     19.699569   18.487057   24.325104 H          1 MOL1         0.0833
      21    C8      19.578976   20.627430   23.893739 C.3        1 MOL1        -0.1684
      22    H14     20.190986   21.521478   24.074548 H          1 MOL1         0.0833
      23    H15     18.686322   20.747876   24.522759 H          1 MOL1         0.0833
      24    O1      23.027612   18.251542   21.940835 O.3        1 MOL1        -0.5508
      25    H16     23.686785   18.927371   22.203864 H          1 MOL1         0.3780
@<TRIPOS>BOND
    1     1     2    1
    2     1     3    1
    3     1     4    1
    4     4     5    1
    5     4     6    1
    6     4     7    1
    7     7     8    1
    8     7     9    1
    9     7    10    1
   10    10    11    1
   11    10    12    1
   12    10    13    1
   13    13    14    1
   14    13    15    1
   15    15    16    1
   16    15    17    1
   17    15    18    1
   18    18    19    1
   19    18    20    1
   20     1    21    1
   21    18    21    1
   22    21    22    1
   23    21    23    1
   24    13    24    1
   25    24    25    1
@<TRIPOS>SUBSTRUCTURE
       1 MOL1            1 RESIDUE      1      MOL     
@<SCITEGIC>MOL_PROPERTY
VConf Rank
SciTegic.value.IntegerValue
319

@<SCITEGIC>MOL_PROPERTY
Conf_Id
SciTegic.value.IntegerValue
95

@<SCITEGIC>MOL_PROPERTY
Delta U+W
SciTegic.value.DoubleValue
-2.190

@<SCITEGIC>MOL_PROPERTY
U+W
SciTegic.value.DoubleValue
8.723

@<SCITEGIC>MOL_PROPERTY
Grad RMS
SciTegic.value.DoubleValue
0.000000

@<SCITEGIC>MOL_PROPERTY
U
SciTegic.value.DoubleValue
10.905

@<SCITEGIC>MOL_PROPERTY
W
SciTegic.value.DoubleValue
-2.182

@<SCITEGIC>MOL_PROPERTY
W(PB)
SciTegic.value.DoubleValue
-4.296

@<SCITEGIC>MOL_PROPERTY
W(SA)
SciTegic.value.DoubleValue
2.114

@<SCITEGIC>MOL_PROPERTY
Valence
SciTegic.value.DoubleValue
16.377

@<SCITEGIC>MOL_PROPERTY
Coulomb
SciTegic.value.DoubleValue
-8.448

@<SCITEGIC>MOL_PROPERTY
VdW
SciTegic.value.DoubleValue
2.976

@<SCITEGIC>MOL_PROPERTY
VdW6
SciTegic.value.DoubleValue
-12.570

@<SCITEGIC>MOL_PROPERTY
VdW12
SciTegic.value.DoubleValue
15.546

@<SCITEGIC>MOL_PROPERTY
Bond
SciTegic.value.DoubleValue
0.439

@<SCITEGIC>MOL_PROPERTY
Angle
SciTegic.value.DoubleValue
5.049

@<SCITEGIC>MOL_PROPERTY
Pdih
SciTegic.value.DoubleValue
10.889

@<SCITEGIC>MOL_PROPERTY
Idih
SciTegic.value.DoubleValue
0.000

@<SCITEGIC>MOL_PROPERTY
Tether
SciTegic.value.DoubleValue
0.000

@<TRIPOS>MOLECULE
guest-s17_confgen4.mol2 : confsearch ligand conformer 320
          25          25           1
SMALL
USER_CHARGES
 
@<TRIPOS>ATOM
       1    C1      21.177316   20.211068   21.445398 C.3        1 MOL1        -0.1684
       2    H1      21.737844   20.907539   20.806934 H          1 MOL1         0.0833
       3    H2      20.546666   19.667023   20.735094 H          1 MOL1         0.0833
       4    C2      20.312786   21.073950   22.410925 C.3        1 MOL1        -0.1684
       5    H3      20.891851   21.975957   22.651773 H          1 MOL1         0.0833
       6    H4      19.425740   21.432195   21.871220 H          1 MOL1         0.0833
       7    C3      19.873189   20.446990   23.760062 C.3        1 MOL1        -0.1684
       8    H5      19.382005   21.234249   24.348093 H          1 MOL1         0.0833
       9    H6      20.761214   20.202502   24.351387 H          1 MOL1         0.0833
      10    C4      18.893536   19.237176   23.703920 C.3        1 MOL1        -0.1760
      11    H7      18.959694   18.682958   24.649349 H          1 MOL1         0.0833
      12    H8      17.876339   19.648924   23.671723 H          1 MOL1         0.0833
      13    C5      19.023710   18.241849   22.523211 C.3        1 MOL1         0.1219
      14    H9      18.909582   18.804630   21.590973 H          1 MOL1         0.0790
      15    C6      20.323486   17.389084   22.460251 C.3        1 MOL1        -0.1760
      16    H10     20.173092   16.497373   23.083587 H          1 MOL1         0.0833
      17    H11     20.441222   17.015797   21.435027 H          1 MOL1         0.0833
      18    C7      21.658209   18.038037   22.916749 C.3        1 MOL1        -0.1684
      19    H12     22.429451   17.255942   22.901683 H          1 MOL1         0.0833
      20    H13     21.586467   18.305905   23.975603 H          1 MOL1         0.0833
      21    C8      22.201207   19.232425   22.078836 C.3        1 MOL1        -0.1684
      22    H14     22.794803   18.812928   21.255104 H          1 MOL1         0.0833
      23    H15     22.913211   19.801514   22.691722 H          1 MOL1         0.0833
      24    O1      17.928449   17.337421   22.607043 O.3        1 MOL1        -0.5508
      25    H16     17.112012   17.878510   22.580407 H          1 MOL1         0.3780
@<TRIPOS>BOND
    1     1     2    1
    2     1     3    1
    3     1     4    1
    4     4     5    1
    5     4     6    1
    6     4     7    1
    7     7     8    1
    8     7     9    1
    9     7    10    1
   10    10    11    1
   11    10    12    1
   12    10    13    1
   13    13    14    1
   14    13    15    1
   15    15    16    1
   16    15    17    1
   17    15    18    1
   18    18    19    1
   19    18    20    1
   20     1    21    1
   21    18    21    1
   22    21    22    1
   23    21    23    1
   24    13    24    1
   25    24    25    1
@<TRIPOS>SUBSTRUCTURE
       1 MOL1            1 RESIDUE      1      MOL     
@<SCITEGIC>MOL_PROPERTY
VConf Rank
SciTegic.value.IntegerValue
320

@<SCITEGIC>MOL_PROPERTY
Conf_Id
SciTegic.value.IntegerValue
161

@<SCITEGIC>MOL_PROPERTY
Delta U+W
SciTegic.value.DoubleValue
2.120

@<SCITEGIC>MOL_PROPERTY
U+W
SciTegic.value.DoubleValue
13.033

@<SCITEGIC>MOL_PROPERTY
Grad RMS
SciTegic.value.DoubleValue
0.000000

@<SCITEGIC>MOL_PROPERTY
U
SciTegic.value.DoubleValue
15.076

@<SCITEGIC>MOL_PROPERTY
W
SciTegic.value.DoubleValue
-2.043

@<SCITEGIC>MOL_PROPERTY
W(PB)
SciTegic.value.DoubleValue
-4.186

@<SCITEGIC>MOL_PROPERTY
W(SA)
SciTegic.value.DoubleValue
2.143

@<SCITEGIC>MOL_PROPERTY
Valence
SciTegic.value.DoubleValue
18.884

@<SCITEGIC>MOL_PROPERTY
Coulomb
SciTegic.value.DoubleValue
-8.074

@<SCITEGIC>MOL_PROPERTY
VdW
SciTegic.value.DoubleValue
4.266

@<SCITEGIC>MOL_PROPERTY
VdW6
SciTegic.value.DoubleValue
-13.486

@<SCITEGIC>MOL_PROPERTY
VdW12
SciTegic.value.DoubleValue
17.752

@<SCITEGIC>MOL_PROPERTY
Bond
SciTegic.value.DoubleValue
0.713

@<SCITEGIC>MOL_PROPERTY
Angle
SciTegic.value.DoubleValue
8.955

@<SCITEGIC>MOL_PROPERTY
Pdih
SciTegic.value.DoubleValue
9.215

@<SCITEGIC>MOL_PROPERTY
Idih
SciTegic.value.DoubleValue
0.000

@<SCITEGIC>MOL_PROPERTY
Tether
SciTegic.value.DoubleValue
0.000

@<TRIPOS>MOLECULE
guest-s17_confgen4.mol2 : confsearch ligand conformer 321
          25          25           1
SMALL
USER_CHARGES
 
@<TRIPOS>ATOM
       1    C1      20.218588   19.822140   20.758219 C.3        1 MOL1        -0.1684
       2    H1      19.936874   20.276968   19.798659 H          1 MOL1         0.0833
       3    H2      21.040813   19.138161   20.512547 H          1 MOL1         0.0833
       4    C2      19.001991   19.019242   21.282552 C.3        1 MOL1        -0.1684
       5    H3      18.325567   19.666231   21.857046 H          1 MOL1         0.0833
       6    H4      18.424762   18.704994   20.402083 H          1 MOL1         0.0833
       7    C3      19.352768   17.728651   22.074171 C.3        1 MOL1        -0.1684
       8    H5      20.226796   17.223493   21.641533 H          1 MOL1         0.0833
       9    H6      18.515167   17.031938   21.931985 H          1 MOL1         0.0833
      10    C4      19.525631   17.915970   23.603715 C.3        1 MOL1        -0.1760
      11    H7      18.837912   18.690760   23.963870 H          1 MOL1         0.0833
      12    H8      19.191214   16.991495   24.092739 H          1 MOL1         0.0833
      13    C5      20.968863   18.180425   24.102689 C.3        1 MOL1         0.1219
      14    H9      21.544238   17.251806   23.978656 H          1 MOL1         0.0790
      15    C6      21.748789   19.307538   23.386995 C.3        1 MOL1        -0.1760
      16    H10     22.644163   19.536708   23.980181 H          1 MOL1         0.0833
      17    H11     22.140743   18.922747   22.439329 H          1 MOL1         0.0833
      18    C7      20.947143   20.617827   23.163979 C.3        1 MOL1        -0.1684
      19    H12     21.491143   21.448996   23.632969 H          1 MOL1         0.0833
      20    H13     19.981529   20.585804   23.681341 H          1 MOL1         0.0833
      21    C8      20.717913   20.970334   21.674726 C.3        1 MOL1        -0.1684
      22    H14     21.656192   21.358746   21.255705 H          1 MOL1         0.0833
      23    H15     20.001666   21.801740   21.624385 H          1 MOL1         0.0833
      24    O1      20.903252   18.496503   25.486219 O.3        1 MOL1        -0.5508
      25    H16     20.509224   19.390839   25.538313 H          1 MOL1         0.3780
@<TRIPOS>BOND
    1     1     2    1
    2     1     3    1
    3     1     4    1
    4     4     5    1
    5     4     6    1
    6     4     7    1
    7     7     8    1
    8     7     9    1
    9     7    10    1
   10    10    11    1
   11    10    12    1
   12    10    13    1
   13    13    14    1
   14    13    15    1
   15    15    16    1
   16    15    17    1
   17    15    18    1
   18    18    19    1
   19    18    20    1
   20     1    21    1
   21    18    21    1
   22    21    22    1
   23    21    23    1
   24    13    24    1
   25    24    25    1
@<TRIPOS>SUBSTRUCTURE
       1 MOL1            1 RESIDUE      1      MOL     
@<SCITEGIC>MOL_PROPERTY
VConf Rank
SciTegic.value.IntegerValue
321

@<SCITEGIC>MOL_PROPERTY
Conf_Id
SciTegic.value.IntegerValue
164

@<SCITEGIC>MOL_PROPERTY
Delta U+W
SciTegic.value.DoubleValue
0.008

@<SCITEGIC>MOL_PROPERTY
U+W
SciTegic.value.DoubleValue
10.922

@<SCITEGIC>MOL_PROPERTY
Grad RMS
SciTegic.value.DoubleValue
0.000000

@<SCITEGIC>MOL_PROPERTY
U
SciTegic.value.DoubleValue
12.433

@<SCITEGIC>MOL_PROPERTY
W
SciTegic.value.DoubleValue
-1.511

@<SCITEGIC>MOL_PROPERTY
W(PB)
SciTegic.value.DoubleValue
-3.669

@<SCITEGIC>MOL_PROPERTY
W(SA)
SciTegic.value.DoubleValue
2.157

@<SCITEGIC>MOL_PROPERTY
Valence
SciTegic.value.DoubleValue
19.007

@<SCITEGIC>MOL_PROPERTY
Coulomb
SciTegic.value.DoubleValue
-9.373

@<SCITEGIC>MOL_PROPERTY
VdW
SciTegic.value.DoubleValue
2.799

@<SCITEGIC>MOL_PROPERTY
VdW6
SciTegic.value.DoubleValue
-12.597

@<SCITEGIC>MOL_PROPERTY
VdW12
SciTegic.value.DoubleValue
15.396

@<SCITEGIC>MOL_PROPERTY
Bond
SciTegic.value.DoubleValue
0.425

@<SCITEGIC>MOL_PROPERTY
Angle
SciTegic.value.DoubleValue
4.784

@<SCITEGIC>MOL_PROPERTY
Pdih
SciTegic.value.DoubleValue
13.799

@<SCITEGIC>MOL_PROPERTY
Idih
SciTegic.value.DoubleValue
0.000

@<SCITEGIC>MOL_PROPERTY
Tether
SciTegic.value.DoubleValue
0.000

@<TRIPOS>MOLECULE
guest-s17_confgen4.mol2 : confsearch ligand conformer 322
          25          25           1
SMALL
USER_CHARGES
 
@<TRIPOS>ATOM
       1    C1      19.208374   20.105052   21.500369 C.3        1 MOL1        -0.1684
       2    H1      19.414155   19.148829   21.006190 H          1 MOL1         0.0833
       3    H2      18.542192   20.636513   20.807243 H          1 MOL1         0.0833
       4    C2      20.506779   20.941143   21.622088 C.3        1 MOL1        -0.1684
       5    H3      20.882752   21.114638   20.604519 H          1 MOL1         0.0833
       6    H4      20.262446   21.934725   22.021592 H          1 MOL1         0.0833
       7    C3      21.662928   20.333735   22.457035 C.3        1 MOL1        -0.1684
       8    H5      21.513542   20.533766   23.524150 H          1 MOL1         0.0833
       9    H6      22.575252   20.888667   22.198734 H          1 MOL1         0.0833
      10    C4      21.930351   18.823651   22.218475 C.3        1 MOL1        -0.1760
      11    H7      21.577493   18.514251   21.227242 H          1 MOL1         0.0833
      12    H8      23.019608   18.685044   22.195106 H          1 MOL1         0.0833
      13    C5      21.378201   17.882150   23.318102 C.3        1 MOL1         0.1219
      14    H9      21.753003   18.233831   24.289926 H          1 MOL1         0.0790
      15    C6      19.836846   17.756222   23.412156 C.3        1 MOL1        -0.1760
      16    H10     19.415134   17.411701   22.460188 H          1 MOL1         0.0833
      17    H11     19.624084   16.953750   24.131190 H          1 MOL1         0.0833
      18    C7      19.106963   19.030513   23.914384 C.3        1 MOL1        -0.1684
      19    H12     19.785083   19.652472   24.509687 H          1 MOL1         0.0833
      20    H13     18.325285   18.721721   24.621936 H          1 MOL1         0.0833
      21    C8      18.418162   19.876209   22.812968 C.3        1 MOL1        -0.1684
      22    H14     18.130319   20.847608   23.237276 H          1 MOL1         0.0833
      23    H15     17.476056   19.377650   22.546931 H          1 MOL1         0.0833
      24    O1      21.902531   16.583714   23.076565 O.3        1 MOL1        -0.5508
      25    H16     21.551101   16.301254   22.207370 H          1 MOL1         0.3780
@<TRIPOS>BOND
    1     1     2    1
    2     1     3    1
    3     1     4    1
    4     4     5    1
    5     4     6    1
    6     4     7    1
    7     7     8    1
    8     7     9    1
    9     7    10    1
   10    10    11    1
   11    10    12    1
   12    10    13    1
   13    13    14    1
   14    13    15    1
   15    15    16    1
   16    15    17    1
   17    15    18    1
   18    18    19    1
   19    18    20    1
   20     1    21    1
   21    18    21    1
   22    21    22    1
   23    21    23    1
   24    13    24    1
   25    24    25    1
@<TRIPOS>SUBSTRUCTURE
       1 MOL1            1 RESIDUE      1      MOL     
@<SCITEGIC>MOL_PROPERTY
VConf Rank
SciTegic.value.IntegerValue
322

@<SCITEGIC>MOL_PROPERTY
Conf_Id
SciTegic.value.IntegerValue
15

@<SCITEGIC>MOL_PROPERTY
Delta U+W
SciTegic.value.DoubleValue
-1.271

@<SCITEGIC>MOL_PROPERTY
U+W
SciTegic.value.DoubleValue
9.643

@<SCITEGIC>MOL_PROPERTY
Grad RMS
SciTegic.value.DoubleValue
0.000000

@<SCITEGIC>MOL_PROPERTY
U
SciTegic.value.DoubleValue
11.413

@<SCITEGIC>MOL_PROPERTY
W
SciTegic.value.DoubleValue
-1.770

@<SCITEGIC>MOL_PROPERTY
W(PB)
SciTegic.value.DoubleValue
-3.908

@<SCITEGIC>MOL_PROPERTY
W(SA)
SciTegic.value.DoubleValue
2.138

@<SCITEGIC>MOL_PROPERTY
Valence
SciTegic.value.DoubleValue
17.496

@<SCITEGIC>MOL_PROPERTY
Coulomb
SciTegic.value.DoubleValue
-8.736

@<SCITEGIC>MOL_PROPERTY
VdW
SciTegic.value.DoubleValue
2.653

@<SCITEGIC>MOL_PROPERTY
VdW6
SciTegic.value.DoubleValue
-12.485

@<SCITEGIC>MOL_PROPERTY
VdW12
SciTegic.value.DoubleValue
15.138

@<SCITEGIC>MOL_PROPERTY
Bond
SciTegic.value.DoubleValue
0.414

@<SCITEGIC>MOL_PROPERTY
Angle
SciTegic.value.DoubleValue
5.295

@<SCITEGIC>MOL_PROPERTY
Pdih
SciTegic.value.DoubleValue
11.787

@<SCITEGIC>MOL_PROPERTY
Idih
SciTegic.value.DoubleValue
0.000

@<SCITEGIC>MOL_PROPERTY
Tether
SciTegic.value.DoubleValue
0.000

@<TRIPOS>MOLECULE
guest-s17_confgen4.mol2 : confsearch ligand conformer 323
          25          25           1
SMALL
USER_CHARGES
 
@<TRIPOS>ATOM
       1    C1      21.647780   18.298350   23.696332 C.3        1 MOL1        -0.1684
       2    H1      22.531796   17.858596   24.178114 H          1 MOL1         0.0833
       3    H2      20.847012   17.566045   23.859625 H          1 MOL1         0.0833
       4    C2      21.337734   19.623239   24.441560 C.3        1 MOL1        -0.1684
       5    H3      21.023116   19.373583   25.464063 H          1 MOL1         0.0833
       6    H4      22.268174   20.197556   24.547464 H          1 MOL1         0.0833
       7    C3      20.268985   20.544080   23.805037 C.3        1 MOL1        -0.1684
       8    H5      20.712560   21.097615   22.969208 H          1 MOL1         0.0833
       9    H6      20.001023   21.314522   24.540838 H          1 MOL1         0.0833
      10    C4      18.978170   19.806331   23.363476 C.3        1 MOL1        -0.1760
      11    H7      18.976084   18.771836   23.724320 H          1 MOL1         0.0833
      12    H8      18.120964   20.279862   23.859624 H          1 MOL1         0.0833
      13    C5      18.710845   19.837454   21.841032 C.3        1 MOL1         0.1219
      14    H9      18.375830   20.852393   21.583170 H          1 MOL1         0.0790
      15    C6      19.912955   19.506053   20.919302 C.3        1 MOL1        -0.1760
      16    H10     19.516849   19.405201   19.899860 H          1 MOL1         0.0833
      17    H11     20.591981   20.365395   20.864826 H          1 MOL1         0.0833
      18    C7      20.719263   18.221565   21.249451 C.3        1 MOL1        -0.1684
      19    H12     21.108764   17.838849   20.296057 H          1 MOL1         0.0833
      20    H13     20.063573   17.428786   21.632054 H          1 MOL1         0.0833
      21    C8      21.944393   18.429620   22.181947 C.3        1 MOL1        -0.1684
      22    H14     22.452868   19.378480   21.964451 H          1 MOL1         0.0833
      23    H15     22.672200   17.645842   21.930622 H          1 MOL1         0.0833
      24    O1      17.659987   18.924682   21.556514 O.3        1 MOL1        -0.5508
      25    H16     18.031732   18.032610   21.708688 H          1 MOL1         0.3780
@<TRIPOS>BOND
    1     1     2    1
    2     1     3    1
    3     1     4    1
    4     4     5    1
    5     4     6    1
    6     4     7    1
    7     7     8    1
    8     7     9    1
    9     7    10    1
   10    10    11    1
   11    10    12    1
   12    10    13    1
   13    13    14    1
   14    13    15    1
   15    15    16    1
   16    15    17    1
   17    15    18    1
   18    18    19    1
   19    18    20    1
   20     1    21    1
   21    18    21    1
   22    21    22    1
   23    21    23    1
   24    13    24    1
   25    24    25    1
@<TRIPOS>SUBSTRUCTURE
       1 MOL1            1 RESIDUE      1      MOL     
@<SCITEGIC>MOL_PROPERTY
VConf Rank
SciTegic.value.IntegerValue
323

@<SCITEGIC>MOL_PROPERTY
Conf_Id
SciTegic.value.IntegerValue
115

@<SCITEGIC>MOL_PROPERTY
Delta U+W
SciTegic.value.DoubleValue
0.038

@<SCITEGIC>MOL_PROPERTY
U+W
SciTegic.value.DoubleValue
10.952

@<SCITEGIC>MOL_PROPERTY
Grad RMS
SciTegic.value.DoubleValue
0.000000

@<SCITEGIC>MOL_PROPERTY
U
SciTegic.value.DoubleValue
12.526

@<SCITEGIC>MOL_PROPERTY
W
SciTegic.value.DoubleValue
-1.575

@<SCITEGIC>MOL_PROPERTY
W(PB)
SciTegic.value.DoubleValue
-3.698

@<SCITEGIC>MOL_PROPERTY
W(SA)
SciTegic.value.DoubleValue
2.123

@<SCITEGIC>MOL_PROPERTY
Valence
SciTegic.value.DoubleValue
19.016

@<SCITEGIC>MOL_PROPERTY
Coulomb
SciTegic.value.DoubleValue
-9.226

@<SCITEGIC>MOL_PROPERTY
VdW
SciTegic.value.DoubleValue
2.737

@<SCITEGIC>MOL_PROPERTY
VdW6
SciTegic.value.DoubleValue
-12.612

@<SCITEGIC>MOL_PROPERTY
VdW12
SciTegic.value.DoubleValue
15.349

@<SCITEGIC>MOL_PROPERTY
Bond
SciTegic.value.DoubleValue
0.421

@<SCITEGIC>MOL_PROPERTY
Angle
SciTegic.value.DoubleValue
4.883

@<SCITEGIC>MOL_PROPERTY
Pdih
SciTegic.value.DoubleValue
13.711

@<SCITEGIC>MOL_PROPERTY
Idih
SciTegic.value.DoubleValue
0.000

@<SCITEGIC>MOL_PROPERTY
Tether
SciTegic.value.DoubleValue
0.000

@<TRIPOS>MOLECULE
guest-s17_confgen4.mol2 : confsearch ligand conformer 324
          25          25           1
SMALL
USER_CHARGES
 
@<TRIPOS>ATOM
       1    C1      20.268696   21.033712   21.472392 C.3        1 MOL1        -0.1684
       2    H1      19.947146   22.061632   21.255662 H          1 MOL1         0.0833
       3    H2      21.081364   20.824182   20.763771 H          1 MOL1         0.0833
       4    C2      19.064815   20.105207   21.189394 C.3        1 MOL1        -0.1684
       5    H3      18.209590   20.395338   21.814701 H          1 MOL1         0.0833
       6    H4      18.747298   20.285809   20.153264 H          1 MOL1         0.0833
       7    C3      19.350247   18.593313   21.343009 C.3        1 MOL1        -0.1684
       8    H5      20.330476   18.344874   20.914748 H          1 MOL1         0.0833
       9    H6      18.617709   18.056170   20.724924 H          1 MOL1         0.0833
      10    C4      19.213758   18.061656   22.795128 C.3        1 MOL1        -0.1760
      11    H7      18.707720   18.790369   23.440661 H          1 MOL1         0.0833
      12    H8      18.548314   17.188331   22.762729 H          1 MOL1         0.0833
      13    C5      20.545869   17.619087   23.441322 C.3        1 MOL1         0.1219
      14    H9      21.181518   17.162572   22.669172 H          1 MOL1         0.0790
      15    C6      21.333804   18.752865   24.134242 C.3        1 MOL1        -0.1760
      16    H10     20.736131   19.179652   24.950471 H          1 MOL1         0.0833
      17    H11     22.212676   18.300831   24.612427 H          1 MOL1         0.0833
      18    C7      21.838825   19.878483   23.199038 C.3        1 MOL1        -0.1684
      19    H12     22.227422   19.453531   22.263923 H          1 MOL1         0.0833
      20    H13     22.704926   20.345476   23.687931 H          1 MOL1         0.0833
      21    C8      20.802304   20.999142   22.923806 C.3        1 MOL1        -0.1684
      22    H14     21.300557   21.960303   23.111198 H          1 MOL1         0.0833
      23    H15     19.968833   20.960546   23.637713 H          1 MOL1         0.0833
      24    O1      20.251629   16.638090   24.428598 O.3        1 MOL1        -0.5508
      25    H16     21.110214   16.331588   24.788073 H          1 MOL1         0.3780
@<TRIPOS>BOND
    1     1     2    1
    2     1     3    1
    3     1     4    1
    4     4     5    1
    5     4     6    1
    6     4     7    1
    7     7     8    1
    8     7     9    1
    9     7    10    1
   10    10    11    1
   11    10    12    1
   12    10    13    1
   13    13    14    1
   14    13    15    1
   15    15    16    1
   16    15    17    1
   17    15    18    1
   18    18    19    1
   19    18    20    1
   20     1    21    1
   21    18    21    1
   22    21    22    1
   23    21    23    1
   24    13    24    1
   25    24    25    1
@<TRIPOS>SUBSTRUCTURE
       1 MOL1            1 RESIDUE      1      MOL     
@<SCITEGIC>MOL_PROPERTY
VConf Rank
SciTegic.value.IntegerValue
324

@<SCITEGIC>MOL_PROPERTY
Conf_Id
SciTegic.value.IntegerValue
30

@<SCITEGIC>MOL_PROPERTY
Delta U+W
SciTegic.value.DoubleValue
0.000

@<SCITEGIC>MOL_PROPERTY
U+W
SciTegic.value.DoubleValue
10.913

@<SCITEGIC>MOL_PROPERTY
Grad RMS
SciTegic.value.DoubleValue
0.000000

@<SCITEGIC>MOL_PROPERTY
U
SciTegic.value.DoubleValue
13.140

@<SCITEGIC>MOL_PROPERTY
W
SciTegic.value.DoubleValue
-2.227

@<SCITEGIC>MOL_PROPERTY
W(PB)
SciTegic.value.DoubleValue
-4.367

@<SCITEGIC>MOL_PROPERTY
W(SA)
SciTegic.value.DoubleValue
2.140

@<SCITEGIC>MOL_PROPERTY
Valence
SciTegic.value.DoubleValue
19.155

@<SCITEGIC>MOL_PROPERTY
Coulomb
SciTegic.value.DoubleValue
-8.157

@<SCITEGIC>MOL_PROPERTY
VdW
SciTegic.value.DoubleValue
2.142

@<SCITEGIC>MOL_PROPERTY
VdW6
SciTegic.value.DoubleValue
-11.576

@<SCITEGIC>MOL_PROPERTY
VdW12
SciTegic.value.DoubleValue
13.718

@<SCITEGIC>MOL_PROPERTY
Bond
SciTegic.value.DoubleValue
0.294

@<SCITEGIC>MOL_PROPERTY
Angle
SciTegic.value.DoubleValue
3.547

@<SCITEGIC>MOL_PROPERTY
Pdih
SciTegic.value.DoubleValue
15.314

@<SCITEGIC>MOL_PROPERTY
Idih
SciTegic.value.DoubleValue
0.000

@<SCITEGIC>MOL_PROPERTY
Tether
SciTegic.value.DoubleValue
0.000

@<TRIPOS>MOLECULE
guest-s17_confgen4.mol2 : confsearch ligand conformer 325
          25          25           1
SMALL
USER_CHARGES
 
@<TRIPOS>ATOM
       1    C1      19.002275   19.651601   24.305084 C.3        1 MOL1        -0.1684
       2    H1      18.386192   19.010613   24.950401 H          1 MOL1         0.0833
       3    H2      18.793876   20.681846   24.624359 H          1 MOL1         0.0833
       4    C2      18.516251   19.489207   22.843752 C.3        1 MOL1        -0.1684
       5    H3      17.417804   19.505310   22.848820 H          1 MOL1         0.0833
       6    H4      18.803183   20.371558   22.260072 H          1 MOL1         0.0833
       7    C3      18.988708   18.184991   22.152661 C.3        1 MOL1        -0.1684
       8    H5      18.107657   17.640825   21.786166 H          1 MOL1         0.0833
       9    H6      19.457306   17.505098   22.873630 H          1 MOL1         0.0833
      10    C4      19.943952   18.414874   20.954237 C.3        1 MOL1        -0.1760
      11    H7      20.366827   17.446018   20.657160 H          1 MOL1         0.0833
      12    H8      19.349933   18.759674   20.097838 H          1 MOL1         0.0833
      13    C5      21.098053   19.427049   21.163352 C.3        1 MOL1         0.1219
      14    H9      20.684421   20.443518   21.204412 H          1 MOL1         0.0790
      15    C6      21.957958   19.191350   22.429175 C.3        1 MOL1        -0.1760
      16    H10     22.002756   18.120604   22.665919 H          1 MOL1         0.0833
      17    H11     22.991829   19.480742   22.198180 H          1 MOL1         0.0833
      18    C7      21.530387   20.017225   23.675314 C.3        1 MOL1        -0.1684
      19    H12     21.191494   21.022135   23.389432 H          1 MOL1         0.0833
      20    H13     22.434949   20.175592   24.278575 H          1 MOL1         0.0833
      21    C8      20.492164   19.328088   24.595088 C.3        1 MOL1        -0.1684
      22    H14     20.692855   19.645872   25.627466 H          1 MOL1         0.0833
      23    H15     20.657814   18.243256   24.600332 H          1 MOL1         0.0833
      24    O1      21.944258   19.340585   20.022879 O.3        1 MOL1        -0.5508
      25    H16     22.625732   20.037670   20.123470 H          1 MOL1         0.3780
@<TRIPOS>BOND
    1     1     2    1
    2     1     3    1
    3     1     4    1
    4     4     5    1
    5     4     6    1
    6     4     7    1
    7     7     8    1
    8     7     9    1
    9     7    10    1
   10    10    11    1
   11    10    12    1
   12    10    13    1
   13    13    14    1
   14    13    15    1
   15    15    16    1
   16    15    17    1
   17    15    18    1
   18    18    19    1
   19    18    20    1
   20     1    21    1
   21    18    21    1
   22    21    22    1
   23    21    23    1
   24    13    24    1
   25    24    25    1
@<TRIPOS>SUBSTRUCTURE
       1 MOL1            1 RESIDUE      1      MOL     
@<SCITEGIC>MOL_PROPERTY
VConf Rank
SciTegic.value.IntegerValue
325

@<SCITEGIC>MOL_PROPERTY
Conf_Id
SciTegic.value.IntegerValue
162

@<SCITEGIC>MOL_PROPERTY
Delta U+W
SciTegic.value.DoubleValue
0.219

@<SCITEGIC>MOL_PROPERTY
U+W
SciTegic.value.DoubleValue
11.132

@<SCITEGIC>MOL_PROPERTY
Grad RMS
SciTegic.value.DoubleValue
0.000000

@<SCITEGIC>MOL_PROPERTY
U
SciTegic.value.DoubleValue
13.296

@<SCITEGIC>MOL_PROPERTY
W
SciTegic.value.DoubleValue
-2.164

@<SCITEGIC>MOL_PROPERTY
W(PB)
SciTegic.value.DoubleValue
-4.311

@<SCITEGIC>MOL_PROPERTY
W(SA)
SciTegic.value.DoubleValue
2.148

@<SCITEGIC>MOL_PROPERTY
Valence
SciTegic.value.DoubleValue
18.607

@<SCITEGIC>MOL_PROPERTY
Coulomb
SciTegic.value.DoubleValue
-8.339

@<SCITEGIC>MOL_PROPERTY
VdW
SciTegic.value.DoubleValue
3.028

@<SCITEGIC>MOL_PROPERTY
VdW6
SciTegic.value.DoubleValue
-12.271

@<SCITEGIC>MOL_PROPERTY
VdW12
SciTegic.value.DoubleValue
15.299

@<SCITEGIC>MOL_PROPERTY
Bond
SciTegic.value.DoubleValue
0.423

@<SCITEGIC>MOL_PROPERTY
Angle
SciTegic.value.DoubleValue
4.488

@<SCITEGIC>MOL_PROPERTY
Pdih
SciTegic.value.DoubleValue
13.696

@<SCITEGIC>MOL_PROPERTY
Idih
SciTegic.value.DoubleValue
0.000

@<SCITEGIC>MOL_PROPERTY
Tether
SciTegic.value.DoubleValue
0.000

@<TRIPOS>MOLECULE
guest-s17_confgen4.mol2 : confsearch ligand conformer 326
          25          25           1
SMALL
USER_CHARGES
 
@<TRIPOS>ATOM
       1    C1      20.937258   17.803862   21.396517 C.3        1 MOL1        -0.1684
       2    H1      21.581809   18.555202   20.922982 H          1 MOL1         0.0833
       3    H2      21.143762   16.873628   20.849721 H          1 MOL1         0.0833
       4    C2      21.363075   17.596066   22.871374 C.3        1 MOL1        -0.1684
       5    H3      20.548873   17.141864   23.451899 H          1 MOL1         0.0833
       6    H4      22.169034   16.849368   22.867906 H          1 MOL1         0.0833
       7    C3      21.923104   18.859304   23.582820 C.3        1 MOL1        -0.1684
       8    H5      22.522896   19.469475   22.894265 H          1 MOL1         0.0833
       9    H6      22.628677   18.506119   24.347385 H          1 MOL1         0.0833
      10    C4      20.867802   19.729070   24.314281 C.3        1 MOL1        -0.1760
      11    H7      20.073882   19.090853   24.721299 H          1 MOL1         0.0833
      12    H8      21.351354   20.173989   25.193734 H          1 MOL1         0.0833
      13    C5      20.261583   20.902297   23.503503 C.3        1 MOL1         0.1219
      14    H9      21.043879   21.664910   23.378906 H          1 MOL1         0.0790
      15    C6      19.727698   20.556573   22.093008 C.3        1 MOL1        -0.1760
      16    H10     19.144628   21.409150   21.721333 H          1 MOL1         0.0833
      17    H11     20.573410   20.482550   21.401005 H          1 MOL1         0.0833
      18    C7      18.845043   19.282218   22.026581 C.3        1 MOL1        -0.1684
      19    H12     17.865396   19.552470   21.609910 H          1 MOL1         0.0833
      20    H13     18.625823   18.904967   23.032432 H          1 MOL1         0.0833
      21    C8      19.440783   18.142883   21.164727 C.3        1 MOL1        -0.1684
      22    H14     19.308667   18.397506   20.104326 H          1 MOL1         0.0833
      23    H15     18.841749   17.237250   21.331167 H          1 MOL1         0.0833
      24    O1      19.196580   21.454510   24.268311 O.3        1 MOL1        -0.5508
      25    H16     18.823946   22.191236   23.741532 H          1 MOL1         0.3780
@<TRIPOS>BOND
    1     1     2    1
    2     1     3    1
    3     1     4    1
    4     4     5    1
    5     4     6    1
    6     4     7    1
    7     7     8    1
    8     7     9    1
    9     7    10    1
   10    10    11    1
   11    10    12    1
   12    10    13    1
   13    13    14    1
   14    13    15    1
   15    15    16    1
   16    15    17    1
   17    15    18    1
   18    18    19    1
   19    18    20    1
   20     1    21    1
   21    18    21    1
   22    21    22    1
   23    21    23    1
   24    13    24    1
   25    24    25    1
@<TRIPOS>SUBSTRUCTURE
       1 MOL1            1 RESIDUE      1      MOL     
@<SCITEGIC>MOL_PROPERTY
VConf Rank
SciTegic.value.IntegerValue
326

@<SCITEGIC>MOL_PROPERTY
Conf_Id
SciTegic.value.IntegerValue
155

@<SCITEGIC>MOL_PROPERTY
Delta U+W
SciTegic.value.DoubleValue
0.339

@<SCITEGIC>MOL_PROPERTY
U+W
SciTegic.value.DoubleValue
11.252

@<SCITEGIC>MOL_PROPERTY
Grad RMS
SciTegic.value.DoubleValue
0.000000

@<SCITEGIC>MOL_PROPERTY
U
SciTegic.value.DoubleValue
13.420

@<SCITEGIC>MOL_PROPERTY
W
SciTegic.value.DoubleValue
-2.167

@<SCITEGIC>MOL_PROPERTY
W(PB)
SciTegic.value.DoubleValue
-4.325

@<SCITEGIC>MOL_PROPERTY
W(SA)
SciTegic.value.DoubleValue
2.157

@<SCITEGIC>MOL_PROPERTY
Valence
SciTegic.value.DoubleValue
18.609

@<SCITEGIC>MOL_PROPERTY
Coulomb
SciTegic.value.DoubleValue
-8.052

@<SCITEGIC>MOL_PROPERTY
VdW
SciTegic.value.DoubleValue
2.863

@<SCITEGIC>MOL_PROPERTY
VdW6
SciTegic.value.DoubleValue
-12.524

@<SCITEGIC>MOL_PROPERTY
VdW12
SciTegic.value.DoubleValue
15.387

@<SCITEGIC>MOL_PROPERTY
Bond
SciTegic.value.DoubleValue
0.430

@<SCITEGIC>MOL_PROPERTY
Angle
SciTegic.value.DoubleValue
4.724

@<SCITEGIC>MOL_PROPERTY
Pdih
SciTegic.value.DoubleValue
13.455

@<SCITEGIC>MOL_PROPERTY
Idih
SciTegic.value.DoubleValue
0.000

@<SCITEGIC>MOL_PROPERTY
Tether
SciTegic.value.DoubleValue
0.000

@<TRIPOS>MOLECULE
guest-s17_confgen4.mol2 : confsearch ligand conformer 327
          25          25           1
SMALL
USER_CHARGES
 
@<TRIPOS>ATOM
       1    C1      18.574916   18.749966   23.481415 C.3        1 MOL1        -0.1684
       2    H1      18.210317   19.466800   24.229450 H          1 MOL1         0.0833
       3    H2      17.794549   17.980120   23.409662 H          1 MOL1         0.0833
       4    C2      18.648114   19.447956   22.097843 C.3        1 MOL1        -0.1684
       5    H3      18.898087   18.707016   21.331906 H          1 MOL1         0.0833
       6    H4      17.629809   19.760867   21.829778 H          1 MOL1         0.0833
       7    C3      19.559983   20.703305   21.972111 C.3        1 MOL1        -0.1684
       8    H5      18.965042   21.574124   22.279149 H          1 MOL1         0.0833
       9    H6      19.795422   20.867549   20.911775 H          1 MOL1         0.0833
      10    C4      20.875646   20.739094   22.796523 C.3        1 MOL1        -0.1760
      11    H7      21.302464   21.744908   22.689462 H          1 MOL1         0.0833
      12    H8      20.633906   20.684162   23.861557 H          1 MOL1         0.0833
      13    C5      21.988179   19.709342   22.441294 C.3        1 MOL1         0.1219
      14    H9      22.623807   19.583298   23.329471 H          1 MOL1         0.0790
      15    C6      21.542850   18.301810   21.971106 C.3        1 MOL1        -0.1760
      16    H10     20.960334   18.400420   21.050524 H          1 MOL1         0.0833
      17    H11     22.443138   17.760831   21.651032 H          1 MOL1         0.0833
      18    C7      20.806750   17.389628   22.997939 C.3        1 MOL1        -0.1684
      19    H12     21.575178   16.853484   23.571442 H          1 MOL1         0.0833
      20    H13     20.254843   16.613177   22.451271 H          1 MOL1         0.0833
      21    C8      19.859378   18.060025   24.027376 C.3        1 MOL1        -0.1684
      22    H14     20.433840   18.747900   24.655705 H          1 MOL1         0.0833
      23    H15     19.532526   17.282766   24.731589 H          1 MOL1         0.0833
      24    O1      22.778155   20.264387   21.395327 O.3        1 MOL1        -0.5508
      25    H16     23.101492   21.131937   21.714782 H          1 MOL1         0.3780
@<TRIPOS>BOND
    1     1     2    1
    2     1     3    1
    3     1     4    1
    4     4     5    1
    5     4     6    1
    6     4     7    1
    7     7     8    1
    8     7     9    1
    9     7    10    1
   10    10    11    1
   11    10    12    1
   12    10    13    1
   13    13    14    1
   14    13    15    1
   15    15    16    1
   16    15    17    1
   17    15    18    1
   18    18    19    1
   19    18    20    1
   20     1    21    1
   21    18    21    1
   22    21    22    1
   23    21    23    1
   24    13    24    1
   25    24    25    1
@<TRIPOS>SUBSTRUCTURE
       1 MOL1            1 RESIDUE      1      MOL     
@<SCITEGIC>MOL_PROPERTY
VConf Rank
SciTegic.value.IntegerValue
327

@<SCITEGIC>MOL_PROPERTY
Conf_Id
SciTegic.value.IntegerValue
146

@<SCITEGIC>MOL_PROPERTY
Delta U+W
SciTegic.value.DoubleValue
2.553

@<SCITEGIC>MOL_PROPERTY
U+W
SciTegic.value.DoubleValue
13.466

@<SCITEGIC>MOL_PROPERTY
Grad RMS
SciTegic.value.DoubleValue
0.000000

@<SCITEGIC>MOL_PROPERTY
U
SciTegic.value.DoubleValue
15.643

@<SCITEGIC>MOL_PROPERTY
W
SciTegic.value.DoubleValue
-2.176

@<SCITEGIC>MOL_PROPERTY
W(PB)
SciTegic.value.DoubleValue
-4.307

@<SCITEGIC>MOL_PROPERTY
W(SA)
SciTegic.value.DoubleValue
2.131

@<SCITEGIC>MOL_PROPERTY
Valence
SciTegic.value.DoubleValue
18.916

@<SCITEGIC>MOL_PROPERTY
Coulomb
SciTegic.value.DoubleValue
-7.506

@<SCITEGIC>MOL_PROPERTY
VdW
SciTegic.value.DoubleValue
4.232

@<SCITEGIC>MOL_PROPERTY
VdW6
SciTegic.value.DoubleValue
-13.632

@<SCITEGIC>MOL_PROPERTY
VdW12
SciTegic.value.DoubleValue
17.864

@<SCITEGIC>MOL_PROPERTY
Bond
SciTegic.value.DoubleValue
0.735

@<SCITEGIC>MOL_PROPERTY
Angle
SciTegic.value.DoubleValue
9.140

@<SCITEGIC>MOL_PROPERTY
Pdih
SciTegic.value.DoubleValue
9.042

@<SCITEGIC>MOL_PROPERTY
Idih
SciTegic.value.DoubleValue
0.000

@<SCITEGIC>MOL_PROPERTY
Tether
SciTegic.value.DoubleValue
0.000

@<TRIPOS>MOLECULE
guest-s17_confgen4.mol2 : confsearch ligand conformer 328
          25          25           1
SMALL
USER_CHARGES
 
@<TRIPOS>ATOM
       1    C1      21.847922   20.629625   22.891705 C.3        1 MOL1        -0.1684
       2    H1      22.348595   20.804602   23.853585 H          1 MOL1         0.0833
       3    H2      22.330614   21.311470   22.178256 H          1 MOL1         0.0833
       4    C2      20.362173   21.053994   23.003967 C.3        1 MOL1        -0.1684
       5    H3      20.346822   22.125070   23.247606 H          1 MOL1         0.0833
       6    H4      19.871628   20.986845   22.026213 H          1 MOL1         0.0833
       7    C3      19.524108   20.325069   24.084104 C.3        1 MOL1        -0.1684
       8    H5      18.539331   20.810623   24.121961 H          1 MOL1         0.0833
       9    H6      19.977261   20.493507   25.070372 H          1 MOL1         0.0833
      10    C4      19.295341   18.803547   23.888297 C.3        1 MOL1        -0.1760
      11    H7      20.163665   18.239600   24.243327 H          1 MOL1         0.0833
      12    H8      18.482064   18.509734   24.565637 H          1 MOL1         0.0833
      13    C5      18.931607   18.373086   22.443833 C.3        1 MOL1         0.1219
      14    H9      18.552629   19.239743   21.885689 H          1 MOL1         0.0790
      15    C6      20.103805   17.730410   21.659816 C.3        1 MOL1        -0.1760
      16    H10     20.501996   16.884636   22.235864 H          1 MOL1         0.0833
      17    H11     19.696666   17.295566   20.737596 H          1 MOL1         0.0833
      18    C7      21.272330   18.667923   21.250887 C.3        1 MOL1        -0.1684
      19    H12     20.906512   19.502828   20.639405 H          1 MOL1         0.0833
      20    H13     21.928006   18.090779   20.584572 H          1 MOL1         0.0833
      21    C8      22.140395   19.178534   22.429965 C.3        1 MOL1        -0.1684
      22    H14     23.193341   19.145677   22.118095 H          1 MOL1         0.0833
      23    H15     22.085610   18.485196   23.276785 H          1 MOL1         0.0833
      24    O1      17.891968   17.404216   22.519927 O.3        1 MOL1        -0.5508
      25    H16     17.636708   17.189619   21.598509 H          1 MOL1         0.3780
@<TRIPOS>BOND
    1     1     2    1
    2     1     3    1
    3     1     4    1
    4     4     5    1
    5     4     6    1
    6     4     7    1
    7     7     8    1
    8     7     9    1
    9     7    10    1
   10    10    11    1
   11    10    12    1
   12    10    13    1
   13    13    14    1
   14    13    15    1
   15    15    16    1
   16    15    17    1
   17    15    18    1
   18    18    19    1
   19    18    20    1
   20     1    21    1
   21    18    21    1
   22    21    22    1
   23    21    23    1
   24    13    24    1
   25    24    25    1
@<TRIPOS>SUBSTRUCTURE
       1 MOL1            1 RESIDUE      1      MOL     
@<SCITEGIC>MOL_PROPERTY
VConf Rank
SciTegic.value.IntegerValue
328

@<SCITEGIC>MOL_PROPERTY
Conf_Id
SciTegic.value.IntegerValue
62

@<SCITEGIC>MOL_PROPERTY
Delta U+W
SciTegic.value.DoubleValue
-1.779

@<SCITEGIC>MOL_PROPERTY
U+W
SciTegic.value.DoubleValue
9.134

@<SCITEGIC>MOL_PROPERTY
Grad RMS
SciTegic.value.DoubleValue
0.000000

@<SCITEGIC>MOL_PROPERTY
U
SciTegic.value.DoubleValue
11.364

@<SCITEGIC>MOL_PROPERTY
W
SciTegic.value.DoubleValue
-2.230

@<SCITEGIC>MOL_PROPERTY
W(PB)
SciTegic.value.DoubleValue
-4.359

@<SCITEGIC>MOL_PROPERTY
W(SA)
SciTegic.value.DoubleValue
2.129

@<SCITEGIC>MOL_PROPERTY
Valence
SciTegic.value.DoubleValue
16.582

@<SCITEGIC>MOL_PROPERTY
Coulomb
SciTegic.value.DoubleValue
-8.150

@<SCITEGIC>MOL_PROPERTY
VdW
SciTegic.value.DoubleValue
2.933

@<SCITEGIC>MOL_PROPERTY
VdW6
SciTegic.value.DoubleValue
-12.531

@<SCITEGIC>MOL_PROPERTY
VdW12
SciTegic.value.DoubleValue
15.464

@<SCITEGIC>MOL_PROPERTY
Bond
SciTegic.value.DoubleValue
0.439

@<SCITEGIC>MOL_PROPERTY
Angle
SciTegic.value.DoubleValue
5.099

@<SCITEGIC>MOL_PROPERTY
Pdih
SciTegic.value.DoubleValue
11.044

@<SCITEGIC>MOL_PROPERTY
Idih
SciTegic.value.DoubleValue
0.000

@<SCITEGIC>MOL_PROPERTY
Tether
SciTegic.value.DoubleValue
0.000

@<TRIPOS>MOLECULE
guest-s17_confgen4.mol2 : confsearch ligand conformer 329
          25          25           1
SMALL
USER_CHARGES
 
@<TRIPOS>ATOM
       1    C1      20.869820   17.477912   22.146416 C.3        1 MOL1        -0.1684
       2    H1      21.721435   17.840294   22.733402 H          1 MOL1         0.0833
       3    H2      21.167319   16.472342   21.819364 H          1 MOL1         0.0833
       4    C2      20.685572   18.340232   20.872795 C.3        1 MOL1        -0.1684
       5    H3      21.610902   18.261789   20.285854 H          1 MOL1         0.0833
       6    H4      19.898456   17.898908   20.246554 H          1 MOL1         0.0833
       7    C3      20.380482   19.846171   21.077216 C.3        1 MOL1        -0.1684
       8    H5      19.310719   20.000934   21.257909 H          1 MOL1         0.0833
       9    H6      20.572399   20.348156   20.118987 H          1 MOL1         0.0833
      10    C4      21.225446   20.551322   22.171798 C.3        1 MOL1        -0.1760
      11    H7      22.171620   20.022877   22.341367 H          1 MOL1         0.0833
      12    H8      21.510497   21.535458   21.777377 H          1 MOL1         0.0833
      13    C5      20.487861   20.788159   23.513912 C.3        1 MOL1         0.1219
      14    H9      19.544438   21.311250   23.301051 H          1 MOL1         0.0790
      15    C6      20.160338   19.526872   24.351642 C.3        1 MOL1        -0.1760
      16    H10     21.076807   18.971382   24.584679 H          1 MOL1         0.0833
      17    H11     19.780958   19.876563   25.320970 H          1 MOL1         0.0833
      18    C7      19.079818   18.595224   23.740022 C.3        1 MOL1        -0.1684
      19    H12     18.430286   19.155923   23.058355 H          1 MOL1         0.0833
      20    H13     18.411946   18.267929   24.548585 H          1 MOL1         0.0833
      21    C8      19.621052   17.317561   23.048962 C.3        1 MOL1        -0.1684
      22    H14     18.810809   16.855449   22.468926 H          1 MOL1         0.0833
      23    H15     19.874394   16.592840   23.834760 H          1 MOL1         0.0833
      24    O1      21.307274   21.631700   24.313554 O.3        1 MOL1        -0.5508
      25    H16     21.451543   22.454484   23.801342 H          1 MOL1         0.3780
@<TRIPOS>BOND
    1     1     2    1
    2     1     3    1
    3     1     4    1
    4     4     5    1
    5     4     6    1
    6     4     7    1
    7     7     8    1
    8     7     9    1
    9     7    10    1
   10    10    11    1
   11    10    12    1
   12    10    13    1
   13    13    14    1
   14    13    15    1
   15    15    16    1
   16    15    17    1
   17    15    18    1
   18    18    19    1
   19    18    20    1
   20     1    21    1
   21    18    21    1
   22    21    22    1
   23    21    23    1
   24    13    24    1
   25    24    25    1
@<TRIPOS>SUBSTRUCTURE
       1 MOL1            1 RESIDUE      1      MOL     
@<SCITEGIC>MOL_PROPERTY
VConf Rank
SciTegic.value.IntegerValue
329

@<SCITEGIC>MOL_PROPERTY
Conf_Id
SciTegic.value.IntegerValue
121

@<SCITEGIC>MOL_PROPERTY
Delta U+W
SciTegic.value.DoubleValue
-1.283

@<SCITEGIC>MOL_PROPERTY
U+W
SciTegic.value.DoubleValue
9.630

@<SCITEGIC>MOL_PROPERTY
Grad RMS
SciTegic.value.DoubleValue
0.000000

@<SCITEGIC>MOL_PROPERTY
U
SciTegic.value.DoubleValue
11.876

@<SCITEGIC>MOL_PROPERTY
W
SciTegic.value.DoubleValue
-2.246

@<SCITEGIC>MOL_PROPERTY
W(PB)
SciTegic.value.DoubleValue
-4.376

@<SCITEGIC>MOL_PROPERTY
W(SA)
SciTegic.value.DoubleValue
2.130

@<SCITEGIC>MOL_PROPERTY
Valence
SciTegic.value.DoubleValue
17.153

@<SCITEGIC>MOL_PROPERTY
Coulomb
SciTegic.value.DoubleValue
-7.966

@<SCITEGIC>MOL_PROPERTY
VdW
SciTegic.value.DoubleValue
2.689

@<SCITEGIC>MOL_PROPERTY
VdW6
SciTegic.value.DoubleValue
-12.458

@<SCITEGIC>MOL_PROPERTY
VdW12
SciTegic.value.DoubleValue
15.147

@<SCITEGIC>MOL_PROPERTY
Bond
SciTegic.value.DoubleValue
0.421

@<SCITEGIC>MOL_PROPERTY
Angle
SciTegic.value.DoubleValue
5.258

@<SCITEGIC>MOL_PROPERTY
Pdih
SciTegic.value.DoubleValue
11.475

@<SCITEGIC>MOL_PROPERTY
Idih
SciTegic.value.DoubleValue
0.000

@<SCITEGIC>MOL_PROPERTY
Tether
SciTegic.value.DoubleValue
0.000

@<TRIPOS>MOLECULE
guest-s17_confgen4.mol2 : confsearch ligand conformer 330
          25          25           1
SMALL
USER_CHARGES
 
@<TRIPOS>ATOM
       1    C1      19.194142   20.658506   23.117031 C.3        1 MOL1        -0.1684
       2    H1      18.937470   20.421547   22.078237 H          1 MOL1         0.0833
       3    H2      18.507705   21.470422   23.393139 H          1 MOL1         0.0833
       4    C2      20.633754   21.224214   23.201969 C.3        1 MOL1        -0.1684
       5    H3      20.665995   22.134302   22.587492 H          1 MOL1         0.0833
       6    H4      20.834444   21.553207   24.230545 H          1 MOL1         0.0833
       7    C3      21.785811   20.297520   22.736215 C.3        1 MOL1        -0.1684
       8    H5      22.080205   19.614798   23.541304 H          1 MOL1         0.0833
       9    H6      22.668372   20.932379   22.578139 H          1 MOL1         0.0833
      10    C4      21.515066   19.509719   21.426390 C.3        1 MOL1        -0.1760
      11    H7      20.765458   20.016589   20.806746 H          1 MOL1         0.0833
      12    H8      22.439782   19.530207   20.834537 H          1 MOL1         0.0833
      13    C5      21.139016   18.019938   21.624009 C.3        1 MOL1         0.1219
      14    H9      21.912256   17.552739   22.250752 H          1 MOL1         0.0790
      15    C6      19.757244   17.737569   22.266162 C.3        1 MOL1        -0.1760
      16    H10     18.956732   18.195600   21.672327 H          1 MOL1         0.0833
      17    H11     19.581996   16.655658   22.202131 H          1 MOL1         0.0833
      18    C7      19.638765   18.133216   23.762402 C.3        1 MOL1        -0.1684
      19    H12     20.627488   18.152084   24.234701 H          1 MOL1         0.0833
      20    H13     19.099106   17.333045   24.287301 H          1 MOL1         0.0833
      21    C8      18.877941   19.454964   24.039614 C.3        1 MOL1        -0.1684
      22    H14     19.040677   19.747204   25.085849 H          1 MOL1         0.0833
      23    H15     17.802540   19.247844   23.952998 H          1 MOL1         0.0833
      24    O1      21.154126   17.401598   20.343442 O.3        1 MOL1        -0.5508
      25    H16     20.982470   16.447705   20.487565 H          1 MOL1         0.3780
@<TRIPOS>BOND
    1     1     2    1
    2     1     3    1
    3     1     4    1
    4     4     5    1
    5     4     6    1
    6     4     7    1
    7     7     8    1
    8     7     9    1
    9     7    10    1
   10    10    11    1
   11    10    12    1
   12    10    13    1
   13    13    14    1
   14    13    15    1
   15    15    16    1
   16    15    17    1
   17    15    18    1
   18    18    19    1
   19    18    20    1
   20     1    21    1
   21    18    21    1
   22    21    22    1
   23    21    23    1
   24    13    24    1
   25    24    25    1
@<TRIPOS>SUBSTRUCTURE
       1 MOL1            1 RESIDUE      1      MOL     
@<SCITEGIC>MOL_PROPERTY
VConf Rank
SciTegic.value.IntegerValue
330

@<SCITEGIC>MOL_PROPERTY
Conf_Id
SciTegic.value.IntegerValue
24

@<SCITEGIC>MOL_PROPERTY
Delta U+W
SciTegic.value.DoubleValue
-1.236

@<SCITEGIC>MOL_PROPERTY
U+W
SciTegic.value.DoubleValue
9.678

@<SCITEGIC>MOL_PROPERTY
Grad RMS
SciTegic.value.DoubleValue
0.000000

@<SCITEGIC>MOL_PROPERTY
U
SciTegic.value.DoubleValue
11.876

@<SCITEGIC>MOL_PROPERTY
W
SciTegic.value.DoubleValue
-2.199

@<SCITEGIC>MOL_PROPERTY
W(PB)
SciTegic.value.DoubleValue
-4.335

@<SCITEGIC>MOL_PROPERTY
W(SA)
SciTegic.value.DoubleValue
2.137

@<SCITEGIC>MOL_PROPERTY
Valence
SciTegic.value.DoubleValue
17.153

@<SCITEGIC>MOL_PROPERTY
Coulomb
SciTegic.value.DoubleValue
-7.966

@<SCITEGIC>MOL_PROPERTY
VdW
SciTegic.value.DoubleValue
2.689

@<SCITEGIC>MOL_PROPERTY
VdW6
SciTegic.value.DoubleValue
-12.458

@<SCITEGIC>MOL_PROPERTY
VdW12
SciTegic.value.DoubleValue
15.147

@<SCITEGIC>MOL_PROPERTY
Bond
SciTegic.value.DoubleValue
0.421

@<SCITEGIC>MOL_PROPERTY
Angle
SciTegic.value.DoubleValue
5.258

@<SCITEGIC>MOL_PROPERTY
Pdih
SciTegic.value.DoubleValue
11.475

@<SCITEGIC>MOL_PROPERTY
Idih
SciTegic.value.DoubleValue
0.000

@<SCITEGIC>MOL_PROPERTY
Tether
SciTegic.value.DoubleValue
0.000

@<TRIPOS>MOLECULE
guest-s17_confgen4.mol2 : confsearch ligand conformer 331
          25          25           1
SMALL
USER_CHARGES
 
@<TRIPOS>ATOM
       1    C1      21.335519   17.384285   22.192785 C.3        1 MOL1        -0.1684
       2    H1      21.527397   16.599003   22.936621 H          1 MOL1         0.0833
       3    H2      21.849052   17.058626   21.277862 H          1 MOL1         0.0833
       4    C2      19.813337   17.431900   21.894632 C.3        1 MOL1        -0.1684
       5    H3      19.621003   17.952753   20.948052 H          1 MOL1         0.0833
       6    H4      19.490489   16.397310   21.714465 H          1 MOL1         0.0833
       7    C3      18.919589   18.021073   23.013894 C.3        1 MOL1        -0.1684
       8    H5      19.319871   17.770024   24.005461 H          1 MOL1         0.0833
       9    H6      17.950864   17.506302   22.952362 H          1 MOL1         0.0833
      10    C4      18.629265   19.544017   22.894395 C.3        1 MOL1        -0.1760
      11    H7      18.517923   19.838995   21.843172 H          1 MOL1         0.0833
      12    H8      17.645317   19.712193   23.353213 H          1 MOL1         0.0833
      13    C5      19.648594   20.462574   23.611543 C.3        1 MOL1         0.1219
      14    H9      20.074557   19.913868   24.461927 H          1 MOL1         0.0790
      15    C6      20.797860   21.000970   22.722090 C.3        1 MOL1        -0.1760
      16    H10     20.401225   21.758229   22.033170 H          1 MOL1         0.0833
      17    H11     21.504875   21.528498   23.375898 H          1 MOL1         0.0833
      18    C7      21.586993   19.957868   21.891520 C.3        1 MOL1        -0.1684
      19    H12     22.495321   20.443366   21.509435 H          1 MOL1         0.0833
      20    H13     21.015420   19.689915   20.995307 H          1 MOL1         0.0833
      21    C8      21.996764   18.693667   22.688537 C.3        1 MOL1        -0.1684
      22    H14     21.802194   18.821704   23.759707 H          1 MOL1         0.0833
      23    H15     23.086141   18.571245   22.616832 H          1 MOL1         0.0833
      24    O1      18.950465   21.589512   24.125677 O.3        1 MOL1        -0.5508
      25    H16     18.562829   22.051028   23.353852 H          1 MOL1         0.3780
@<TRIPOS>BOND
    1     1     2    1
    2     1     3    1
    3     1     4    1
    4     4     5    1
    5     4     6    1
    6     4     7    1
    7     7     8    1
    8     7     9    1
    9     7    10    1
   10    10    11    1
   11    10    12    1
   12    10    13    1
   13    13    14    1
   14    13    15    1
   15    15    16    1
   16    15    17    1
   17    15    18    1
   18    18    19    1
   19    18    20    1
   20     1    21    1
   21    18    21    1
   22    21    22    1
   23    21    23    1
   24    13    24    1
   25    24    25    1
@<TRIPOS>SUBSTRUCTURE
       1 MOL1            1 RESIDUE      1      MOL     
@<SCITEGIC>MOL_PROPERTY
VConf Rank
SciTegic.value.IntegerValue
331

@<SCITEGIC>MOL_PROPERTY
Conf_Id
SciTegic.value.IntegerValue
167

@<SCITEGIC>MOL_PROPERTY
Delta U+W
SciTegic.value.DoubleValue
0.388

@<SCITEGIC>MOL_PROPERTY
U+W
SciTegic.value.DoubleValue
11.301

@<SCITEGIC>MOL_PROPERTY
Grad RMS
SciTegic.value.DoubleValue
0.000000

@<SCITEGIC>MOL_PROPERTY
U
SciTegic.value.DoubleValue
13.202

@<SCITEGIC>MOL_PROPERTY
W
SciTegic.value.DoubleValue
-1.901

@<SCITEGIC>MOL_PROPERTY
W(PB)
SciTegic.value.DoubleValue
-4.065

@<SCITEGIC>MOL_PROPERTY
W(SA)
SciTegic.value.DoubleValue
2.163

@<SCITEGIC>MOL_PROPERTY
Valence
SciTegic.value.DoubleValue
18.957

@<SCITEGIC>MOL_PROPERTY
Coulomb
SciTegic.value.DoubleValue
-8.753

@<SCITEGIC>MOL_PROPERTY
VdW
SciTegic.value.DoubleValue
2.998

@<SCITEGIC>MOL_PROPERTY
VdW6
SciTegic.value.DoubleValue
-12.294

@<SCITEGIC>MOL_PROPERTY
VdW12
SciTegic.value.DoubleValue
15.292

@<SCITEGIC>MOL_PROPERTY
Bond
SciTegic.value.DoubleValue
0.419

@<SCITEGIC>MOL_PROPERTY
Angle
SciTegic.value.DoubleValue
4.543

@<SCITEGIC>MOL_PROPERTY
Pdih
SciTegic.value.DoubleValue
13.996

@<SCITEGIC>MOL_PROPERTY
Idih
SciTegic.value.DoubleValue
0.000

@<SCITEGIC>MOL_PROPERTY
Tether
SciTegic.value.DoubleValue
0.000

@<TRIPOS>MOLECULE
guest-s17_confgen4.mol2 : confsearch ligand conformer 332
          25          25           1
SMALL
USER_CHARGES
 
@<TRIPOS>ATOM
       1    C1      19.144894   18.894379   24.325645 C.3        1 MOL1        -0.1684
       2    H1      19.475576   18.214596   25.122543 H          1 MOL1         0.0833
       3    H2      18.177087   19.292925   24.659457 H          1 MOL1         0.0833
       4    C2      18.896091   18.071465   23.034827 C.3        1 MOL1        -0.1684
       5    H3      19.676475   17.313522   22.903190 H          1 MOL1         0.0833
       6    H4      17.977059   17.491214   23.195213 H          1 MOL1         0.0833
       7    C3      18.720344   18.902704   21.737523 C.3        1 MOL1        -0.1684
       8    H5      18.358092   19.914026   21.962849 H          1 MOL1         0.0833
       9    H6      17.917524   18.434537   21.151688 H          1 MOL1         0.0833
      10    C4      19.974768   18.957805   20.823393 C.3        1 MOL1        -0.1760
      11    H7      20.293391   17.936071   20.578892 H          1 MOL1         0.0833
      12    H8      19.668968   19.408601   19.869949 H          1 MOL1         0.0833
      13    C5      21.191065   19.758164   21.352028 C.3        1 MOL1         0.1219
      14    H9      20.863413   20.769738   21.626833 H          1 MOL1         0.0790
      15    C6      21.911297   19.094755   22.554476 C.3        1 MOL1        -0.1760
      16    H10     21.694082   18.022132   22.578331 H          1 MOL1         0.0833
      17    H11     22.997992   19.148749   22.405740 H          1 MOL1         0.0833
      18    C7      21.606785   19.733586   23.934306 C.3        1 MOL1        -0.1684
      19    H12     22.191916   20.659982   24.014033 H          1 MOL1         0.0833
      20    H13     21.986946   19.072429   24.724813 H          1 MOL1         0.0833
      21    C8      20.127999   20.088236   24.231433 C.3        1 MOL1        -0.1684
      22    H14     19.758117   20.830307   23.514727 H          1 MOL1         0.0833
      23    H15     20.105710   20.605530   25.200314 H          1 MOL1         0.0833
      24    O1      22.121957   19.869470   20.281881 O.3        1 MOL1        -0.5508
      25    H16     22.854461   20.434920   20.604714 H          1 MOL1         0.3780
@<TRIPOS>BOND
    1     1     2    1
    2     1     3    1
    3     1     4    1
    4     4     5    1
    5     4     6    1
    6     4     7    1
    7     7     8    1
    8     7     9    1
    9     7    10    1
   10    10    11    1
   11    10    12    1
   12    10    13    1
   13    13    14    1
   14    13    15    1
   15    15    16    1
   16    15    17    1
   17    15    18    1
   18    18    19    1
   19    18    20    1
   20     1    21    1
   21    18    21    1
   22    21    22    1
   23    21    23    1
   24    13    24    1
   25    24    25    1
@<TRIPOS>SUBSTRUCTURE
       1 MOL1            1 RESIDUE      1      MOL     
@<SCITEGIC>MOL_PROPERTY
VConf Rank
SciTegic.value.IntegerValue
332

@<SCITEGIC>MOL_PROPERTY
Conf_Id
SciTegic.value.IntegerValue
60

@<SCITEGIC>MOL_PROPERTY
Delta U+W
SciTegic.value.DoubleValue
-1.838

@<SCITEGIC>MOL_PROPERTY
U+W
SciTegic.value.DoubleValue
9.075

@<SCITEGIC>MOL_PROPERTY
Grad RMS
SciTegic.value.DoubleValue
0.000000

@<SCITEGIC>MOL_PROPERTY
U
SciTegic.value.DoubleValue
11.150

@<SCITEGIC>MOL_PROPERTY
W
SciTegic.value.DoubleValue
-2.074

@<SCITEGIC>MOL_PROPERTY
W(PB)
SciTegic.value.DoubleValue
-4.196

@<SCITEGIC>MOL_PROPERTY
W(SA)
SciTegic.value.DoubleValue
2.121

@<SCITEGIC>MOL_PROPERTY
Valence
SciTegic.value.DoubleValue
16.582

@<SCITEGIC>MOL_PROPERTY
Coulomb
SciTegic.value.DoubleValue
-8.361

@<SCITEGIC>MOL_PROPERTY
VdW
SciTegic.value.DoubleValue
2.928

@<SCITEGIC>MOL_PROPERTY
VdW6
SciTegic.value.DoubleValue
-12.539

@<SCITEGIC>MOL_PROPERTY
VdW12
SciTegic.value.DoubleValue
15.467

@<SCITEGIC>MOL_PROPERTY
Bond
SciTegic.value.DoubleValue
0.441

@<SCITEGIC>MOL_PROPERTY
Angle
SciTegic.value.DoubleValue
5.093

@<SCITEGIC>MOL_PROPERTY
Pdih
SciTegic.value.DoubleValue
11.049

@<SCITEGIC>MOL_PROPERTY
Idih
SciTegic.value.DoubleValue
0.000

@<SCITEGIC>MOL_PROPERTY
Tether
SciTegic.value.DoubleValue
0.000

@<TRIPOS>MOLECULE
guest-s17_confgen4.mol2 : confsearch ligand conformer 333
          25          25           1
SMALL
USER_CHARGES
 
@<TRIPOS>ATOM
       1    C1      21.587232   17.596062   23.006311 C.3        1 MOL1        -0.1684
       2    H1      21.360845   16.591569   22.623890 H          1 MOL1         0.0833
       3    H2      22.525312   17.493957   23.568894 H          1 MOL1         0.0833
       4    C2      20.488621   18.019198   24.013621 C.3        1 MOL1        -0.1684
       5    H3      20.503538   17.291377   24.836346 H          1 MOL1         0.0833
       6    H4      20.751473   18.972973   24.485182 H          1 MOL1         0.0833
       7    C3      19.039881   18.063158   23.465817 C.3        1 MOL1        -0.1684
       8    H5      18.370941   18.261944   24.314313 H          1 MOL1         0.0833
       9    H6      18.762188   17.067277   23.094792 H          1 MOL1         0.0833
      10    C4      18.737864   19.112515   22.364728 C.3        1 MOL1        -0.1760
      11    H7      19.060020   18.738585   21.387657 H          1 MOL1         0.0833
      12    H8      17.645539   19.187622   22.280319 H          1 MOL1         0.0833
      13    C5      19.334941   20.520688   22.620208 C.3        1 MOL1         0.1219
      14    H9      19.573883   20.635507   23.685983 H          1 MOL1         0.0790
      15    C6      20.598871   20.833429   21.781114 C.3        1 MOL1        -0.1760
      16    H10     20.371266   20.687427   20.717102 H          1 MOL1         0.0833
      17    H11     20.815938   21.903997   21.893141 H          1 MOL1         0.0833
      18    C7      21.892396   20.054163   22.144139 C.3        1 MOL1        -0.1684
      19    H12     22.163537   20.217866   23.195069 H          1 MOL1         0.0833
      20    H13     22.710140   20.503009   21.563849 H          1 MOL1         0.0833
      21    C8      21.857340   18.541005   21.806548 C.3        1 MOL1        -0.1684
      22    H14     22.835087   18.261630   21.390621 H          1 MOL1         0.0833
      23    H15     21.149892   18.344743   20.993037 H          1 MOL1         0.0833
      24    O1      18.350557   21.489927   22.280018 O.3        1 MOL1        -0.5508
      25    H16     17.581413   21.326061   22.864894 H          1 MOL1         0.3780
@<TRIPOS>BOND
    1     1     2    1
    2     1     3    1
    3     1     4    1
    4     4     5    1
    5     4     6    1
    6     4     7    1
    7     7     8    1
    8     7     9    1
    9     7    10    1
   10    10    11    1
   11    10    12    1
   12    10    13    1
   13    13    14    1
   14    13    15    1
   15    15    16    1
   16    15    17    1
   17    15    18    1
   18    18    19    1
   19    18    20    1
   20     1    21    1
   21    18    21    1
   22    21    22    1
   23    21    23    1
   24    13    24    1
   25    24    25    1
@<TRIPOS>SUBSTRUCTURE
       1 MOL1            1 RESIDUE      1      MOL     
@<SCITEGIC>MOL_PROPERTY
VConf Rank
SciTegic.value.IntegerValue
333

@<SCITEGIC>MOL_PROPERTY
Conf_Id
SciTegic.value.IntegerValue
129

@<SCITEGIC>MOL_PROPERTY
Delta U+W
SciTegic.value.DoubleValue
-1.846

@<SCITEGIC>MOL_PROPERTY
U+W
SciTegic.value.DoubleValue
9.067

@<SCITEGIC>MOL_PROPERTY
Grad RMS
SciTegic.value.DoubleValue
0.000000

@<SCITEGIC>MOL_PROPERTY
U
SciTegic.value.DoubleValue
11.150

@<SCITEGIC>MOL_PROPERTY
W
SciTegic.value.DoubleValue
-2.083

@<SCITEGIC>MOL_PROPERTY
W(PB)
SciTegic.value.DoubleValue
-4.217

@<SCITEGIC>MOL_PROPERTY
W(SA)
SciTegic.value.DoubleValue
2.134

@<SCITEGIC>MOL_PROPERTY
Valence
SciTegic.value.DoubleValue
16.583

@<SCITEGIC>MOL_PROPERTY
Coulomb
SciTegic.value.DoubleValue
-8.361

@<SCITEGIC>MOL_PROPERTY
VdW
SciTegic.value.DoubleValue
2.928

@<SCITEGIC>MOL_PROPERTY
VdW6
SciTegic.value.DoubleValue
-12.539

@<SCITEGIC>MOL_PROPERTY
VdW12
SciTegic.value.DoubleValue
15.467

@<SCITEGIC>MOL_PROPERTY
Bond
SciTegic.value.DoubleValue
0.441

@<SCITEGIC>MOL_PROPERTY
Angle
SciTegic.value.DoubleValue
5.093

@<SCITEGIC>MOL_PROPERTY
Pdih
SciTegic.value.DoubleValue
11.049

@<SCITEGIC>MOL_PROPERTY
Idih
SciTegic.value.DoubleValue
0.000

@<SCITEGIC>MOL_PROPERTY
Tether
SciTegic.value.DoubleValue
0.000

@<TRIPOS>MOLECULE
guest-s17_confgen4.mol2 : confsearch ligand conformer 334
          25          25           1
SMALL
USER_CHARGES
 
@<TRIPOS>ATOM
       1    C1      19.961939   20.838332   23.885344 C.3        1 MOL1        -0.1684
       2    H1      19.349097   20.749292   24.792539 H          1 MOL1         0.0833
       3    H2      20.307063   21.881059   23.862371 H          1 MOL1         0.0833
       4    C2      19.066651   20.620434   22.639874 C.3        1 MOL1        -0.1684
       5    H3      18.296481   21.403705   22.651359 H          1 MOL1         0.0833
       6    H4      19.636693   20.808277   21.722831 H          1 MOL1         0.0833
       7    C3      18.334465   19.257703   22.555409 C.3        1 MOL1        -0.1684
       8    H5      17.657856   19.299266   21.690814 H          1 MOL1         0.0833
       9    H6      17.686997   19.138377   23.434638 H          1 MOL1         0.0833
      10    C4      19.218525   17.992309   22.405442 C.3        1 MOL1        -0.1760
      11    H7      19.600264   17.680311   23.382924 H          1 MOL1         0.0833
      12    H8      18.555263   17.174308   22.093074 H          1 MOL1         0.0833
      13    C5      20.383259   18.121952   21.389980 C.3        1 MOL1         0.1219
      14    H9      20.178427   18.947360   20.695274 H          1 MOL1         0.0790
      15    C6      21.773821   18.334410   22.039671 C.3        1 MOL1        -0.1760
      16    H10     21.969067   17.527130   22.757580 H          1 MOL1         0.0833
      17    H11     22.530641   18.222019   21.251745 H          1 MOL1         0.0833
      18    C7      22.023165   19.702351   22.730746 C.3        1 MOL1        -0.1684
      19    H12     21.876951   20.528669   22.023206 H          1 MOL1         0.0833
      20    H13     23.088618   19.737916   22.996287 H          1 MOL1         0.0833
      21    C8      21.210822   19.930955   24.031663 C.3        1 MOL1        -0.1684
      22    H14     21.871956   20.408969   24.767498 H          1 MOL1         0.0833
      23    H15     20.940707   18.973107   24.490318 H          1 MOL1         0.0833
      24    O1      20.449779   16.919160   20.634316 O.3        1 MOL1        -0.5508
      25    H16     20.636865   16.201041   21.273258 H          1 MOL1         0.3780
@<TRIPOS>BOND
    1     1     2    1
    2     1     3    1
    3     1     4    1
    4     4     5    1
    5     4     6    1
    6     4     7    1
    7     7     8    1
    8     7     9    1
    9     7    10    1
   10    10    11    1
   11    10    12    1
   12    10    13    1
   13    13    14    1
   14    13    15    1
   15    15    16    1
   16    15    17    1
   17    15    18    1
   18    18    19    1
   19    18    20    1
   20     1    21    1
   21    18    21    1
   22    21    22    1
   23    21    23    1
   24    13    24    1
   25    24    25    1
@<TRIPOS>SUBSTRUCTURE
       1 MOL1            1 RESIDUE      1      MOL     
@<SCITEGIC>MOL_PROPERTY
VConf Rank
SciTegic.value.IntegerValue
334

@<SCITEGIC>MOL_PROPERTY
Conf_Id
SciTegic.value.IntegerValue
140

@<SCITEGIC>MOL_PROPERTY
Delta U+W
SciTegic.value.DoubleValue
-1.702

@<SCITEGIC>MOL_PROPERTY
U+W
SciTegic.value.DoubleValue
9.211

@<SCITEGIC>MOL_PROPERTY
Grad RMS
SciTegic.value.DoubleValue
0.000000

@<SCITEGIC>MOL_PROPERTY
U
SciTegic.value.DoubleValue
11.181

@<SCITEGIC>MOL_PROPERTY
W
SciTegic.value.DoubleValue
-1.969

@<SCITEGIC>MOL_PROPERTY
W(PB)
SciTegic.value.DoubleValue
-4.093

@<SCITEGIC>MOL_PROPERTY
W(SA)
SciTegic.value.DoubleValue
2.124

@<SCITEGIC>MOL_PROPERTY
Valence
SciTegic.value.DoubleValue
16.954

@<SCITEGIC>MOL_PROPERTY
Coulomb
SciTegic.value.DoubleValue
-8.661

@<SCITEGIC>MOL_PROPERTY
VdW
SciTegic.value.DoubleValue
2.887

@<SCITEGIC>MOL_PROPERTY
VdW6
SciTegic.value.DoubleValue
-12.561

@<SCITEGIC>MOL_PROPERTY
VdW12
SciTegic.value.DoubleValue
15.448

@<SCITEGIC>MOL_PROPERTY
Bond
SciTegic.value.DoubleValue
0.433

@<SCITEGIC>MOL_PROPERTY
Angle
SciTegic.value.DoubleValue
5.120

@<SCITEGIC>MOL_PROPERTY
Pdih
SciTegic.value.DoubleValue
11.401

@<SCITEGIC>MOL_PROPERTY
Idih
SciTegic.value.DoubleValue
0.000

@<SCITEGIC>MOL_PROPERTY
Tether
SciTegic.value.DoubleValue
0.000

@<TRIPOS>MOLECULE
guest-s17_confgen4.mol2 : confsearch ligand conformer 335
          25          25           1
SMALL
USER_CHARGES
 
@<TRIPOS>ATOM
       1    C1      20.934441   21.117413   22.906289 C.3        1 MOL1        -0.1684
       2    H1      20.544469   21.932288   22.281461 H          1 MOL1         0.0833
       3    H2      21.661824   21.585682   23.583458 H          1 MOL1         0.0833
       4    C2      21.704271   20.117601   22.005076 C.3        1 MOL1        -0.1684
       5    H3      21.169778   19.957107   21.062016 H          1 MOL1         0.0833
       6    H4      22.641446   20.607720   21.707522 H          1 MOL1         0.0833
       7    C3      22.059042   18.761417   22.667987 C.3        1 MOL1        -0.1684
       8    H5      22.117668   18.858566   23.759737 H          1 MOL1         0.0833
       9    H6      23.075887   18.494158   22.349296 H          1 MOL1         0.0833
      10    C4      21.133833   17.580072   22.268703 C.3        1 MOL1        -0.1760
      11    H7      21.128697   17.479985   21.175464 H          1 MOL1         0.0833
      12    H8      21.594596   16.658958   22.650124 H          1 MOL1         0.0833
      13    C5      19.675201   17.626902   22.789369 C.3        1 MOL1         0.1219
      14    H9      19.684097   17.757634   23.879645 H          1 MOL1         0.0790
      15    C6      18.801112   18.729683   22.137899 C.3        1 MOL1        -0.1760
      16    H10     19.218411   19.021485   21.168749 H          1 MOL1         0.0833
      17    H11     17.812320   18.314517   21.900109 H          1 MOL1         0.0833
      18    C7      18.563812   19.984514   23.017875 C.3        1 MOL1        -0.1684
      19    H12     17.797874   19.731787   23.763877 H          1 MOL1         0.0833
      20    H13     18.124846   20.777509   22.397418 H          1 MOL1         0.0833
      21    C8      19.788245   20.549742   23.780470 C.3        1 MOL1        -0.1684
      22    H14     20.178460   19.807129   24.485778 H          1 MOL1         0.0833
      23    H15     19.426184   21.369820   24.415442 H          1 MOL1         0.0833
      24    O1      19.084432   16.365302   22.503863 O.3        1 MOL1        -0.5508
      25    H16     19.091799   16.270625   21.529222 H          1 MOL1         0.3780
@<TRIPOS>BOND
    1     1     2    1
    2     1     3    1
    3     1     4    1
    4     4     5    1
    5     4     6    1
    6     4     7    1
    7     7     8    1
    8     7     9    1
    9     7    10    1
   10    10    11    1
   11    10    12    1
   12    10    13    1
   13    13    14    1
   14    13    15    1
   15    15    16    1
   16    15    17    1
   17    15    18    1
   18    18    19    1
   19    18    20    1
   20     1    21    1
   21    18    21    1
   22    21    22    1
   23    21    23    1
   24    13    24    1
   25    24    25    1
@<TRIPOS>SUBSTRUCTURE
       1 MOL1            1 RESIDUE      1      MOL     
@<SCITEGIC>MOL_PROPERTY
VConf Rank
SciTegic.value.IntegerValue
335

@<SCITEGIC>MOL_PROPERTY
Conf_Id
SciTegic.value.IntegerValue
68

@<SCITEGIC>MOL_PROPERTY
Delta U+W
SciTegic.value.DoubleValue
-1.765

@<SCITEGIC>MOL_PROPERTY
U+W
SciTegic.value.DoubleValue
9.148

@<SCITEGIC>MOL_PROPERTY
Grad RMS
SciTegic.value.DoubleValue
0.000000

@<SCITEGIC>MOL_PROPERTY
U
SciTegic.value.DoubleValue
11.181

@<SCITEGIC>MOL_PROPERTY
W
SciTegic.value.DoubleValue
-2.032

@<SCITEGIC>MOL_PROPERTY
W(PB)
SciTegic.value.DoubleValue
-4.147

@<SCITEGIC>MOL_PROPERTY
W(SA)
SciTegic.value.DoubleValue
2.114

@<SCITEGIC>MOL_PROPERTY
Valence
SciTegic.value.DoubleValue
16.955

@<SCITEGIC>MOL_PROPERTY
Coulomb
SciTegic.value.DoubleValue
-8.661

@<SCITEGIC>MOL_PROPERTY
VdW
SciTegic.value.DoubleValue
2.887

@<SCITEGIC>MOL_PROPERTY
VdW6
SciTegic.value.DoubleValue
-12.561

@<SCITEGIC>MOL_PROPERTY
VdW12
SciTegic.value.DoubleValue
15.448

@<SCITEGIC>MOL_PROPERTY
Bond
SciTegic.value.DoubleValue
0.433

@<SCITEGIC>MOL_PROPERTY
Angle
SciTegic.value.DoubleValue
5.121

@<SCITEGIC>MOL_PROPERTY
Pdih
SciTegic.value.DoubleValue
11.402

@<SCITEGIC>MOL_PROPERTY
Idih
SciTegic.value.DoubleValue
0.000

@<SCITEGIC>MOL_PROPERTY
Tether
SciTegic.value.DoubleValue
0.000

@<TRIPOS>MOLECULE
guest-s17_confgen4.mol2 : confsearch ligand conformer 336
          25          25           1
SMALL
USER_CHARGES
 
@<TRIPOS>ATOM
       1    C1      18.704102   20.025637   22.006829 C.3        1 MOL1        -0.1684
       2    H1      17.768520   20.534491   21.736960 H          1 MOL1         0.0833
       3    H2      19.014424   19.521519   21.084627 H          1 MOL1         0.0833
       4    C2      18.385116   18.988279   23.114728 C.3        1 MOL1        -0.1684
       5    H3      18.567688   19.406556   24.112889 H          1 MOL1         0.0833
       6    H4      17.304842   18.791072   23.080998 H          1 MOL1         0.0833
       7    C3      19.099688   17.621015   22.951695 C.3        1 MOL1        -0.1684
       8    H5      18.862762   17.201531   21.964288 H          1 MOL1         0.0833
       9    H6      18.659945   16.925890   23.679885 H          1 MOL1         0.0833
      10    C4      20.637855   17.609850   23.157779 C.3        1 MOL1        -0.1760
      11    H7      20.892524   17.997854   24.151335 H          1 MOL1         0.0833
      12    H8      20.947126   16.555923   23.171911 H          1 MOL1         0.0833
      13    C5      21.439833   18.345713   22.053141 C.3        1 MOL1         0.1219
      14    H9      20.813627   18.437773   21.158191 H          1 MOL1         0.0790
      15    C6      21.961068   19.747556   22.454630 C.3        1 MOL1        -0.1760
      16    H10     22.841063   19.620741   23.098915 H          1 MOL1         0.0833
      17    H11     22.321380   20.255177   21.550429 H          1 MOL1         0.0833
      18    C7      20.974097   20.683686   23.198681 C.3        1 MOL1        -0.1684
      19    H12     21.527594   21.592865   23.470265 H          1 MOL1         0.0833
      20    H13     20.677590   20.243827   24.157803 H          1 MOL1         0.0833
      21    C8      19.722770   21.126894   22.400003 C.3        1 MOL1        -0.1684
      22    H14     20.040166   21.659097   21.493026 H          1 MOL1         0.0833
      23    H15     19.191955   21.871138   23.009376 H          1 MOL1         0.0833
      24    O1      22.568883   17.552474   21.708611 O.3        1 MOL1        -0.5508
      25    H16     23.105983   17.466579   22.522880 H          1 MOL1         0.3780
@<TRIPOS>BOND
    1     1     2    1
    2     1     3    1
    3     1     4    1
    4     4     5    1
    5     4     6    1
    6     4     7    1
    7     7     8    1
    8     7     9    1
    9     7    10    1
   10    10    11    1
   11    10    12    1
   12    10    13    1
   13    13    14    1
   14    13    15    1
   15    15    16    1
   16    15    17    1
   17    15    18    1
   18    18    19    1
   19    18    20    1
   20     1    21    1
   21    18    21    1
   22    21    22    1
   23    21    23    1
   24    13    24    1
   25    24    25    1
@<TRIPOS>SUBSTRUCTURE
       1 MOL1            1 RESIDUE      1      MOL     
@<SCITEGIC>MOL_PROPERTY
VConf Rank
SciTegic.value.IntegerValue
336

@<SCITEGIC>MOL_PROPERTY
Conf_Id
SciTegic.value.IntegerValue
165

@<SCITEGIC>MOL_PROPERTY
Delta U+W
SciTegic.value.DoubleValue
-1.999

@<SCITEGIC>MOL_PROPERTY
U+W
SciTegic.value.DoubleValue
8.915

@<SCITEGIC>MOL_PROPERTY
Grad RMS
SciTegic.value.DoubleValue
0.000000

@<SCITEGIC>MOL_PROPERTY
U
SciTegic.value.DoubleValue
10.935

@<SCITEGIC>MOL_PROPERTY
W
SciTegic.value.DoubleValue
-2.020

@<SCITEGIC>MOL_PROPERTY
W(PB)
SciTegic.value.DoubleValue
-4.135

@<SCITEGIC>MOL_PROPERTY
W(SA)
SciTegic.value.DoubleValue
2.115

@<SCITEGIC>MOL_PROPERTY
Valence
SciTegic.value.DoubleValue
16.757

@<SCITEGIC>MOL_PROPERTY
Coulomb
SciTegic.value.DoubleValue
-8.731

@<SCITEGIC>MOL_PROPERTY
VdW
SciTegic.value.DoubleValue
2.908

@<SCITEGIC>MOL_PROPERTY
VdW6
SciTegic.value.DoubleValue
-12.597

@<SCITEGIC>MOL_PROPERTY
VdW12
SciTegic.value.DoubleValue
15.506

@<SCITEGIC>MOL_PROPERTY
Bond
SciTegic.value.DoubleValue
0.434

@<SCITEGIC>MOL_PROPERTY
Angle
SciTegic.value.DoubleValue
5.069

@<SCITEGIC>MOL_PROPERTY
Pdih
SciTegic.value.DoubleValue
11.254

@<SCITEGIC>MOL_PROPERTY
Idih
SciTegic.value.DoubleValue
0.000

@<SCITEGIC>MOL_PROPERTY
Tether
SciTegic.value.DoubleValue
0.000

@<TRIPOS>MOLECULE
guest-s17_confgen4.mol2 : confsearch ligand conformer 337
          25          25           1
SMALL
USER_CHARGES
 
@<TRIPOS>ATOM
       1    C1      19.138107   18.653095   21.346996 C.3        1 MOL1        -0.1684
       2    H1      18.431422   18.425663   20.537086 H          1 MOL1         0.0833
       3    H2      19.466969   17.670501   21.703592 H          1 MOL1         0.0833
       4    C2      18.340907   19.398949   22.448643 C.3        1 MOL1        -0.1684
       5    H3      17.672894   20.115036   21.950663 H          1 MOL1         0.0833
       6    H4      17.680891   18.683473   22.957603 H          1 MOL1         0.0833
       7    C3      19.156016   20.186182   23.505147 C.3        1 MOL1        -0.1684
       8    H5      18.437679   20.724406   24.138399 H          1 MOL1         0.0833
       9    H6      19.743807   20.975229   23.022239 H          1 MOL1         0.0833
      10    C4      20.053761   19.338797   24.443242 C.3        1 MOL1        -0.1760
      11    H7      20.475710   20.018063   25.196284 H          1 MOL1         0.0833
      12    H8      19.421671   18.630780   24.994506 H          1 MOL1         0.0833
      13    C5      21.219819   18.557230   23.789619 C.3        1 MOL1         0.1219
      14    H9      20.825152   17.655610   23.306732 H          1 MOL1         0.0790
      15    C6      22.038763   19.366906   22.751382 C.3        1 MOL1        -0.1760
      16    H10     21.932754   20.444286   22.924964 H          1 MOL1         0.0833
      17    H11     23.104989   19.155688   22.909750 H          1 MOL1         0.0833
      18    C7      21.725058   19.021268   21.271140 C.3        1 MOL1        -0.1684
      19    H12     21.867885   17.943628   21.112151 H          1 MOL1         0.0833
      20    H13     22.481850   19.513879   20.645542 H          1 MOL1         0.0833
      21    C8      20.328918   19.439313   20.739257 C.3        1 MOL1        -0.1684
      22    H14     20.329619   19.252508   19.656615 H          1 MOL1         0.0833
      23    H15     20.181540   20.522076   20.841796 H          1 MOL1         0.0833
      24    O1      22.094915   18.145695   24.833822 O.3        1 MOL1        -0.5508
      25    H16     21.562444   17.600329   25.449849 H          1 MOL1         0.3780
@<TRIPOS>BOND
    1     1     2    1
    2     1     3    1
    3     1     4    1
    4     4     5    1
    5     4     6    1
    6     4     7    1
    7     7     8    1
    8     7     9    1
    9     7    10    1
   10    10    11    1
   11    10    12    1
   12    10    13    1
   13    13    14    1
   14    13    15    1
   15    15    16    1
   16    15    17    1
   17    15    18    1
   18    18    19    1
   19    18    20    1
   20     1    21    1
   21    18    21    1
   22    21    22    1
   23    21    23    1
   24    13    24    1
   25    24    25    1
@<TRIPOS>SUBSTRUCTURE
       1 MOL1            1 RESIDUE      1      MOL     
@<SCITEGIC>MOL_PROPERTY
VConf Rank
SciTegic.value.IntegerValue
337

@<SCITEGIC>MOL_PROPERTY
Conf_Id
SciTegic.value.IntegerValue
133

@<SCITEGIC>MOL_PROPERTY
Delta U+W
SciTegic.value.DoubleValue
-2.139

@<SCITEGIC>MOL_PROPERTY
U+W
SciTegic.value.DoubleValue
8.774

@<SCITEGIC>MOL_PROPERTY
Grad RMS
SciTegic.value.DoubleValue
0.000000

@<SCITEGIC>MOL_PROPERTY
U
SciTegic.value.DoubleValue
10.905

@<SCITEGIC>MOL_PROPERTY
W
SciTegic.value.DoubleValue
-2.131

@<SCITEGIC>MOL_PROPERTY
W(PB)
SciTegic.value.DoubleValue
-4.281

@<SCITEGIC>MOL_PROPERTY
W(SA)
SciTegic.value.DoubleValue
2.150

@<SCITEGIC>MOL_PROPERTY
Valence
SciTegic.value.DoubleValue
16.378

@<SCITEGIC>MOL_PROPERTY
Coulomb
SciTegic.value.DoubleValue
-8.448

@<SCITEGIC>MOL_PROPERTY
VdW
SciTegic.value.DoubleValue
2.976

@<SCITEGIC>MOL_PROPERTY
VdW6
SciTegic.value.DoubleValue
-12.570

@<SCITEGIC>MOL_PROPERTY
VdW12
SciTegic.value.DoubleValue
15.545

@<SCITEGIC>MOL_PROPERTY
Bond
SciTegic.value.DoubleValue
0.439

@<SCITEGIC>MOL_PROPERTY
Angle
SciTegic.value.DoubleValue
5.049

@<SCITEGIC>MOL_PROPERTY
Pdih
SciTegic.value.DoubleValue
10.889

@<SCITEGIC>MOL_PROPERTY
Idih
SciTegic.value.DoubleValue
0.000

@<SCITEGIC>MOL_PROPERTY
Tether
SciTegic.value.DoubleValue
0.000

@<TRIPOS>MOLECULE
guest-s17_confgen4.mol2 : confsearch ligand conformer 338
          25          25           1
SMALL
USER_CHARGES
 
@<TRIPOS>ATOM
       1    C1      20.805933   19.443268   20.911162 C.3        1 MOL1        -0.1684
       2    H1      21.165070   19.637958   19.891259 H          1 MOL1         0.0833
       3    H2      20.037293   18.672455   20.785289 H          1 MOL1         0.0833
       4    C2      20.180626   20.752717   21.458753 C.3        1 MOL1        -0.1684
       5    H3      20.910825   21.324449   22.045729 H          1 MOL1         0.0833
       6    H4      19.944421   21.391404   20.596606 H          1 MOL1         0.0833
       7    C3      18.862772   20.562250   22.254902 C.3        1 MOL1        -0.1684
       8    H5      18.132227   20.031834   21.628842 H          1 MOL1         0.0833
       9    H6      18.432127   21.557451   22.430670 H          1 MOL1         0.0833
      10    C4      18.975493   19.847646   23.628083 C.3        1 MOL1        -0.1760
      11    H7      19.677266   20.379519   24.281341 H          1 MOL1         0.0833
      12    H8      17.998106   19.944536   24.119875 H          1 MOL1         0.0833
      13    C5      19.333618   18.341421   23.543137 C.3        1 MOL1         0.1219
      14    H9      19.104169   17.977328   22.534848 H          1 MOL1         0.0790
      15    C6      20.806943   18.008138   23.883703 C.3        1 MOL1        -0.1760
      16    H10     20.924658   18.050149   24.974984 H          1 MOL1         0.0833
      17    H11     21.006955   16.967566   23.597481 H          1 MOL1         0.0833
      18    C7      21.899631   18.916886   23.263838 C.3        1 MOL1        -0.1684
      19    H12     22.866789   18.586406   23.666440 H          1 MOL1         0.0833
      20    H13     21.789201   19.947090   23.621299 H          1 MOL1         0.0833
      21    C8      22.009917   18.892067   21.718663 C.3        1 MOL1        -0.1684
      22    H14     22.223603   17.867356   21.385683 H          1 MOL1         0.0833
      23    H15     22.894657   19.482788   21.444276 H          1 MOL1         0.0833
      24    O1      18.512484   17.629171   24.461804 O.3        1 MOL1        -0.5508
      25    H16     18.727586   16.679063   24.354737 H          1 MOL1         0.3780
@<TRIPOS>BOND
    1     1     2    1
    2     1     3    1
    3     1     4    1
    4     4     5    1
    5     4     6    1
    6     4     7    1
    7     7     8    1
    8     7     9    1
    9     7    10    1
   10    10    11    1
   11    10    12    1
   12    10    13    1
   13    13    14    1
   14    13    15    1
   15    15    16    1
   16    15    17    1
   17    15    18    1
   18    18    19    1
   19    18    20    1
   20     1    21    1
   21    18    21    1
   22    21    22    1
   23    21    23    1
   24    13    24    1
   25    24    25    1
@<TRIPOS>SUBSTRUCTURE
       1 MOL1            1 RESIDUE      1      MOL     
@<SCITEGIC>MOL_PROPERTY
VConf Rank
SciTegic.value.IntegerValue
338

@<SCITEGIC>MOL_PROPERTY
Conf_Id
SciTegic.value.IntegerValue
95

@<SCITEGIC>MOL_PROPERTY
Delta U+W
SciTegic.value.DoubleValue
-2.190

@<SCITEGIC>MOL_PROPERTY
U+W
SciTegic.value.DoubleValue
8.723

@<SCITEGIC>MOL_PROPERTY
Grad RMS
SciTegic.value.DoubleValue
0.000000

@<SCITEGIC>MOL_PROPERTY
U
SciTegic.value.DoubleValue
10.905

@<SCITEGIC>MOL_PROPERTY
W
SciTegic.value.DoubleValue
-2.182

@<SCITEGIC>MOL_PROPERTY
W(PB)
SciTegic.value.DoubleValue
-4.296

@<SCITEGIC>MOL_PROPERTY
W(SA)
SciTegic.value.DoubleValue
2.114

@<SCITEGIC>MOL_PROPERTY
Valence
SciTegic.value.DoubleValue
16.377

@<SCITEGIC>MOL_PROPERTY
Coulomb
SciTegic.value.DoubleValue
-8.448

@<SCITEGIC>MOL_PROPERTY
VdW
SciTegic.value.DoubleValue
2.976

@<SCITEGIC>MOL_PROPERTY
VdW6
SciTegic.value.DoubleValue
-12.570

@<SCITEGIC>MOL_PROPERTY
VdW12
SciTegic.value.DoubleValue
15.546

@<SCITEGIC>MOL_PROPERTY
Bond
SciTegic.value.DoubleValue
0.439

@<SCITEGIC>MOL_PROPERTY
Angle
SciTegic.value.DoubleValue
5.049

@<SCITEGIC>MOL_PROPERTY
Pdih
SciTegic.value.DoubleValue
10.889

@<SCITEGIC>MOL_PROPERTY
Idih
SciTegic.value.DoubleValue
0.000

@<SCITEGIC>MOL_PROPERTY
Tether
SciTegic.value.DoubleValue
0.000

@<TRIPOS>MOLECULE
guest-s17_confgen4.mol2 : confsearch ligand conformer 339
          25          25           1
SMALL
USER_CHARGES
 
@<TRIPOS>ATOM
       1    C1      18.535575   18.793774   22.977411 C.3        1 MOL1        -0.1684
       2    H1      17.514386   18.515834   23.272069 H          1 MOL1         0.0833
       3    H2      18.453969   18.952053   21.897354 H          1 MOL1         0.0833
       4    C2      19.448913   17.573296   23.294374 C.3        1 MOL1        -0.1684
       5    H3      19.058274   17.099464   24.205322 H          1 MOL1         0.0833
       6    H4      19.329318   16.823105   22.501038 H          1 MOL1         0.0833
       7    C3      20.960041   17.830591   23.532676 C.3        1 MOL1        -0.1684
       8    H5      21.411657   16.882839   23.856136 H          1 MOL1         0.0833
       9    H6      21.082782   18.482615   24.403209 H          1 MOL1         0.0833
      10    C4      21.798390   18.350717   22.327204 C.3        1 MOL1        -0.1760
      11    H7      22.712317   18.824517   22.708811 H          1 MOL1         0.0833
      12    H8      22.133459   17.469287   21.765002 H          1 MOL1         0.0833
      13    C5      21.115716   19.307498   21.317146 C.3        1 MOL1         0.1219
      14    H9      20.233059   18.800865   20.913344 H          1 MOL1         0.0790
      15    C6      20.712687   20.715601   21.841935 C.3        1 MOL1        -0.1760
      16    H10     21.585885   21.374800   21.745515 H          1 MOL1         0.0833
      17    H11     19.953818   21.130685   21.166575 H          1 MOL1         0.0833
      18    C7      20.209929   20.844920   23.305331 C.3        1 MOL1        -0.1684
      19    H12     20.080847   21.914816   23.518342 H          1 MOL1         0.0833
      20    H13     21.008518   20.542503   23.990073 H          1 MOL1         0.0833
      21    C8      18.870585   20.140659   23.670957 C.3        1 MOL1        -0.1684
      22    H14     18.056273   20.836918   23.428084 H          1 MOL1         0.0833
      23    H15     18.825517   20.006969   24.760241 H          1 MOL1         0.0833
      24    O1      22.021563   19.502217   20.237266 O.3        1 MOL1        -0.5508
      25    H16     22.219602   18.615404   19.870661 H          1 MOL1         0.3780
@<TRIPOS>BOND
    1     1     2    1
    2     1     3    1
    3     1     4    1
    4     4     5    1
    5     4     6    1
    6     4     7    1
    7     7     8    1
    8     7     9    1
    9     7    10    1
   10    10    11    1
   11    10    12    1
   12    10    13    1
   13    13    14    1
   14    13    15    1
   15    15    16    1
   16    15    17    1
   17    15    18    1
   18    18    19    1
   19    18    20    1
   20     1    21    1
   21    18    21    1
   22    21    22    1
   23    21    23    1
   24    13    24    1
   25    24    25    1
@<TRIPOS>SUBSTRUCTURE
       1 MOL1            1 RESIDUE      1      MOL     
@<SCITEGIC>MOL_PROPERTY
VConf Rank
SciTegic.value.IntegerValue
339

@<SCITEGIC>MOL_PROPERTY
Conf_Id
SciTegic.value.IntegerValue
161

@<SCITEGIC>MOL_PROPERTY
Delta U+W
SciTegic.value.DoubleValue
2.120

@<SCITEGIC>MOL_PROPERTY
U+W
SciTegic.value.DoubleValue
13.033

@<SCITEGIC>MOL_PROPERTY
Grad RMS
SciTegic.value.DoubleValue
0.000000

@<SCITEGIC>MOL_PROPERTY
U
SciTegic.value.DoubleValue
15.076

@<SCITEGIC>MOL_PROPERTY
W
SciTegic.value.DoubleValue
-2.043

@<SCITEGIC>MOL_PROPERTY
W(PB)
SciTegic.value.DoubleValue
-4.186

@<SCITEGIC>MOL_PROPERTY
W(SA)
SciTegic.value.DoubleValue
2.143

@<SCITEGIC>MOL_PROPERTY
Valence
SciTegic.value.DoubleValue
18.884

@<SCITEGIC>MOL_PROPERTY
Coulomb
SciTegic.value.DoubleValue
-8.074

@<SCITEGIC>MOL_PROPERTY
VdW
SciTegic.value.DoubleValue
4.266

@<SCITEGIC>MOL_PROPERTY
VdW6
SciTegic.value.DoubleValue
-13.486

@<SCITEGIC>MOL_PROPERTY
VdW12
SciTegic.value.DoubleValue
17.752

@<SCITEGIC>MOL_PROPERTY
Bond
SciTegic.value.DoubleValue
0.713

@<SCITEGIC>MOL_PROPERTY
Angle
SciTegic.value.DoubleValue
8.955

@<SCITEGIC>MOL_PROPERTY
Pdih
SciTegic.value.DoubleValue
9.215

@<SCITEGIC>MOL_PROPERTY
Idih
SciTegic.value.DoubleValue
0.000

@<SCITEGIC>MOL_PROPERTY
Tether
SciTegic.value.DoubleValue
0.000

@<TRIPOS>MOLECULE
guest-s17_confgen4.mol2 : confsearch ligand conformer 340
          25          25           1
SMALL
USER_CHARGES
 
@<TRIPOS>ATOM
       1    C1      20.494203   18.887246   20.690183 C.3        1 MOL1        -0.1684
       2    H1      20.526997   18.970011   19.595166 H          1 MOL1         0.0833
       3    H2      20.535974   17.809078   20.890292 H          1 MOL1         0.0833
       4    C2      19.139267   19.462289   21.173041 C.3        1 MOL1        -0.1684
       5    H3      19.205756   20.548935   21.317834 H          1 MOL1         0.0833
       6    H4      18.423290   19.322291   20.351488 H          1 MOL1         0.0833
       7    C3      18.532216   18.764738   22.422138 C.3        1 MOL1        -0.1684
       8    H5      18.718427   17.682526   22.401481 H          1 MOL1         0.0833
       9    H6      17.441414   18.872902   22.346948 H          1 MOL1         0.0833
      10    C4      18.949867   19.369839   23.787383 C.3        1 MOL1        -0.1760
      11    H7      19.077892   20.454785   23.690077 H          1 MOL1         0.0833
      12    H8      18.106330   19.245546   24.479214 H          1 MOL1         0.0833
      13    C5      20.180839   18.725855   24.474278 C.3        1 MOL1         0.1219
      14    H9      19.890318   17.721630   24.814724 H          1 MOL1         0.0790
      15    C6      21.450846   18.571063   23.605942 C.3        1 MOL1        -0.1760
      16    H10     22.291998   18.324150   24.267442 H          1 MOL1         0.0833
      17    H11     21.339157   17.689039   22.966160 H          1 MOL1         0.0833
      18    C7      21.825011   19.821378   22.765740 C.3        1 MOL1        -0.1684
      19    H12     22.847310   20.128439   23.025257 H          1 MOL1         0.0833
      20    H13     21.197451   20.680091   23.030092 H          1 MOL1         0.0833
      21    C8      21.762919   19.594204   21.236290 C.3        1 MOL1        -0.1684
      22    H14     22.639672   19.006897   20.931027 H          1 MOL1         0.0833
      23    H15     21.868239   20.568235   20.739348 H          1 MOL1         0.0833
      24    O1      20.512778   19.514954   25.608078 O.3        1 MOL1        -0.5508
      25    H16     20.894772   20.343937   25.254981 H          1 MOL1         0.3780
@<TRIPOS>BOND
    1     1     2    1
    2     1     3    1
    3     1     4    1
    4     4     5    1
    5     4     6    1
    6     4     7    1
    7     7     8    1
    8     7     9    1
    9     7    10    1
   10    10    11    1
   11    10    12    1
   12    10    13    1
   13    13    14    1
   14    13    15    1
   15    15    16    1
   16    15    17    1
   17    15    18    1
   18    18    19    1
   19    18    20    1
   20     1    21    1
   21    18    21    1
   22    21    22    1
   23    21    23    1
   24    13    24    1
   25    24    25    1
@<TRIPOS>SUBSTRUCTURE
       1 MOL1            1 RESIDUE      1      MOL     
@<SCITEGIC>MOL_PROPERTY
VConf Rank
SciTegic.value.IntegerValue
340

@<SCITEGIC>MOL_PROPERTY
Conf_Id
SciTegic.value.IntegerValue
164

@<SCITEGIC>MOL_PROPERTY
Delta U+W
SciTegic.value.DoubleValue
0.008

@<SCITEGIC>MOL_PROPERTY
U+W
SciTegic.value.DoubleValue
10.922

@<SCITEGIC>MOL_PROPERTY
Grad RMS
SciTegic.value.DoubleValue
0.000000

@<SCITEGIC>MOL_PROPERTY
U
SciTegic.value.DoubleValue
12.433

@<SCITEGIC>MOL_PROPERTY
W
SciTegic.value.DoubleValue
-1.511

@<SCITEGIC>MOL_PROPERTY
W(PB)
SciTegic.value.DoubleValue
-3.669

@<SCITEGIC>MOL_PROPERTY
W(SA)
SciTegic.value.DoubleValue
2.157

@<SCITEGIC>MOL_PROPERTY
Valence
SciTegic.value.DoubleValue
19.007

@<SCITEGIC>MOL_PROPERTY
Coulomb
SciTegic.value.DoubleValue
-9.373

@<SCITEGIC>MOL_PROPERTY
VdW
SciTegic.value.DoubleValue
2.799

@<SCITEGIC>MOL_PROPERTY
VdW6
SciTegic.value.DoubleValue
-12.597

@<SCITEGIC>MOL_PROPERTY
VdW12
SciTegic.value.DoubleValue
15.396

@<SCITEGIC>MOL_PROPERTY
Bond
SciTegic.value.DoubleValue
0.425

@<SCITEGIC>MOL_PROPERTY
Angle
SciTegic.value.DoubleValue
4.784

@<SCITEGIC>MOL_PROPERTY
Pdih
SciTegic.value.DoubleValue
13.799

@<SCITEGIC>MOL_PROPERTY
Idih
SciTegic.value.DoubleValue
0.000

@<SCITEGIC>MOL_PROPERTY
Tether
SciTegic.value.DoubleValue
0.000

@<TRIPOS>MOLECULE
guest-s17_confgen4.mol2 : confsearch ligand conformer 341
          25          25           1
SMALL
USER_CHARGES
 
@<TRIPOS>ATOM
       1    C1      20.258219   20.763374   21.689872 C.3        1 MOL1        -0.1684
       2    H1      20.704945   21.032075   22.653800 H          1 MOL1         0.0833
       3    H2      20.230161   21.705737   21.126102 H          1 MOL1         0.0833
       4    C2      18.792868   20.299759   21.883591 C.3        1 MOL1        -0.1684
       5    H3      18.240951   21.134749   22.336449 H          1 MOL1         0.0833
       6    H4      18.330770   20.137082   20.900479 H          1 MOL1         0.0833
       7    C3      18.558921   19.044975   22.763106 C.3        1 MOL1        -0.1684
       8    H5      18.699969   18.130947   22.175125 H          1 MOL1         0.0833
       9    H6      17.494743   19.034494   23.035905 H          1 MOL1         0.0833
      10    C4      19.394695   18.986226   24.069555 C.3        1 MOL1        -0.1760
      11    H7      19.690659   19.991868   24.391839 H          1 MOL1         0.0833
      12    H8      18.734442   18.609916   24.862459 H          1 MOL1         0.0833
      13    C5      20.621648   18.041634   24.016596 C.3        1 MOL1         0.1219
      14    H9      20.277560   17.051572   23.684962 H          1 MOL1         0.0790
      15    C6      21.792333   18.477657   23.100158 C.3        1 MOL1        -0.1760
      16    H10     22.167165   19.466567   23.390567 H          1 MOL1         0.0833
      17    H11     22.623249   17.785040   23.290154 H          1 MOL1         0.0833
      18    C7      21.486195   18.424081   21.579569 C.3        1 MOL1        -0.1684
      19    H12     20.679525   17.711060   21.374758 H          1 MOL1         0.0833
      20    H13     22.362104   18.002117   21.067968 H          1 MOL1         0.0833
      21    C8      21.184904   19.792391   20.916458 C.3        1 MOL1        -0.1684
      22    H14     20.772635   19.619148   19.913200 H          1 MOL1         0.0833
      23    H15     22.142544   20.307199   20.758982 H          1 MOL1         0.0833
      24    O1      21.130503   17.921999   25.337941 O.3        1 MOL1        -0.5508
      25    H16     21.426934   18.817141   25.601826 H          1 MOL1         0.3780
@<TRIPOS>BOND
    1     1     2    1
    2     1     3    1
    3     1     4    1
    4     4     5    1
    5     4     6    1
    6     4     7    1
    7     7     8    1
    8     7     9    1
    9     7    10    1
   10    10    11    1
   11    10    12    1
   12    10    13    1
   13    13    14    1
   14    13    15    1
   15    15    16    1
   16    15    17    1
   17    15    18    1
   18    18    19    1
   19    18    20    1
   20     1    21    1
   21    18    21    1
   22    21    22    1
   23    21    23    1
   24    13    24    1
   25    24    25    1
@<TRIPOS>SUBSTRUCTURE
       1 MOL1            1 RESIDUE      1      MOL     
@<SCITEGIC>MOL_PROPERTY
VConf Rank
SciTegic.value.IntegerValue
341

@<SCITEGIC>MOL_PROPERTY
Conf_Id
SciTegic.value.IntegerValue
15

@<SCITEGIC>MOL_PROPERTY
Delta U+W
SciTegic.value.DoubleValue
-1.271

@<SCITEGIC>MOL_PROPERTY
U+W
SciTegic.value.DoubleValue
9.643

@<SCITEGIC>MOL_PROPERTY
Grad RMS
SciTegic.value.DoubleValue
0.000000

@<SCITEGIC>MOL_PROPERTY
U
SciTegic.value.DoubleValue
11.413

@<SCITEGIC>MOL_PROPERTY
W
SciTegic.value.DoubleValue
-1.770

@<SCITEGIC>MOL_PROPERTY
W(PB)
SciTegic.value.DoubleValue
-3.908

@<SCITEGIC>MOL_PROPERTY
W(SA)
SciTegic.value.DoubleValue
2.138

@<SCITEGIC>MOL_PROPERTY
Valence
SciTegic.value.DoubleValue
17.496

@<SCITEGIC>MOL_PROPERTY
Coulomb
SciTegic.value.DoubleValue
-8.736

@<SCITEGIC>MOL_PROPERTY
VdW
SciTegic.value.DoubleValue
2.653

@<SCITEGIC>MOL_PROPERTY
VdW6
SciTegic.value.DoubleValue
-12.485

@<SCITEGIC>MOL_PROPERTY
VdW12
SciTegic.value.DoubleValue
15.138

@<SCITEGIC>MOL_PROPERTY
Bond
SciTegic.value.DoubleValue
0.414

@<SCITEGIC>MOL_PROPERTY
Angle
SciTegic.value.DoubleValue
5.295

@<SCITEGIC>MOL_PROPERTY
Pdih
SciTegic.value.DoubleValue
11.787

@<SCITEGIC>MOL_PROPERTY
Idih
SciTegic.value.DoubleValue
0.000

@<SCITEGIC>MOL_PROPERTY
Tether
SciTegic.value.DoubleValue
0.000

@<TRIPOS>MOLECULE
guest-s17_confgen4.mol2 : confsearch ligand conformer 342
          25          25           1
SMALL
USER_CHARGES
 
@<TRIPOS>ATOM
       1    C1      19.094941   19.932665   21.366777 C.3        1 MOL1        -0.1684
       2    H1      18.381177   20.501791   20.755534 H          1 MOL1         0.0833
       3    H2      18.845060   18.880365   21.181334 H          1 MOL1         0.0833
       4    C2      20.513192   20.260832   20.830404 C.3        1 MOL1        -0.1684
       5    H3      20.598026   19.847618   19.816066 H          1 MOL1         0.0833
       6    H4      20.607518   21.349519   20.717985 H          1 MOL1         0.0833
       7    C3      21.708478   19.754763   21.673327 C.3        1 MOL1        -0.1684
       8    H5      21.859979   20.420038   22.531364 H          1 MOL1         0.0833
       9    H6      22.620504   19.862492   21.070509 H          1 MOL1         0.0833
      10    C4      21.583272   18.277225   22.127926 C.3        1 MOL1        -0.1760
      11    H7      20.734689   17.787684   21.637368 H          1 MOL1         0.0833
      12    H8      22.467104   17.729708   21.775417 H          1 MOL1         0.0833
      13    C5      21.494888   18.082853   23.659159 C.3        1 MOL1         0.1219
      14    H9      22.496459   18.263059   24.075345 H          1 MOL1         0.0790
      15    C6      20.511455   19.009499   24.419859 C.3        1 MOL1        -0.1760
      16    H10     20.444906   18.630595   25.448614 H          1 MOL1         0.0833
      17    H11     20.945201   20.011145   24.525129 H          1 MOL1         0.0833
      18    C7      19.069790   19.119749   23.855511 C.3        1 MOL1        -0.1684
      19    H12     18.407773   19.303881   24.712816 H          1 MOL1         0.0833
      20    H13     18.734917   18.163732   23.432777 H          1 MOL1         0.0833
      21    C8      18.837839   20.283852   22.853094 C.3        1 MOL1        -0.1684
      22    H14     19.402443   21.179150   23.146095 H          1 MOL1         0.0833
      23    H15     17.779690   20.568091   22.934988 H          1 MOL1         0.0833
      24    O1      21.131303   16.733435   23.914671 O.3        1 MOL1        -0.5508
      25    H16     20.204036   16.644807   23.615566 H          1 MOL1         0.3780
@<TRIPOS>BOND
    1     1     2    1
    2     1     3    1
    3     1     4    1
    4     4     5    1
    5     4     6    1
    6     4     7    1
    7     7     8    1
    8     7     9    1
    9     7    10    1
   10    10    11    1
   11    10    12    1
   12    10    13    1
   13    13    14    1
   14    13    15    1
   15    15    16    1
   16    15    17    1
   17    15    18    1
   18    18    19    1
   19    18    20    1
   20     1    21    1
   21    18    21    1
   22    21    22    1
   23    21    23    1
   24    13    24    1
   25    24    25    1
@<TRIPOS>SUBSTRUCTURE
       1 MOL1            1 RESIDUE      1      MOL     
@<SCITEGIC>MOL_PROPERTY
VConf Rank
SciTegic.value.IntegerValue
342

@<SCITEGIC>MOL_PROPERTY
Conf_Id
SciTegic.value.IntegerValue
115

@<SCITEGIC>MOL_PROPERTY
Delta U+W
SciTegic.value.DoubleValue
0.038

@<SCITEGIC>MOL_PROPERTY
U+W
SciTegic.value.DoubleValue
10.952

@<SCITEGIC>MOL_PROPERTY
Grad RMS
SciTegic.value.DoubleValue
0.000000

@<SCITEGIC>MOL_PROPERTY
U
SciTegic.value.DoubleValue
12.526

@<SCITEGIC>MOL_PROPERTY
W
SciTegic.value.DoubleValue
-1.575

@<SCITEGIC>MOL_PROPERTY
W(PB)
SciTegic.value.DoubleValue
-3.698

@<SCITEGIC>MOL_PROPERTY
W(SA)
SciTegic.value.DoubleValue
2.123

@<SCITEGIC>MOL_PROPERTY
Valence
SciTegic.value.DoubleValue
19.016

@<SCITEGIC>MOL_PROPERTY
Coulomb
SciTegic.value.DoubleValue
-9.226

@<SCITEGIC>MOL_PROPERTY
VdW
SciTegic.value.DoubleValue
2.737

@<SCITEGIC>MOL_PROPERTY
VdW6
SciTegic.value.DoubleValue
-12.612

@<SCITEGIC>MOL_PROPERTY
VdW12
SciTegic.value.DoubleValue
15.349

@<SCITEGIC>MOL_PROPERTY
Bond
SciTegic.value.DoubleValue
0.421

@<SCITEGIC>MOL_PROPERTY
Angle
SciTegic.value.DoubleValue
4.883

@<SCITEGIC>MOL_PROPERTY
Pdih
SciTegic.value.DoubleValue
13.711

@<SCITEGIC>MOL_PROPERTY
Idih
SciTegic.value.DoubleValue
0.000

@<SCITEGIC>MOL_PROPERTY
Tether
SciTegic.value.DoubleValue
0.000

@<TRIPOS>MOLECULE
guest-s17_confgen4.mol2 : confsearch ligand conformer 343
          25          25           1
SMALL
USER_CHARGES
 
@<TRIPOS>ATOM
       1    C1      19.633277   19.558996   20.658728 C.3        1 MOL1        -0.1684
       2    H1      19.699603   19.460032   19.566577 H          1 MOL1         0.0833
       3    H2      18.611610   19.907986   20.860910 H          1 MOL1         0.0833
       4    C2      20.656864   20.636385   21.086557 C.3        1 MOL1        -0.1684
       5    H3      21.667742   20.341492   20.773895 H          1 MOL1         0.0833
       6    H4      20.427898   21.549890   20.520799 H          1 MOL1         0.0833
       7    C3      20.645871   20.993063   22.591068 C.3        1 MOL1        -0.1684
       8    H5      19.613564   21.058652   22.959873 H          1 MOL1         0.0833
       9    H6      21.056019   22.007409   22.691287 H          1 MOL1         0.0833
      10    C4      21.506684   20.052740   23.476920 C.3        1 MOL1        -0.1760
      11    H7      22.172921   19.429813   22.867084 H          1 MOL1         0.0833
      12    H8      22.170491   20.687589   24.079321 H          1 MOL1         0.0833
      13    C5      20.692758   19.164793   24.444923 C.3        1 MOL1         0.1219
      14    H9      19.823479   19.733991   24.804141 H          1 MOL1         0.0790
      15    C6      20.203480   17.830907   23.838467 C.3        1 MOL1        -0.1760
      16    H10     21.063506   17.221875   23.530205 H          1 MOL1         0.0833
      17    H11     19.708513   17.265268   24.638762 H          1 MOL1         0.0833
      18    C7      19.197449   17.962303   22.669149 C.3        1 MOL1        -0.1684
      19    H12     18.464418   18.751884   22.881888 H          1 MOL1         0.0833
      20    H13     18.617344   17.029971   22.630887 H          1 MOL1         0.0833
      21    C8      19.852138   18.157987   21.276635 C.3        1 MOL1        -0.1684
      22    H14     19.397915   17.426042   20.594622 H          1 MOL1         0.0833
      23    H15     20.921873   17.910808   21.296604 H          1 MOL1         0.0833
      24    O1      21.522741   18.849757   25.556466 O.3        1 MOL1        -0.5508
      25    H16     20.973682   18.333123   26.182532 H          1 MOL1         0.3780
@<TRIPOS>BOND
    1     1     2    1
    2     1     3    1
    3     1     4    1
    4     4     5    1
    5     4     6    1
    6     4     7    1
    7     7     8    1
    8     7     9    1
    9     7    10    1
   10    10    11    1
   11    10    12    1
   12    10    13    1
   13    13    14    1
   14    13    15    1
   15    15    16    1
   16    15    17    1
   17    15    18    1
   18    18    19    1
   19    18    20    1
   20     1    21    1
   21    18    21    1
   22    21    22    1
   23    21    23    1
   24    13    24    1
   25    24    25    1
@<TRIPOS>SUBSTRUCTURE
       1 MOL1            1 RESIDUE      1      MOL     
@<SCITEGIC>MOL_PROPERTY
VConf Rank
SciTegic.value.IntegerValue
343

@<SCITEGIC>MOL_PROPERTY
Conf_Id
SciTegic.value.IntegerValue
30

@<SCITEGIC>MOL_PROPERTY
Delta U+W
SciTegic.value.DoubleValue
0.000

@<SCITEGIC>MOL_PROPERTY
U+W
SciTegic.value.DoubleValue
10.913

@<SCITEGIC>MOL_PROPERTY
Grad RMS
SciTegic.value.DoubleValue
0.000000

@<SCITEGIC>MOL_PROPERTY
U
SciTegic.value.DoubleValue
13.140

@<SCITEGIC>MOL_PROPERTY
W
SciTegic.value.DoubleValue
-2.227

@<SCITEGIC>MOL_PROPERTY
W(PB)
SciTegic.value.DoubleValue
-4.367

@<SCITEGIC>MOL_PROPERTY
W(SA)
SciTegic.value.DoubleValue
2.140

@<SCITEGIC>MOL_PROPERTY
Valence
SciTegic.value.DoubleValue
19.155

@<SCITEGIC>MOL_PROPERTY
Coulomb
SciTegic.value.DoubleValue
-8.157

@<SCITEGIC>MOL_PROPERTY
VdW
SciTegic.value.DoubleValue
2.142

@<SCITEGIC>MOL_PROPERTY
VdW6
SciTegic.value.DoubleValue
-11.576

@<SCITEGIC>MOL_PROPERTY
VdW12
SciTegic.value.DoubleValue
13.718

@<SCITEGIC>MOL_PROPERTY
Bond
SciTegic.value.DoubleValue
0.294

@<SCITEGIC>MOL_PROPERTY
Angle
SciTegic.value.DoubleValue
3.547

@<SCITEGIC>MOL_PROPERTY
Pdih
SciTegic.value.DoubleValue
15.314

@<SCITEGIC>MOL_PROPERTY
Idih
SciTegic.value.DoubleValue
0.000

@<SCITEGIC>MOL_PROPERTY
Tether
SciTegic.value.DoubleValue
0.000

@<TRIPOS>MOLECULE
guest-s17_confgen4.mol2 : confsearch ligand conformer 344
          25          25           1
SMALL
USER_CHARGES
 
@<TRIPOS>ATOM
       1    C1      19.090804   19.993323   24.251903 C.3        1 MOL1        -0.1684
       2    H1      19.051884   19.774787   25.327814 H          1 MOL1         0.0833
       3    H2      18.274866   20.704422   24.063871 H          1 MOL1         0.0833
       4    C2      18.786057   18.689131   23.474539 C.3        1 MOL1        -0.1684
       5    H3      17.937700   18.193048   23.965521 H          1 MOL1         0.0833
       6    H4      18.419588   18.935547   22.471277 H          1 MOL1         0.0833
       7    C3      19.970543   17.692031   23.406818 C.3        1 MOL1        -0.1684
       8    H5      19.640053   16.723921   23.807101 H          1 MOL1         0.0833
       9    H6      20.786348   18.004541   24.068963 H          1 MOL1         0.0833
      10    C4      20.519072   17.458229   21.976430 C.3        1 MOL1        -0.1760
      11    H7      21.459589   16.896731   22.053283 H          1 MOL1         0.0833
      12    H8      19.820406   16.803640   21.439266 H          1 MOL1         0.0833
      13    C5      20.751437   18.715689   21.101801 C.3        1 MOL1         0.1219
      14    H9      19.780420   19.136145   20.807982 H          1 MOL1         0.0790
      15    C6      21.593375   19.832318   21.766315 C.3        1 MOL1        -0.1760
      16    H10     22.325413   19.397221   22.458674 H          1 MOL1         0.0833
      17    H11     22.189150   20.321714   20.984305 H          1 MOL1         0.0833
      18    C7      20.766826   20.949627   22.463586 C.3        1 MOL1        -0.1684
      19    H12     19.851616   21.177518   21.900667 H          1 MOL1         0.0833
      20    H13     21.370722   21.866550   22.421189 H          1 MOL1         0.0833
      21    C8      20.444209   20.693025   23.956528 C.3        1 MOL1        -0.1684
      22    H14     20.419500   21.665043   24.468032 H          1 MOL1         0.0833
      23    H15     21.271406   20.149647   24.430676 H          1 MOL1         0.0833
      24    O1      21.422631   18.288616   19.922257 O.3        1 MOL1        -0.5508
      25    H16     21.495020   19.072835   19.338977 H          1 MOL1         0.3780
@<TRIPOS>BOND
    1     1     2    1
    2     1     3    1
    3     1     4    1
    4     4     5    1
    5     4     6    1
    6     4     7    1
    7     7     8    1
    8     7     9    1
    9     7    10    1
   10    10    11    1
   11    10    12    1
   12    10    13    1
   13    13    14    1
   14    13    15    1
   15    15    16    1
   16    15    17    1
   17    15    18    1
   18    18    19    1
   19    18    20    1
   20     1    21    1
   21    18    21    1
   22    21    22    1
   23    21    23    1
   24    13    24    1
   25    24    25    1
@<TRIPOS>SUBSTRUCTURE
       1 MOL1            1 RESIDUE      1      MOL     
@<SCITEGIC>MOL_PROPERTY
VConf Rank
SciTegic.value.IntegerValue
344

@<SCITEGIC>MOL_PROPERTY
Conf_Id
SciTegic.value.IntegerValue
162

@<SCITEGIC>MOL_PROPERTY
Delta U+W
SciTegic.value.DoubleValue
0.219

@<SCITEGIC>MOL_PROPERTY
U+W
SciTegic.value.DoubleValue
11.132

@<SCITEGIC>MOL_PROPERTY
Grad RMS
SciTegic.value.DoubleValue
0.000000

@<SCITEGIC>MOL_PROPERTY
U
SciTegic.value.DoubleValue
13.296

@<SCITEGIC>MOL_PROPERTY
W
SciTegic.value.DoubleValue
-2.164

@<SCITEGIC>MOL_PROPERTY
W(PB)
SciTegic.value.DoubleValue
-4.311

@<SCITEGIC>MOL_PROPERTY
W(SA)
SciTegic.value.DoubleValue
2.148

@<SCITEGIC>MOL_PROPERTY
Valence
SciTegic.value.DoubleValue
18.607

@<SCITEGIC>MOL_PROPERTY
Coulomb
SciTegic.value.DoubleValue
-8.339

@<SCITEGIC>MOL_PROPERTY
VdW
SciTegic.value.DoubleValue
3.028

@<SCITEGIC>MOL_PROPERTY
VdW6
SciTegic.value.DoubleValue
-12.271

@<SCITEGIC>MOL_PROPERTY
VdW12
SciTegic.value.DoubleValue
15.299

@<SCITEGIC>MOL_PROPERTY
Bond
SciTegic.value.DoubleValue
0.423

@<SCITEGIC>MOL_PROPERTY
Angle
SciTegic.value.DoubleValue
4.488

@<SCITEGIC>MOL_PROPERTY
Pdih
SciTegic.value.DoubleValue
13.696

@<SCITEGIC>MOL_PROPERTY
Idih
SciTegic.value.DoubleValue
0.000

@<SCITEGIC>MOL_PROPERTY
Tether
SciTegic.value.DoubleValue
0.000

@<TRIPOS>MOLECULE
guest-s17_confgen4.mol2 : confsearch ligand conformer 345
          25          25           1
SMALL
USER_CHARGES
 
@<TRIPOS>ATOM
       1    C1      21.951219   18.401303   23.544936 C.3        1 MOL1        -0.1684
       2    H1      22.537021   19.253352   23.177454 H          1 MOL1         0.0833
       3    H2      22.664944   17.800757   24.125373 H          1 MOL1         0.0833
       4    C2      20.846456   18.896810   24.511205 C.3        1 MOL1        -0.1684
       5    H3      20.048968   18.147944   24.608388 H          1 MOL1         0.0833
       6    H4      21.303017   18.966060   25.508148 H          1 MOL1         0.0833
       7    C3      20.262608   20.299819   24.185249 C.3        1 MOL1        -0.1684
       8    H5      21.042223   20.977048   23.811450 H          1 MOL1         0.0833
       9    H6      19.932529   20.735250   25.138444 H          1 MOL1         0.0833
      10    C4      19.031804   20.301211   23.241687 C.3        1 MOL1        -0.1760
      11    H7      18.425085   19.404224   23.416617 H          1 MOL1         0.0833
      12    H8      18.386550   21.140070   23.533538 H          1 MOL1         0.0833
      13    C5      19.324031   20.474803   21.729802 C.3        1 MOL1         0.1219
      14    H9      19.655254   21.510732   21.567836 H          1 MOL1         0.0790
      15    C6      20.407283   19.546705   21.130423 C.3        1 MOL1        -0.1760
      16    H10     20.364806   19.621209   20.036054 H          1 MOL1         0.0833
      17    H11     21.395892   19.938897   21.391986 H          1 MOL1         0.0833
      18    C7      20.279646   18.053876   21.533713 C.3        1 MOL1        -0.1684
      19    H12     20.194792   17.447691   20.621737 H          1 MOL1         0.0833
      20    H13     19.344216   17.873579   22.076460 H          1 MOL1         0.0833
      21    C8      21.471218   17.517390   22.363245 C.3        1 MOL1        -0.1684
      22    H14     22.324006   17.354705   21.690175 H          1 MOL1         0.0833
      23    H15     21.201788   16.524773   22.749033 H          1 MOL1         0.0833
      24    O1      18.106333   20.264205   21.024848 O.3        1 MOL1        -0.5508
      25    H16     18.309018   20.374907   20.073122 H          1 MOL1         0.3780
@<TRIPOS>BOND
    1     1     2    1
    2     1     3    1
    3     1     4    1
    4     4     5    1
    5     4     6    1
    6     4     7    1
    7     7     8    1
    8     7     9    1
    9     7    10    1
   10    10    11    1
   11    10    12    1
   12    10    13    1
   13    13    14    1
   14    13    15    1
   15    15    16    1
   16    15    17    1
   17    15    18    1
   18    18    19    1
   19    18    20    1
   20     1    21    1
   21    18    21    1
   22    21    22    1
   23    21    23    1
   24    13    24    1
   25    24    25    1
@<TRIPOS>SUBSTRUCTURE
       1 MOL1            1 RESIDUE      1      MOL     
@<SCITEGIC>MOL_PROPERTY
VConf Rank
SciTegic.value.IntegerValue
345

@<SCITEGIC>MOL_PROPERTY
Conf_Id
SciTegic.value.IntegerValue
155

@<SCITEGIC>MOL_PROPERTY
Delta U+W
SciTegic.value.DoubleValue
0.339

@<SCITEGIC>MOL_PROPERTY
U+W
SciTegic.value.DoubleValue
11.252

@<SCITEGIC>MOL_PROPERTY
Grad RMS
SciTegic.value.DoubleValue
0.000000

@<SCITEGIC>MOL_PROPERTY
U
SciTegic.value.DoubleValue
13.420

@<SCITEGIC>MOL_PROPERTY
W
SciTegic.value.DoubleValue
-2.167

@<SCITEGIC>MOL_PROPERTY
W(PB)
SciTegic.value.DoubleValue
-4.325

@<SCITEGIC>MOL_PROPERTY
W(SA)
SciTegic.value.DoubleValue
2.157

@<SCITEGIC>MOL_PROPERTY
Valence
SciTegic.value.DoubleValue
18.609

@<SCITEGIC>MOL_PROPERTY
Coulomb
SciTegic.value.DoubleValue
-8.052

@<SCITEGIC>MOL_PROPERTY
VdW
SciTegic.value.DoubleValue
2.863

@<SCITEGIC>MOL_PROPERTY
VdW6
SciTegic.value.DoubleValue
-12.524

@<SCITEGIC>MOL_PROPERTY
VdW12
SciTegic.value.DoubleValue
15.387

@<SCITEGIC>MOL_PROPERTY
Bond
SciTegic.value.DoubleValue
0.430

@<SCITEGIC>MOL_PROPERTY
Angle
SciTegic.value.DoubleValue
4.724

@<SCITEGIC>MOL_PROPERTY
Pdih
SciTegic.value.DoubleValue
13.455

@<SCITEGIC>MOL_PROPERTY
Idih
SciTegic.value.DoubleValue
0.000

@<SCITEGIC>MOL_PROPERTY
Tether
SciTegic.value.DoubleValue
0.000

@<TRIPOS>MOLECULE
guest-s17_confgen4.mol2 : confsearch ligand conformer 346
          25          25           1
SMALL
USER_CHARGES
 
@<TRIPOS>ATOM
       1    C1      22.022672   18.738998   23.676848 C.3        1 MOL1        -0.1684
       2    H1      22.010567   17.737036   24.126584 H          1 MOL1         0.0833
       3    H2      23.006239   19.159647   23.926715 H          1 MOL1         0.0833
       4    C2      21.968318   18.606483   22.132081 C.3        1 MOL1        -0.1684
       5    H3      22.098088   19.594727   21.679671 H          1 MOL1         0.0833
       6    H4      22.865895   18.058705   21.814262 H          1 MOL1         0.0833
       7    C3      20.742288   17.871969   21.515189 C.3        1 MOL1        -0.1684
       8    H5      20.971332   16.797700   21.509001 H          1 MOL1         0.0833
       9    H6      20.650037   18.158691   20.458780 H          1 MOL1         0.0833
      10    C4      19.362975   18.037880   22.209361 C.3        1 MOL1        -0.1760
      11    H7      18.665401   17.343599   21.722881 H          1 MOL1         0.0833
      12    H8      19.425851   17.651656   23.230454 H          1 MOL1         0.0833
      13    C5      18.708872   19.450834   22.205576 C.3        1 MOL1         0.1219
      14    H9      18.004808   19.496204   23.048787 H          1 MOL1         0.0790
      15    C6      19.648048   20.679237   22.303113 C.3        1 MOL1        -0.1760
      16    H10     20.316648   20.687350   21.437418 H          1 MOL1         0.0833
      17    H11     19.032081   21.577311   22.162850 H          1 MOL1         0.0833
      18    C7      20.449300   20.880751   23.624359 C.3        1 MOL1        -0.1684
      19    H12     19.803766   21.435372   24.318995 H          1 MOL1         0.0833
      20    H13     21.301961   21.543690   23.424850 H          1 MOL1         0.0833
      21    C8      20.948420   19.620498   24.378900 C.3        1 MOL1        -0.1684
      22    H14     20.088810   19.016411   24.685698 H          1 MOL1         0.0833
      23    H15     21.379559   19.954700   25.332475 H          1 MOL1         0.0833
      24    O1      17.973150   19.587463   20.994696 O.3        1 MOL1        -0.5508
      25    H16     17.343642   18.837961   20.959944 H          1 MOL1         0.3780
@<TRIPOS>BOND
    1     1     2    1
    2     1     3    1
    3     1     4    1
    4     4     5    1
    5     4     6    1
    6     4     7    1
    7     7     8    1
    8     7     9    1
    9     7    10    1
   10    10    11    1
   11    10    12    1
   12    10    13    1
   13    13    14    1
   14    13    15    1
   15    15    16    1
   16    15    17    1
   17    15    18    1
   18    18    19    1
   19    18    20    1
   20     1    21    1
   21    18    21    1
   22    21    22    1
   23    21    23    1
   24    13    24    1
   25    24    25    1
@<TRIPOS>SUBSTRUCTURE
       1 MOL1            1 RESIDUE      1      MOL     
@<SCITEGIC>MOL_PROPERTY
VConf Rank
SciTegic.value.IntegerValue
346

@<SCITEGIC>MOL_PROPERTY
Conf_Id
SciTegic.value.IntegerValue
146

@<SCITEGIC>MOL_PROPERTY
Delta U+W
SciTegic.value.DoubleValue
2.553

@<SCITEGIC>MOL_PROPERTY
U+W
SciTegic.value.DoubleValue
13.466

@<SCITEGIC>MOL_PROPERTY
Grad RMS
SciTegic.value.DoubleValue
0.000000

@<SCITEGIC>MOL_PROPERTY
U
SciTegic.value.DoubleValue
15.643

@<SCITEGIC>MOL_PROPERTY
W
SciTegic.value.DoubleValue
-2.176

@<SCITEGIC>MOL_PROPERTY
W(PB)
SciTegic.value.DoubleValue
-4.307

@<SCITEGIC>MOL_PROPERTY
W(SA)
SciTegic.value.DoubleValue
2.131

@<SCITEGIC>MOL_PROPERTY
Valence
SciTegic.value.DoubleValue
18.916

@<SCITEGIC>MOL_PROPERTY
Coulomb
SciTegic.value.DoubleValue
-7.506

@<SCITEGIC>MOL_PROPERTY
VdW
SciTegic.value.DoubleValue
4.232

@<SCITEGIC>MOL_PROPERTY
VdW6
SciTegic.value.DoubleValue
-13.632

@<SCITEGIC>MOL_PROPERTY
VdW12
SciTegic.value.DoubleValue
17.864

@<SCITEGIC>MOL_PROPERTY
Bond
SciTegic.value.DoubleValue
0.735

@<SCITEGIC>MOL_PROPERTY
Angle
SciTegic.value.DoubleValue
9.140

@<SCITEGIC>MOL_PROPERTY
Pdih
SciTegic.value.DoubleValue
9.042

@<SCITEGIC>MOL_PROPERTY
Idih
SciTegic.value.DoubleValue
0.000

@<SCITEGIC>MOL_PROPERTY
Tether
SciTegic.value.DoubleValue
0.000

@<TRIPOS>MOLECULE
guest-s17_confgen4.mol2 : confsearch ligand conformer 347
          25          25           1
SMALL
USER_CHARGES
 
@<TRIPOS>ATOM
       1    C1      22.139556   20.164015   23.038487 C.3        1 MOL1        -0.1684
       2    H1      23.065179   19.874160   22.523017 H          1 MOL1         0.0833
       3    H2      22.423877   20.973111   23.725100 H          1 MOL1         0.0833
       4    C2      21.642422   18.977923   23.902307 C.3        1 MOL1        -0.1684
       5    H3      22.429385   18.757130   24.636297 H          1 MOL1         0.0833
       6    H4      20.779738   19.281464   24.506281 H          1 MOL1         0.0833
       7    C3      21.339132   17.661436   23.143850 C.3        1 MOL1        -0.1684
       8    H5      21.114608   16.891480   23.894674 H          1 MOL1         0.0833
       9    H6      22.248199   17.320416   22.630287 H          1 MOL1         0.0833
      10    C4      20.167310   17.689171   22.128091 C.3        1 MOL1        -0.1760
      11    H7      20.500413   18.110994   21.174583 H          1 MOL1         0.0833
      12    H8      19.918455   16.645238   21.893974 H          1 MOL1         0.0833
      13    C5      18.888735   18.416832   22.617816 C.3        1 MOL1         0.1219
      14    H9      18.897826   18.479588   23.714275 H          1 MOL1         0.0790
      15    C6      18.700319   19.835912   22.024118 C.3        1 MOL1        -0.1760
      16    H10     18.724759   19.774300   20.928068 H          1 MOL1         0.0833
      17    H11     17.688988   20.178554   22.279357 H          1 MOL1         0.0833
      18    C7      19.692222   20.932619   22.498423 C.3        1 MOL1        -0.1684
      19    H12     19.659051   21.042459   23.590043 H          1 MOL1         0.0833
      20    H13     19.324856   21.889553   22.103072 H          1 MOL1         0.0833
      21    C8      21.149432   20.751967   22.000038 C.3        1 MOL1        -0.1684
      22    H14     21.535658   21.738522   21.709216 H          1 MOL1         0.0833
      23    H15     21.169607   20.167759   21.073152 H          1 MOL1         0.0833
      24    O1      17.761467   17.641355   22.226342 O.3        1 MOL1        -0.5508
      25    H16     16.969901   18.085939   22.595107 H          1 MOL1         0.3780
@<TRIPOS>BOND
    1     1     2    1
    2     1     3    1
    3     1     4    1
    4     4     5    1
    5     4     6    1
    6     4     7    1
    7     7     8    1
    8     7     9    1
    9     7    10    1
   10    10    11    1
   11    10    12    1
   12    10    13    1
   13    13    14    1
   14    13    15    1
   15    15    16    1
   16    15    17    1
   17    15    18    1
   18    18    19    1
   19    18    20    1
   20     1    21    1
   21    18    21    1
   22    21    22    1
   23    21    23    1
   24    13    24    1
   25    24    25    1
@<TRIPOS>SUBSTRUCTURE
       1 MOL1            1 RESIDUE      1      MOL     
@<SCITEGIC>MOL_PROPERTY
VConf Rank
SciTegic.value.IntegerValue
347

@<SCITEGIC>MOL_PROPERTY
Conf_Id
SciTegic.value.IntegerValue
62

@<SCITEGIC>MOL_PROPERTY
Delta U+W
SciTegic.value.DoubleValue
-1.779

@<SCITEGIC>MOL_PROPERTY
U+W
SciTegic.value.DoubleValue
9.134

@<SCITEGIC>MOL_PROPERTY
Grad RMS
SciTegic.value.DoubleValue
0.000000

@<SCITEGIC>MOL_PROPERTY
U
SciTegic.value.DoubleValue
11.364

@<SCITEGIC>MOL_PROPERTY
W
SciTegic.value.DoubleValue
-2.230

@<SCITEGIC>MOL_PROPERTY
W(PB)
SciTegic.value.DoubleValue
-4.359

@<SCITEGIC>MOL_PROPERTY
W(SA)
SciTegic.value.DoubleValue
2.129

@<SCITEGIC>MOL_PROPERTY
Valence
SciTegic.value.DoubleValue
16.582

@<SCITEGIC>MOL_PROPERTY
Coulomb
SciTegic.value.DoubleValue
-8.150

@<SCITEGIC>MOL_PROPERTY
VdW
SciTegic.value.DoubleValue
2.933

@<SCITEGIC>MOL_PROPERTY
VdW6
SciTegic.value.DoubleValue
-12.531

@<SCITEGIC>MOL_PROPERTY
VdW12
SciTegic.value.DoubleValue
15.464

@<SCITEGIC>MOL_PROPERTY
Bond
SciTegic.value.DoubleValue
0.439

@<SCITEGIC>MOL_PROPERTY
Angle
SciTegic.value.DoubleValue
5.099

@<SCITEGIC>MOL_PROPERTY
Pdih
SciTegic.value.DoubleValue
11.044

@<SCITEGIC>MOL_PROPERTY
Idih
SciTegic.value.DoubleValue
0.000

@<SCITEGIC>MOL_PROPERTY
Tether
SciTegic.value.DoubleValue
0.000

@<TRIPOS>MOLECULE
guest-s17_confgen4.mol2 : confsearch ligand conformer 348
          25          25           1
SMALL
USER_CHARGES
 
@<TRIPOS>ATOM
       1    C1      21.673628   18.790553   23.938327 C.3        1 MOL1        -0.1684
       2    H1      21.792288   18.015845   23.172252 H          1 MOL1         0.0833
       3    H2      22.428177   18.545854   24.698207 H          1 MOL1         0.0833
       4    C2      20.284856   18.673364   24.614518 C.3        1 MOL1        -0.1684
       5    H3      20.224814   17.676256   25.071745 H          1 MOL1         0.0833
       6    H4      20.225842   19.386249   25.448070 H          1 MOL1         0.0833
       7    C3      19.040316   18.854763   23.708463 C.3        1 MOL1        -0.1684
       8    H5      18.813291   19.918557   23.575069 H          1 MOL1         0.0833
       9    H6      18.177581   18.457125   24.260365 H          1 MOL1         0.0833
      10    C4      19.110009   18.136140   22.334404 C.3        1 MOL1        -0.1760
      11    H7      19.806451   17.289285   22.366899 H          1 MOL1         0.0833
      12    H8      18.122977   17.691966   22.150503 H          1 MOL1         0.0833
      13    C5      19.432380   19.058234   21.131402 C.3        1 MOL1         0.1219
      14    H9      18.720000   19.895757   21.138523 H          1 MOL1         0.0790
      15    C6      20.864949   19.645460   21.078293 C.3        1 MOL1        -0.1760
      16    H10     21.610322   18.840988   21.072691 H          1 MOL1         0.0833
      17    H11     20.970614   20.143007   20.105106 H          1 MOL1         0.0833
      18    C7      21.183739   20.698016   22.173769 C.3        1 MOL1        -0.1684
      19    H12     20.261692   21.165760   22.537075 H          1 MOL1         0.0833
      20    H13     21.743098   21.520167   21.706722 H          1 MOL1         0.0833
      21    C8      22.036586   20.181318   23.360613 C.3        1 MOL1        -0.1684
      22    H14     22.013882   20.926642   24.167124 H          1 MOL1         0.0833
      23    H15     23.082468   20.136028   23.027505 H          1 MOL1         0.0833
      24    O1      19.235964   18.301861   19.943232 O.3        1 MOL1        -0.5508
      25    H16     18.306270   17.992539   19.954921 H          1 MOL1         0.3780
@<TRIPOS>BOND
    1     1     2    1
    2     1     3    1
    3     1     4    1
    4     4     5    1
    5     4     6    1
    6     4     7    1
    7     7     8    1
    8     7     9    1
    9     7    10    1
   10    10    11    1
   11    10    12    1
   12    10    13    1
   13    13    14    1
   14    13    15    1
   15    15    16    1
   16    15    17    1
   17    15    18    1
   18    18    19    1
   19    18    20    1
   20     1    21    1
   21    18    21    1
   22    21    22    1
   23    21    23    1
   24    13    24    1
   25    24    25    1
@<TRIPOS>SUBSTRUCTURE
       1 MOL1            1 RESIDUE      1      MOL     
@<SCITEGIC>MOL_PROPERTY
VConf Rank
SciTegic.value.IntegerValue
348

@<SCITEGIC>MOL_PROPERTY
Conf_Id
SciTegic.value.IntegerValue
121

@<SCITEGIC>MOL_PROPERTY
Delta U+W
SciTegic.value.DoubleValue
-1.283

@<SCITEGIC>MOL_PROPERTY
U+W
SciTegic.value.DoubleValue
9.630

@<SCITEGIC>MOL_PROPERTY
Grad RMS
SciTegic.value.DoubleValue
0.000000

@<SCITEGIC>MOL_PROPERTY
U
SciTegic.value.DoubleValue
11.876

@<SCITEGIC>MOL_PROPERTY
W
SciTegic.value.DoubleValue
-2.246

@<SCITEGIC>MOL_PROPERTY
W(PB)
SciTegic.value.DoubleValue
-4.376

@<SCITEGIC>MOL_PROPERTY
W(SA)
SciTegic.value.DoubleValue
2.130

@<SCITEGIC>MOL_PROPERTY
Valence
SciTegic.value.DoubleValue
17.153

@<SCITEGIC>MOL_PROPERTY
Coulomb
SciTegic.value.DoubleValue
-7.966

@<SCITEGIC>MOL_PROPERTY
VdW
SciTegic.value.DoubleValue
2.689

@<SCITEGIC>MOL_PROPERTY
VdW6
SciTegic.value.DoubleValue
-12.458

@<SCITEGIC>MOL_PROPERTY
VdW12
SciTegic.value.DoubleValue
15.147

@<SCITEGIC>MOL_PROPERTY
Bond
SciTegic.value.DoubleValue
0.421

@<SCITEGIC>MOL_PROPERTY
Angle
SciTegic.value.DoubleValue
5.258

@<SCITEGIC>MOL_PROPERTY
Pdih
SciTegic.value.DoubleValue
11.475

@<SCITEGIC>MOL_PROPERTY
Idih
SciTegic.value.DoubleValue
0.000

@<SCITEGIC>MOL_PROPERTY
Tether
SciTegic.value.DoubleValue
0.000

@<TRIPOS>MOLECULE
guest-s17_confgen4.mol2 : confsearch ligand conformer 349
          25          25           1
SMALL
USER_CHARGES
 
@<TRIPOS>ATOM
       1    C1      22.170584   19.192725   22.290681 C.3        1 MOL1        -0.1684
       2    H1      22.046066   20.124392   22.854256 H          1 MOL1         0.0833
       3    H2      23.247369   19.138633   22.080334 H          1 MOL1         0.0833
       4    C2      21.439574   19.284147   20.927968 C.3        1 MOL1        -0.1684
       5    H3      21.881545   20.123333   20.373610 H          1 MOL1         0.0833
       6    H4      21.662606   18.386589   20.335407 H          1 MOL1         0.0833
       7    C3      19.904334   19.495755   20.962387 C.3        1 MOL1        -0.1684
       8    H5      19.386782   18.539371   21.098091 H          1 MOL1         0.0833
       9    H6      19.601260   19.832342   19.961486 H          1 MOL1         0.0833
      10    C4      19.401484   20.538228   21.996779 C.3        1 MOL1        -0.1760
      11    H7      20.187300   21.262245   22.243924 H          1 MOL1         0.0833
      12    H8      18.610487   21.125698   21.511998 H          1 MOL1         0.0833
      13    C5      18.790569   19.937897   23.287631 C.3        1 MOL1         0.1219
      14    H9      18.012680   19.218155   22.994645 H          1 MOL1         0.0790
      15    C6      19.775073   19.224680   24.248599 C.3        1 MOL1        -0.1760
      16    H10     20.573504   19.909899   24.558817 H          1 MOL1         0.0833
      17    H11     19.222318   18.989726   25.167621 H          1 MOL1         0.0833
      18    C7      20.360874   17.890970   23.712536 C.3        1 MOL1        -0.1684
      19    H12     19.696577   17.454910   22.957847 H          1 MOL1         0.0833
      20    H13     20.359889   17.161064   24.533668 H          1 MOL1         0.0833
      21    C8      21.813089   17.973462   23.176826 C.3        1 MOL1        -0.1684
      22    H14     22.045052   17.048409   22.631882 H          1 MOL1         0.0833
      23    H15     22.489915   17.986055   24.042064 H          1 MOL1         0.0833
      24    O1      18.180313   21.002136   24.006942 O.3        1 MOL1        -0.5508
      25    H16     17.739322   20.601753   24.784997 H          1 MOL1         0.3780
@<TRIPOS>BOND
    1     1     2    1
    2     1     3    1
    3     1     4    1
    4     4     5    1
    5     4     6    1
    6     4     7    1
    7     7     8    1
    8     7     9    1
    9     7    10    1
   10    10    11    1
   11    10    12    1
   12    10    13    1
   13    13    14    1
   14    13    15    1
   15    15    16    1
   16    15    17    1
   17    15    18    1
   18    18    19    1
   19    18    20    1
   20     1    21    1
   21    18    21    1
   22    21    22    1
   23    21    23    1
   24    13    24    1
   25    24    25    1
@<TRIPOS>SUBSTRUCTURE
       1 MOL1            1 RESIDUE      1      MOL     
@<SCITEGIC>MOL_PROPERTY
VConf Rank
SciTegic.value.IntegerValue
349

@<SCITEGIC>MOL_PROPERTY
Conf_Id
SciTegic.value.IntegerValue
24

@<SCITEGIC>MOL_PROPERTY
Delta U+W
SciTegic.value.DoubleValue
-1.236

@<SCITEGIC>MOL_PROPERTY
U+W
SciTegic.value.DoubleValue
9.678

@<SCITEGIC>MOL_PROPERTY
Grad RMS
SciTegic.value.DoubleValue
0.000000

@<SCITEGIC>MOL_PROPERTY
U
SciTegic.value.DoubleValue
11.876

@<SCITEGIC>MOL_PROPERTY
W
SciTegic.value.DoubleValue
-2.199

@<SCITEGIC>MOL_PROPERTY
W(PB)
SciTegic.value.DoubleValue
-4.335

@<SCITEGIC>MOL_PROPERTY
W(SA)
SciTegic.value.DoubleValue
2.137

@<SCITEGIC>MOL_PROPERTY
Valence
SciTegic.value.DoubleValue
17.153

@<SCITEGIC>MOL_PROPERTY
Coulomb
SciTegic.value.DoubleValue
-7.966

@<SCITEGIC>MOL_PROPERTY
VdW
SciTegic.value.DoubleValue
2.689

@<SCITEGIC>MOL_PROPERTY
VdW6
SciTegic.value.DoubleValue
-12.458

@<SCITEGIC>MOL_PROPERTY
VdW12
SciTegic.value.DoubleValue
15.147

@<SCITEGIC>MOL_PROPERTY
Bond
SciTegic.value.DoubleValue
0.421

@<SCITEGIC>MOL_PROPERTY
Angle
SciTegic.value.DoubleValue
5.258

@<SCITEGIC>MOL_PROPERTY
Pdih
SciTegic.value.DoubleValue
11.475

@<SCITEGIC>MOL_PROPERTY
Idih
SciTegic.value.DoubleValue
0.000

@<SCITEGIC>MOL_PROPERTY
Tether
SciTegic.value.DoubleValue
0.000

@<TRIPOS>MOLECULE
guest-s17_confgen4.mol2 : confsearch ligand conformer 350
          25          25           1
SMALL
USER_CHARGES
 
@<TRIPOS>ATOM
       1    C1      22.331405   19.461016   22.142588 C.3        1 MOL1        -0.1684
       2    H1      22.849227   18.850862   21.390026 H          1 MOL1         0.0833
       3    H2      23.098125   20.124018   22.566173 H          1 MOL1         0.0833
       4    C2      21.275094   20.346845   21.430047 C.3        1 MOL1        -0.1684
       5    H3      20.975378   21.183940   22.073270 H          1 MOL1         0.0833
       6    H4      21.778096   20.818396   20.574655 H          1 MOL1         0.0833
       7    C3      20.019609   19.612474   20.897960 C.3        1 MOL1        -0.1684
       8    H5      20.276634   18.603205   20.549006 H          1 MOL1         0.0833
       9    H6      19.689107   20.154889   20.001435 H          1 MOL1         0.0833
      10    C4      18.810696   19.578048   21.875340 C.3        1 MOL1        -0.1760
      11    H7      18.741594   20.514128   22.444073 H          1 MOL1         0.0833
      12    H8      17.905864   19.544030   21.253189 H          1 MOL1         0.0833
      13    C5      18.774916   18.358866   22.828962 C.3        1 MOL1         0.1219
      14    H9      19.278806   17.516371   22.337053 H          1 MOL1         0.0790
      15    C6      19.406970   18.589067   24.225144 C.3        1 MOL1        -0.1760
      16    H10     18.751372   19.239242   24.819143 H          1 MOL1         0.0833
      17    H11     19.424910   17.622259   24.745318 H          1 MOL1         0.0833
      18    C7      20.836440   19.185976   24.256059 C.3        1 MOL1        -0.1684
      19    H12     21.231820   19.070462   25.274435 H          1 MOL1         0.0833
      20    H13     20.788196   20.269428   24.096385 H          1 MOL1         0.0833
      21    C8      21.821437   18.520526   23.261921 C.3        1 MOL1        -0.1684
      22    H14     21.383844   17.620145   22.815288 H          1 MOL1         0.0833
      23    H15     22.693569   18.156832   23.822263 H          1 MOL1         0.0833
      24    O1      17.416618   17.993278   23.036515 O.3        1 MOL1        -0.5508
      25    H16     16.983140   18.764620   23.456160 H          1 MOL1         0.3780
@<TRIPOS>BOND
    1     1     2    1
    2     1     3    1
    3     1     4    1
    4     4     5    1
    5     4     6    1
    6     4     7    1
    7     7     8    1
    8     7     9    1
    9     7    10    1
   10    10    11    1
   11    10    12    1
   12    10    13    1
   13    13    14    1
   14    13    15    1
   15    15    16    1
   16    15    17    1
   17    15    18    1
   18    18    19    1
   19    18    20    1
   20     1    21    1
   21    18    21    1
   22    21    22    1
   23    21    23    1
   24    13    24    1
   25    24    25    1
@<TRIPOS>SUBSTRUCTURE
       1 MOL1            1 RESIDUE      1      MOL     
@<SCITEGIC>MOL_PROPERTY
VConf Rank
SciTegic.value.IntegerValue
350

@<SCITEGIC>MOL_PROPERTY
Conf_Id
SciTegic.value.IntegerValue
167

@<SCITEGIC>MOL_PROPERTY
Delta U+W
SciTegic.value.DoubleValue
0.388

@<SCITEGIC>MOL_PROPERTY
U+W
SciTegic.value.DoubleValue
11.301

@<SCITEGIC>MOL_PROPERTY
Grad RMS
SciTegic.value.DoubleValue
0.000000

@<SCITEGIC>MOL_PROPERTY
U
SciTegic.value.DoubleValue
13.202

@<SCITEGIC>MOL_PROPERTY
W
SciTegic.value.DoubleValue
-1.901

@<SCITEGIC>MOL_PROPERTY
W(PB)
SciTegic.value.DoubleValue
-4.065

@<SCITEGIC>MOL_PROPERTY
W(SA)
SciTegic.value.DoubleValue
2.163

@<SCITEGIC>MOL_PROPERTY
Valence
SciTegic.value.DoubleValue
18.957

@<SCITEGIC>MOL_PROPERTY
Coulomb
SciTegic.value.DoubleValue
-8.753

@<SCITEGIC>MOL_PROPERTY
VdW
SciTegic.value.DoubleValue
2.998

@<SCITEGIC>MOL_PROPERTY
VdW6
SciTegic.value.DoubleValue
-12.294

@<SCITEGIC>MOL_PROPERTY
VdW12
SciTegic.value.DoubleValue
15.292

@<SCITEGIC>MOL_PROPERTY
Bond
SciTegic.value.DoubleValue
0.419

@<SCITEGIC>MOL_PROPERTY
Angle
SciTegic.value.DoubleValue
4.543

@<SCITEGIC>MOL_PROPERTY
Pdih
SciTegic.value.DoubleValue
13.996

@<SCITEGIC>MOL_PROPERTY
Idih
SciTegic.value.DoubleValue
0.000

@<SCITEGIC>MOL_PROPERTY
Tether
SciTegic.value.DoubleValue
0.000

@<TRIPOS>MOLECULE
guest-s17_confgen4.mol2 : confsearch ligand conformer 351
          25          25           1
SMALL
USER_CHARGES
 
@<TRIPOS>ATOM
       1    C1      22.100834   20.250981   22.776200 C.3        1 MOL1        -0.1684
       2    H1      22.618988   20.383371   23.735623 H          1 MOL1         0.0833
       3    H2      22.747851   20.721339   22.023172 H          1 MOL1         0.0833
       4    C2      20.767281   21.041949   22.812417 C.3        1 MOL1        -0.1684
       5    H3      20.279489   20.932798   23.787583 H          1 MOL1         0.0833
       6    H4      21.024065   22.108579   22.754138 H          1 MOL1         0.0833
       7    C3      19.771563   20.723238   21.667073 C.3        1 MOL1        -0.1684
       8    H5      20.297235   20.344129   20.781232 H          1 MOL1         0.0833
       9    H6      19.320347   21.672762   21.348148 H          1 MOL1         0.0833
      10    C4      18.604543   19.777493   22.061887 C.3        1 MOL1        -0.1760
      11    H7      18.069574   20.197888   22.923466 H          1 MOL1         0.0833
      12    H8      17.882407   19.781026   21.234667 H          1 MOL1         0.0833
      13    C5      18.969912   18.301892   22.359400 C.3        1 MOL1         0.1219
      14    H9      19.533496   17.893138   21.510018 H          1 MOL1         0.0790
      15    C6      19.775102   18.100760   23.669340 C.3        1 MOL1        -0.1760
      16    H10     19.617574   18.949705   24.342208 H          1 MOL1         0.0833
      17    H11     19.371514   17.239888   24.218847 H          1 MOL1         0.0833
      18    C7      21.292351   17.847118   23.473422 C.3        1 MOL1        -0.1684
      19    H12     21.422240   16.802528   23.158929 H          1 MOL1         0.0833
      20    H13     21.796032   17.929987   24.446043 H          1 MOL1         0.0833
      21    C8      22.024622   18.740294   22.440520 C.3        1 MOL1        -0.1684
      22    H14     21.605607   18.593658   21.438486 H          1 MOL1         0.0833
      23    H15     23.056537   18.371208   22.364698 H          1 MOL1         0.0833
      24    O1      17.750156   17.578103   22.471145 O.3        1 MOL1        -0.5508
      25    H16     17.992690   16.636011   22.590134 H          1 MOL1         0.3780
@<TRIPOS>BOND
    1     1     2    1
    2     1     3    1
    3     1     4    1
    4     4     5    1
    5     4     6    1
    6     4     7    1
    7     7     8    1
    8     7     9    1
    9     7    10    1
   10    10    11    1
   11    10    12    1
   12    10    13    1
   13    13    14    1
   14    13    15    1
   15    15    16    1
   16    15    17    1
   17    15    18    1
   18    18    19    1
   19    18    20    1
   20     1    21    1
   21    18    21    1
   22    21    22    1
   23    21    23    1
   24    13    24    1
   25    24    25    1
@<TRIPOS>SUBSTRUCTURE
       1 MOL1            1 RESIDUE      1      MOL     
@<SCITEGIC>MOL_PROPERTY
VConf Rank
SciTegic.value.IntegerValue
351

@<SCITEGIC>MOL_PROPERTY
Conf_Id
SciTegic.value.IntegerValue
60

@<SCITEGIC>MOL_PROPERTY
Delta U+W
SciTegic.value.DoubleValue
-1.838

@<SCITEGIC>MOL_PROPERTY
U+W
SciTegic.value.DoubleValue
9.075

@<SCITEGIC>MOL_PROPERTY
Grad RMS
SciTegic.value.DoubleValue
0.000000

@<SCITEGIC>MOL_PROPERTY
U
SciTegic.value.DoubleValue
11.150

@<SCITEGIC>MOL_PROPERTY
W
SciTegic.value.DoubleValue
-2.074

@<SCITEGIC>MOL_PROPERTY
W(PB)
SciTegic.value.DoubleValue
-4.196

@<SCITEGIC>MOL_PROPERTY
W(SA)
SciTegic.value.DoubleValue
2.121

@<SCITEGIC>MOL_PROPERTY
Valence
SciTegic.value.DoubleValue
16.582

@<SCITEGIC>MOL_PROPERTY
Coulomb
SciTegic.value.DoubleValue
-8.361

@<SCITEGIC>MOL_PROPERTY
VdW
SciTegic.value.DoubleValue
2.928

@<SCITEGIC>MOL_PROPERTY
VdW6
SciTegic.value.DoubleValue
-12.539

@<SCITEGIC>MOL_PROPERTY
VdW12
SciTegic.value.DoubleValue
15.467

@<SCITEGIC>MOL_PROPERTY
Bond
SciTegic.value.DoubleValue
0.441

@<SCITEGIC>MOL_PROPERTY
Angle
SciTegic.value.DoubleValue
5.093

@<SCITEGIC>MOL_PROPERTY
Pdih
SciTegic.value.DoubleValue
11.049

@<SCITEGIC>MOL_PROPERTY
Idih
SciTegic.value.DoubleValue
0.000

@<SCITEGIC>MOL_PROPERTY
Tether
SciTegic.value.DoubleValue
0.000

@<TRIPOS>MOLECULE
guest-s17_confgen4.mol2 : confsearch ligand conformer 352
          25          25           1
SMALL
USER_CHARGES
 
@<TRIPOS>ATOM
       1    C1      20.292151   17.859536   24.233429 C.3        1 MOL1        -0.1684
       2    H1      20.643820   16.825522   24.116602 H          1 MOL1         0.0833
       3    H2      19.945927   17.938586   25.273044 H          1 MOL1         0.0833
       4    C2      19.062505   18.087742   23.318795 C.3        1 MOL1        -0.1684
       5    H3      18.281536   17.386095   23.642216 H          1 MOL1         0.0833
       6    H4      18.632924   19.079780   23.498987 H          1 MOL1         0.0833
       7    C3      19.286713   17.858182   21.802912 C.3        1 MOL1        -0.1684
       8    H5      18.309911   17.942438   21.307228 H          1 MOL1         0.0833
       9    H6      19.616061   16.823388   21.637738 H          1 MOL1         0.0833
      10    C4      20.269653   18.819555   21.085729 C.3        1 MOL1        -0.1760
      11    H7      21.302546   18.497877   21.252855 H          1 MOL1         0.0833
      12    H8      20.116673   18.692135   20.005774 H          1 MOL1         0.0833
      13    C5      20.110474   20.316585   21.457598 C.3        1 MOL1         0.1219
      14    H9      19.117719   20.487547   21.895049 H          1 MOL1         0.0790
      15    C6      21.191695   20.844281   22.433254 C.3        1 MOL1        -0.1760
      16    H10     22.185976   20.644767   22.012729 H          1 MOL1         0.0833
      17    H11     21.100338   21.937905   22.471017 H          1 MOL1         0.0833
      18    C7      21.134231   20.320129   23.894148 C.3        1 MOL1        -0.1684
      19    H12     20.161559   20.544843   24.350419 H          1 MOL1         0.0833
      20    H13     21.863770   20.903350   24.472534 H          1 MOL1         0.0833
      21    C8      21.496473   18.821760   24.063015 C.3        1 MOL1        -0.1684
      22    H14     22.118976   18.720674   24.962629 H          1 MOL1         0.0833
      23    H15     22.144923   18.488300   23.245016 H          1 MOL1         0.0833
      24    O1      20.206669   21.084419   20.263721 O.3        1 MOL1        -0.5508
      25    H16     19.475492   20.790293   19.681154 H          1 MOL1         0.3780
@<TRIPOS>BOND
    1     1     2    1
    2     1     3    1
    3     1     4    1
    4     4     5    1
    5     4     6    1
    6     4     7    1
    7     7     8    1
    8     7     9    1
    9     7    10    1
   10    10    11    1
   11    10    12    1
   12    10    13    1
   13    13    14    1
   14    13    15    1
   15    15    16    1
   16    15    17    1
   17    15    18    1
   18    18    19    1
   19    18    20    1
   20     1    21    1
   21    18    21    1
   22    21    22    1
   23    21    23    1
   24    13    24    1
   25    24    25    1
@<TRIPOS>SUBSTRUCTURE
       1 MOL1            1 RESIDUE      1      MOL     
@<SCITEGIC>MOL_PROPERTY
VConf Rank
SciTegic.value.IntegerValue
352

@<SCITEGIC>MOL_PROPERTY
Conf_Id
SciTegic.value.IntegerValue
129

@<SCITEGIC>MOL_PROPERTY
Delta U+W
SciTegic.value.DoubleValue
-1.846

@<SCITEGIC>MOL_PROPERTY
U+W
SciTegic.value.DoubleValue
9.067

@<SCITEGIC>MOL_PROPERTY
Grad RMS
SciTegic.value.DoubleValue
0.000000

@<SCITEGIC>MOL_PROPERTY
U
SciTegic.value.DoubleValue
11.150

@<SCITEGIC>MOL_PROPERTY
W
SciTegic.value.DoubleValue
-2.083

@<SCITEGIC>MOL_PROPERTY
W(PB)
SciTegic.value.DoubleValue
-4.217

@<SCITEGIC>MOL_PROPERTY
W(SA)
SciTegic.value.DoubleValue
2.134

@<SCITEGIC>MOL_PROPERTY
Valence
SciTegic.value.DoubleValue
16.583

@<SCITEGIC>MOL_PROPERTY
Coulomb
SciTegic.value.DoubleValue
-8.361

@<SCITEGIC>MOL_PROPERTY
VdW
SciTegic.value.DoubleValue
2.928

@<SCITEGIC>MOL_PROPERTY
VdW6
SciTegic.value.DoubleValue
-12.539

@<SCITEGIC>MOL_PROPERTY
VdW12
SciTegic.value.DoubleValue
15.467

@<SCITEGIC>MOL_PROPERTY
Bond
SciTegic.value.DoubleValue
0.441

@<SCITEGIC>MOL_PROPERTY
Angle
SciTegic.value.DoubleValue
5.093

@<SCITEGIC>MOL_PROPERTY
Pdih
SciTegic.value.DoubleValue
11.049

@<SCITEGIC>MOL_PROPERTY
Idih
SciTegic.value.DoubleValue
0.000

@<SCITEGIC>MOL_PROPERTY
Tether
SciTegic.value.DoubleValue
0.000

@<TRIPOS>MOLECULE
guest-s17_confgen4.mol2 : confsearch ligand conformer 353
          25          25           1
SMALL
USER_CHARGES
 
@<TRIPOS>ATOM
       1    C1      21.953484   20.399281   22.619571 C.3        1 MOL1        -0.1684
       2    H1      22.040719   21.273661   23.278628 H          1 MOL1         0.0833
       3    H2      22.893123   20.361725   22.051604 H          1 MOL1         0.0833
       4    C2      20.808520   20.636979   21.603317 C.3        1 MOL1        -0.1684
       5    H3      21.074510   21.525798   21.015052 H          1 MOL1         0.0833
       6    H4      20.773475   19.822433   20.870864 H          1 MOL1         0.0833
       7    C3      19.403037   20.888140   22.204817 C.3        1 MOL1        -0.1684
       8    H5      18.731594   21.152515   21.376371 H          1 MOL1         0.0833
       9    H6      19.438722   21.773933   22.853349 H          1 MOL1         0.0833
      10    C4      18.753112   19.717140   22.986885 C.3        1 MOL1        -0.1760
      11    H7      19.140551   19.685459   24.010323 H          1 MOL1         0.0833
      12    H8      17.688247   19.961297   23.101198 H          1 MOL1         0.0833
      13    C5      18.889245   18.325120   22.317315 C.3        1 MOL1         0.1219
      14    H9      19.105396   18.448453   21.247765 H          1 MOL1         0.0790
      15    C6      19.968846   17.414679   22.954855 C.3        1 MOL1        -0.1760
      16    H10     19.773231   17.313737   24.030384 H          1 MOL1         0.0833
      17    H11     19.846688   16.407635   22.533935 H          1 MOL1         0.0833
      18    C7      21.450068   17.829545   22.742985 C.3        1 MOL1        -0.1684
      19    H12     21.686713   17.896474   21.673260 H          1 MOL1         0.0833
      20    H13     22.070969   17.006558   23.122643 H          1 MOL1         0.0833
      21    C8      21.877248   19.118944   23.490992 C.3        1 MOL1        -0.1684
      22    H14     22.879362   18.954381   23.910202 H          1 MOL1         0.0833
      23    H15     21.239877   19.285176   24.366735 H          1 MOL1         0.0833
      24    O1      17.643295   17.650404   22.437857 O.3        1 MOL1        -0.5508
      25    H16     17.475340   17.548945   23.397253 H          1 MOL1         0.3780
@<TRIPOS>BOND
    1     1     2    1
    2     1     3    1
    3     1     4    1
    4     4     5    1
    5     4     6    1
    6     4     7    1
    7     7     8    1
    8     7     9    1
    9     7    10    1
   10    10    11    1
   11    10    12    1
   12    10    13    1
   13    13    14    1
   14    13    15    1
   15    15    16    1
   16    15    17    1
   17    15    18    1
   18    18    19    1
   19    18    20    1
   20     1    21    1
   21    18    21    1
   22    21    22    1
   23    21    23    1
   24    13    24    1
   25    24    25    1
@<TRIPOS>SUBSTRUCTURE
       1 MOL1            1 RESIDUE      1      MOL     
@<SCITEGIC>MOL_PROPERTY
VConf Rank
SciTegic.value.IntegerValue
353

@<SCITEGIC>MOL_PROPERTY
Conf_Id
SciTegic.value.IntegerValue
140

@<SCITEGIC>MOL_PROPERTY
Delta U+W
SciTegic.value.DoubleValue
-1.702

@<SCITEGIC>MOL_PROPERTY
U+W
SciTegic.value.DoubleValue
9.211

@<SCITEGIC>MOL_PROPERTY
Grad RMS
SciTegic.value.DoubleValue
0.000000

@<SCITEGIC>MOL_PROPERTY
U
SciTegic.value.DoubleValue
11.181

@<SCITEGIC>MOL_PROPERTY
W
SciTegic.value.DoubleValue
-1.969

@<SCITEGIC>MOL_PROPERTY
W(PB)
SciTegic.value.DoubleValue
-4.093

@<SCITEGIC>MOL_PROPERTY
W(SA)
SciTegic.value.DoubleValue
2.124

@<SCITEGIC>MOL_PROPERTY
Valence
SciTegic.value.DoubleValue
16.954

@<SCITEGIC>MOL_PROPERTY
Coulomb
SciTegic.value.DoubleValue
-8.661

@<SCITEGIC>MOL_PROPERTY
VdW
SciTegic.value.DoubleValue
2.887

@<SCITEGIC>MOL_PROPERTY
VdW6
SciTegic.value.DoubleValue
-12.561

@<SCITEGIC>MOL_PROPERTY
VdW12
SciTegic.value.DoubleValue
15.448

@<SCITEGIC>MOL_PROPERTY
Bond
SciTegic.value.DoubleValue
0.433

@<SCITEGIC>MOL_PROPERTY
Angle
SciTegic.value.DoubleValue
5.120

@<SCITEGIC>MOL_PROPERTY
Pdih
SciTegic.value.DoubleValue
11.401

@<SCITEGIC>MOL_PROPERTY
Idih
SciTegic.value.DoubleValue
0.000

@<SCITEGIC>MOL_PROPERTY
Tether
SciTegic.value.DoubleValue
0.000

@<TRIPOS>MOLECULE
guest-s17_confgen4.mol2 : confsearch ligand conformer 354
          25          25           1
SMALL
USER_CHARGES
 
@<TRIPOS>ATOM
       1    C1      22.289207   18.723482   22.761603 C.3        1 MOL1        -0.1684
       2    H1      23.030049   19.497870   23.002401 H          1 MOL1         0.0833
       3    H2      22.864060   17.798479   22.617262 H          1 MOL1         0.0833
       4    C2      21.615110   19.075940   21.410376 C.3        1 MOL1        -0.1684
       5    H3      21.411550   20.150934   21.349111 H          1 MOL1         0.0833
       6    H4      22.358522   18.893688   20.622229 H          1 MOL1         0.0833
       7    C3      20.341405   18.259852   21.069459 C.3        1 MOL1        -0.1684
       8    H5      20.345954   17.288421   21.580435 H          1 MOL1         0.0833
       9    H6      20.379940   18.019985   19.998038 H          1 MOL1         0.0833
      10    C4      19.003439   19.007366   21.318623 C.3        1 MOL1        -0.1760
      11    H7      19.010146   19.953463   20.761783 H          1 MOL1         0.0833
      12    H8      18.202171   18.403962   20.871287 H          1 MOL1         0.0833
      13    C5      18.618774   19.280127   22.794606 C.3        1 MOL1         0.1219
      14    H9      18.642770   18.336216   23.355256 H          1 MOL1         0.0790
      15    C6      19.512630   20.331195   23.502313 C.3        1 MOL1        -0.1760
      16    H10     19.994077   20.979384   22.762989 H          1 MOL1         0.0833
      17    H11     18.878809   21.007024   24.092350 H          1 MOL1         0.0833
      18    C7      20.572503   19.745792   24.471458 C.3        1 MOL1        -0.1684
      19    H12     20.059034   19.465680   25.401479 H          1 MOL1         0.0833
      20    H13     21.279144   20.539591   24.749020 H          1 MOL1         0.0833
      21    C8      21.361867   18.505263   23.983336 C.3        1 MOL1        -0.1684
      22    H14     20.682842   17.664421   23.801372 H          1 MOL1         0.0833
      23    H15     21.994900   18.173215   24.817493 H          1 MOL1         0.0833
      24    O1      17.279991   19.759488   22.800194 O.3        1 MOL1        -0.5508
      25    H16     17.283849   20.596772   22.292371 H          1 MOL1         0.3780
@<TRIPOS>BOND
    1     1     2    1
    2     1     3    1
    3     1     4    1
    4     4     5    1
    5     4     6    1
    6     4     7    1
    7     7     8    1
    8     7     9    1
    9     7    10    1
   10    10    11    1
   11    10    12    1
   12    10    13    1
   13    13    14    1
   14    13    15    1
   15    15    16    1
   16    15    17    1
   17    15    18    1
   18    18    19    1
   19    18    20    1
   20     1    21    1
   21    18    21    1
   22    21    22    1
   23    21    23    1
   24    13    24    1
   25    24    25    1
@<TRIPOS>SUBSTRUCTURE
       1 MOL1            1 RESIDUE      1      MOL     
@<SCITEGIC>MOL_PROPERTY
VConf Rank
SciTegic.value.IntegerValue
354

@<SCITEGIC>MOL_PROPERTY
Conf_Id
SciTegic.value.IntegerValue
68

@<SCITEGIC>MOL_PROPERTY
Delta U+W
SciTegic.value.DoubleValue
-1.765

@<SCITEGIC>MOL_PROPERTY
U+W
SciTegic.value.DoubleValue
9.148

@<SCITEGIC>MOL_PROPERTY
Grad RMS
SciTegic.value.DoubleValue
0.000000

@<SCITEGIC>MOL_PROPERTY
U
SciTegic.value.DoubleValue
11.181

@<SCITEGIC>MOL_PROPERTY
W
SciTegic.value.DoubleValue
-2.032

@<SCITEGIC>MOL_PROPERTY
W(PB)
SciTegic.value.DoubleValue
-4.147

@<SCITEGIC>MOL_PROPERTY
W(SA)
SciTegic.value.DoubleValue
2.114

@<SCITEGIC>MOL_PROPERTY
Valence
SciTegic.value.DoubleValue
16.955

@<SCITEGIC>MOL_PROPERTY
Coulomb
SciTegic.value.DoubleValue
-8.661

@<SCITEGIC>MOL_PROPERTY
VdW
SciTegic.value.DoubleValue
2.887

@<SCITEGIC>MOL_PROPERTY
VdW6
SciTegic.value.DoubleValue
-12.561

@<SCITEGIC>MOL_PROPERTY
VdW12
SciTegic.value.DoubleValue
15.448

@<SCITEGIC>MOL_PROPERTY
Bond
SciTegic.value.DoubleValue
0.433

@<SCITEGIC>MOL_PROPERTY
Angle
SciTegic.value.DoubleValue
5.121

@<SCITEGIC>MOL_PROPERTY
Pdih
SciTegic.value.DoubleValue
11.402

@<SCITEGIC>MOL_PROPERTY
Idih
SciTegic.value.DoubleValue
0.000

@<SCITEGIC>MOL_PROPERTY
Tether
SciTegic.value.DoubleValue
0.000

@<TRIPOS>MOLECULE
guest-s17_confgen4.mol2 : confsearch ligand conformer 355
          25          25           1
SMALL
USER_CHARGES
 
@<TRIPOS>ATOM
       1    C1      20.114416   20.320664   24.140621 C.3        1 MOL1        -0.1684
       2    H1      20.130997   21.046818   24.964940 H          1 MOL1         0.0833
       3    H2      19.517215   19.486535   24.525943 H          1 MOL1         0.0833
       4    C2      21.572686   19.867820   23.869172 C.3        1 MOL1        -0.1684
       5    H3      22.027112   20.458786   23.063648 H          1 MOL1         0.0833
       6    H4      22.163650   20.103845   24.764757 H          1 MOL1         0.0833
       7    C3      21.743809   18.349338   23.601719 C.3        1 MOL1        -0.1684
       8    H5      21.324256   17.781554   24.443545 H          1 MOL1         0.0833
       9    H6      22.820069   18.129154   23.605629 H          1 MOL1         0.0833
      10    C4      21.155530   17.805383   22.272585 C.3        1 MOL1        -0.1760
      11    H7      21.585720   18.340647   21.417608 H          1 MOL1         0.0833
      12    H8      21.507961   16.769928   22.171409 H          1 MOL1         0.0833
      13    C5      19.606187   17.809063   22.206176 C.3        1 MOL1         0.1219
      14    H9      19.205006   17.865947   23.224685 H          1 MOL1         0.0790
      15    C6      18.995997   18.950182   21.355553 C.3        1 MOL1        -0.1760
      16    H10     19.104947   18.690249   20.294355 H          1 MOL1         0.0833
      17    H11     17.915606   18.985158   21.546907 H          1 MOL1         0.0833
      18    C7      19.587914   20.370406   21.547025 C.3        1 MOL1        -0.1684
      19    H12     19.095973   21.030416   20.819629 H          1 MOL1         0.0833
      20    H13     20.646352   20.386194   21.262826 H          1 MOL1         0.0833
      21    C8      19.397164   21.004384   22.947676 C.3        1 MOL1        -0.1684
      22    H14     18.324058   21.076604   23.170867 H          1 MOL1         0.0833
      23    H15     19.757844   22.040525   22.890058 H          1 MOL1         0.0833
      24    O1      19.174143   16.577257   21.641662 O.3        1 MOL1        -0.5508
      25    H16     19.555987   16.536278   20.740882 H          1 MOL1         0.3780
@<TRIPOS>BOND
    1     1     2    1
    2     1     3    1
    3     1     4    1
    4     4     5    1
    5     4     6    1
    6     4     7    1
    7     7     8    1
    8     7     9    1
    9     7    10    1
   10    10    11    1
   11    10    12    1
   12    10    13    1
   13    13    14    1
   14    13    15    1
   15    15    16    1
   16    15    17    1
   17    15    18    1
   18    18    19    1
   19    18    20    1
   20     1    21    1
   21    18    21    1
   22    21    22    1
   23    21    23    1
   24    13    24    1
   25    24    25    1
@<TRIPOS>SUBSTRUCTURE
       1 MOL1            1 RESIDUE      1      MOL     
@<SCITEGIC>MOL_PROPERTY
VConf Rank
SciTegic.value.IntegerValue
355

@<SCITEGIC>MOL_PROPERTY
Conf_Id
SciTegic.value.IntegerValue
165

@<SCITEGIC>MOL_PROPERTY
Delta U+W
SciTegic.value.DoubleValue
-1.999

@<SCITEGIC>MOL_PROPERTY
U+W
SciTegic.value.DoubleValue
8.915

@<SCITEGIC>MOL_PROPERTY
Grad RMS
SciTegic.value.DoubleValue
0.000000

@<SCITEGIC>MOL_PROPERTY
U
SciTegic.value.DoubleValue
10.935

@<SCITEGIC>MOL_PROPERTY
W
SciTegic.value.DoubleValue
-2.020

@<SCITEGIC>MOL_PROPERTY
W(PB)
SciTegic.value.DoubleValue
-4.135

@<SCITEGIC>MOL_PROPERTY
W(SA)
SciTegic.value.DoubleValue
2.115

@<SCITEGIC>MOL_PROPERTY
Valence
SciTegic.value.DoubleValue
16.757

@<SCITEGIC>MOL_PROPERTY
Coulomb
SciTegic.value.DoubleValue
-8.731

@<SCITEGIC>MOL_PROPERTY
VdW
SciTegic.value.DoubleValue
2.908

@<SCITEGIC>MOL_PROPERTY
VdW6
SciTegic.value.DoubleValue
-12.597

@<SCITEGIC>MOL_PROPERTY
VdW12
SciTegic.value.DoubleValue
15.506

@<SCITEGIC>MOL_PROPERTY
Bond
SciTegic.value.DoubleValue
0.434

@<SCITEGIC>MOL_PROPERTY
Angle
SciTegic.value.DoubleValue
5.069

@<SCITEGIC>MOL_PROPERTY
Pdih
SciTegic.value.DoubleValue
11.254

@<SCITEGIC>MOL_PROPERTY
Idih
SciTegic.value.DoubleValue
0.000

@<SCITEGIC>MOL_PROPERTY
Tether
SciTegic.value.DoubleValue
0.000

@<TRIPOS>MOLECULE
guest-s17_confgen4.mol2 : confsearch ligand conformer 356
          25          25           1
SMALL
USER_CHARGES
 
@<TRIPOS>ATOM
       1    C1      20.901752   20.592424   21.652728 C.3        1 MOL1        -0.1684
       2    H1      21.335355   21.395992   21.041704 H          1 MOL1         0.0833
       3    H2      19.846186   20.868631   21.754187 H          1 MOL1         0.0833
       4    C2      21.615335   20.633643   23.029155 C.3        1 MOL1        -0.1684
       5    H3      22.685138   20.803677   22.845808 H          1 MOL1         0.0833
       6    H4      21.266955   21.514488   23.585312 H          1 MOL1         0.0833
       7    C3      21.495282   19.378222   23.929070 C.3        1 MOL1        -0.1684
       8    H5      22.133723   19.542955   24.807680 H          1 MOL1         0.0833
       9    H6      21.933803   18.507389   23.428430 H          1 MOL1         0.0833
      10    C4      20.072694   19.045441   24.448235 C.3        1 MOL1        -0.1760
      11    H7      20.167128   18.206400   25.150807 H          1 MOL1         0.0833
      12    H8      19.703074   19.894066   25.038094 H          1 MOL1         0.0833
      13    C5      19.003731   18.673278   23.391555 C.3        1 MOL1         0.1219
      14    H9      18.642813   19.586898   22.904836 H          1 MOL1         0.0790
      15    C6      19.488798   17.681064   22.303251 C.3        1 MOL1        -0.1760
      16    H10     20.348516   17.101056   22.659050 H          1 MOL1         0.0833
      17    H11     18.696142   16.940387   22.131131 H          1 MOL1         0.0833
      18    C7      19.803450   18.332910   20.930268 C.3        1 MOL1        -0.1684
      19    H12     18.919348   18.881940   20.578252 H          1 MOL1         0.0833
      20    H13     19.955904   17.523489   20.203377 H          1 MOL1         0.0833
      21    C8      21.044409   19.261930   20.868539 C.3        1 MOL1        -0.1684
      22    H14     21.201183   19.517001   19.811481 H          1 MOL1         0.0833
      23    H15     21.950922   18.720996   21.168924 H          1 MOL1         0.0833
      24    O1      17.907808   18.085025   24.083237 O.3        1 MOL1        -0.5508
      25    H16     17.594091   18.749287   24.731910 H          1 MOL1         0.3780
@<TRIPOS>BOND
    1     1     2    1
    2     1     3    1
    3     1     4    1
    4     4     5    1
    5     4     6    1
    6     4     7    1
    7     7     8    1
    8     7     9    1
    9     7    10    1
   10    10    11    1
   11    10    12    1
   12    10    13    1
   13    13    14    1
   14    13    15    1
   15    15    16    1
   16    15    17    1
   17    15    18    1
   18    18    19    1
   19    18    20    1
   20     1    21    1
   21    18    21    1
   22    21    22    1
   23    21    23    1
   24    13    24    1
   25    24    25    1
@<TRIPOS>SUBSTRUCTURE
       1 MOL1            1 RESIDUE      1      MOL     
@<SCITEGIC>MOL_PROPERTY
VConf Rank
SciTegic.value.IntegerValue
356

@<SCITEGIC>MOL_PROPERTY
Conf_Id
SciTegic.value.IntegerValue
133

@<SCITEGIC>MOL_PROPERTY
Delta U+W
SciTegic.value.DoubleValue
-2.139

@<SCITEGIC>MOL_PROPERTY
U+W
SciTegic.value.DoubleValue
8.774

@<SCITEGIC>MOL_PROPERTY
Grad RMS
SciTegic.value.DoubleValue
0.000000

@<SCITEGIC>MOL_PROPERTY
U
SciTegic.value.DoubleValue
10.905

@<SCITEGIC>MOL_PROPERTY
W
SciTegic.value.DoubleValue
-2.131

@<SCITEGIC>MOL_PROPERTY
W(PB)
SciTegic.value.DoubleValue
-4.281

@<SCITEGIC>MOL_PROPERTY
W(SA)
SciTegic.value.DoubleValue
2.150

@<SCITEGIC>MOL_PROPERTY
Valence
SciTegic.value.DoubleValue
16.378

@<SCITEGIC>MOL_PROPERTY
Coulomb
SciTegic.value.DoubleValue
-8.448

@<SCITEGIC>MOL_PROPERTY
VdW
SciTegic.value.DoubleValue
2.976

@<SCITEGIC>MOL_PROPERTY
VdW6
SciTegic.value.DoubleValue
-12.570

@<SCITEGIC>MOL_PROPERTY
VdW12
SciTegic.value.DoubleValue
15.545

@<SCITEGIC>MOL_PROPERTY
Bond
SciTegic.value.DoubleValue
0.439

@<SCITEGIC>MOL_PROPERTY
Angle
SciTegic.value.DoubleValue
5.049

@<SCITEGIC>MOL_PROPERTY
Pdih
SciTegic.value.DoubleValue
10.889

@<SCITEGIC>MOL_PROPERTY
Idih
SciTegic.value.DoubleValue
0.000

@<SCITEGIC>MOL_PROPERTY
Tether
SciTegic.value.DoubleValue
0.000

@<TRIPOS>MOLECULE
guest-s17_confgen4.mol2 : confsearch ligand conformer 357
          25          25           1
SMALL
USER_CHARGES
 
@<TRIPOS>ATOM
       1    C1      18.915897   18.334842   23.477870 C.3        1 MOL1        -0.1684
       2    H1      18.140978   17.800639   24.044627 H          1 MOL1         0.0833
       3    H2      18.591630   18.255269   22.434165 H          1 MOL1         0.0833
       4    C2      20.262185   17.594168   23.688669 C.3        1 MOL1        -0.1684
       5    H3      20.838665   18.046321   24.505882 H          1 MOL1         0.0833
       6    H4      20.029043   16.577065   24.032408 H          1 MOL1         0.0833
       7    C3      21.134162   17.451723   22.413429 C.3        1 MOL1        -0.1684
       8    H5      20.551304   16.952396   21.627339 H          1 MOL1         0.0833
       9    H6      21.959580   16.765943   22.648304 H          1 MOL1         0.0833
      10    C4      21.752241   18.756089   21.842817 C.3        1 MOL1        -0.1760
      11    H7      22.364919   19.255222   22.602824 H          1 MOL1         0.0833
      12    H8      22.459244   18.457495   21.056993 H          1 MOL1         0.0833
      13    C5      20.724415   19.740954   21.228163 C.3        1 MOL1         0.1219
      14    H9      19.802475   19.194749   20.996766 H          1 MOL1         0.0790
      15    C6      20.385584   20.960293   22.120437 C.3        1 MOL1        -0.1760
      16    H10     21.218205   21.673870   22.056677 H          1 MOL1         0.0833
      17    H11     19.513293   21.474241   21.696547 H          1 MOL1         0.0833
      18    C7      20.123587   20.686121   23.623838 C.3        1 MOL1        -0.1684
      19    H12     19.975236   21.658681   24.112529 H          1 MOL1         0.0833
      20    H13     21.019903   20.271887   24.099568 H          1 MOL1         0.0833
      21    C8      18.887330   19.811545   23.951144 C.3        1 MOL1        -0.1684
      22    H14     17.984261   20.295588   23.555242 H          1 MOL1         0.0833
      23    H15     18.767520   19.810029   25.043229 H          1 MOL1         0.0833
      24    O1      21.253640   20.241737   20.005605 O.3        1 MOL1        -0.5508
      25    H16     20.567074   20.824045   19.618331 H          1 MOL1         0.3780
@<TRIPOS>BOND
    1     1     2    1
    2     1     3    1
    3     1     4    1
    4     4     5    1
    5     4     6    1
    6     4     7    1
    7     7     8    1
    8     7     9    1
    9     7    10    1
   10    10    11    1
   11    10    12    1
   12    10    13    1
   13    13    14    1
   14    13    15    1
   15    15    16    1
   16    15    17    1
   17    15    18    1
   18    18    19    1
   19    18    20    1
   20     1    21    1
   21    18    21    1
   22    21    22    1
   23    21    23    1
   24    13    24    1
   25    24    25    1
@<TRIPOS>SUBSTRUCTURE
       1 MOL1            1 RESIDUE      1      MOL     
@<SCITEGIC>MOL_PROPERTY
VConf Rank
SciTegic.value.IntegerValue
357

@<SCITEGIC>MOL_PROPERTY
Conf_Id
SciTegic.value.IntegerValue
95

@<SCITEGIC>MOL_PROPERTY
Delta U+W
SciTegic.value.DoubleValue
-2.190

@<SCITEGIC>MOL_PROPERTY
U+W
SciTegic.value.DoubleValue
8.723

@<SCITEGIC>MOL_PROPERTY
Grad RMS
SciTegic.value.DoubleValue
0.000000

@<SCITEGIC>MOL_PROPERTY
U
SciTegic.value.DoubleValue
10.905

@<SCITEGIC>MOL_PROPERTY
W
SciTegic.value.DoubleValue
-2.182

@<SCITEGIC>MOL_PROPERTY
W(PB)
SciTegic.value.DoubleValue
-4.296

@<SCITEGIC>MOL_PROPERTY
W(SA)
SciTegic.value.DoubleValue
2.114

@<SCITEGIC>MOL_PROPERTY
Valence
SciTegic.value.DoubleValue
16.377

@<SCITEGIC>MOL_PROPERTY
Coulomb
SciTegic.value.DoubleValue
-8.448

@<SCITEGIC>MOL_PROPERTY
VdW
SciTegic.value.DoubleValue
2.976

@<SCITEGIC>MOL_PROPERTY
VdW6
SciTegic.value.DoubleValue
-12.570

@<SCITEGIC>MOL_PROPERTY
VdW12
SciTegic.value.DoubleValue
15.546

@<SCITEGIC>MOL_PROPERTY
Bond
SciTegic.value.DoubleValue
0.439

@<SCITEGIC>MOL_PROPERTY
Angle
SciTegic.value.DoubleValue
5.049

@<SCITEGIC>MOL_PROPERTY
Pdih
SciTegic.value.DoubleValue
10.889

@<SCITEGIC>MOL_PROPERTY
Idih
SciTegic.value.DoubleValue
0.000

@<SCITEGIC>MOL_PROPERTY
Tether
SciTegic.value.DoubleValue
0.000

@<TRIPOS>MOLECULE
guest-s17_confgen4.mol2 : confsearch ligand conformer 358
          25          25           1
SMALL
USER_CHARGES
 
@<TRIPOS>ATOM
       1    C1      18.569287   18.572010   22.638483 C.3        1 MOL1        -0.1684
       2    H1      17.530300   18.239637   22.508349 H          1 MOL1         0.0833
       3    H2      18.659478   18.705279   23.721230 H          1 MOL1         0.0833
       4    C2      18.708072   19.933466   21.895923 C.3        1 MOL1        -0.1684
       5    H3      18.064734   19.888731   21.006509 H          1 MOL1         0.0833
       6    H4      18.282182   20.727249   22.524411 H          1 MOL1         0.0833
       7    C3      20.117450   20.364168   21.411520 C.3        1 MOL1        -0.1684
       8    H5      19.998570   21.278108   20.813692 H          1 MOL1         0.0833
       9    H6      20.490384   19.632170   20.688245 H          1 MOL1         0.0833
      10    C4      21.190034   20.664304   22.500558 C.3        1 MOL1        -0.1760
      11    H7      22.186856   20.592056   22.046137 H          1 MOL1         0.0833
      12    H8      21.070247   21.717153   22.787649 H          1 MOL1         0.0833
      13    C5      21.165963   19.827101   23.804477 C.3        1 MOL1         0.1219
      14    H9      20.180885   19.947782   24.266942 H          1 MOL1         0.0790
      15    C6      21.498273   18.312624   23.675934 C.3        1 MOL1        -0.1760
      16    H10     22.589764   18.200800   23.725509 H          1 MOL1         0.0833
      17    H11     21.108484   17.797924   24.563310 H          1 MOL1         0.0833
      18    C7      21.025021   17.555487   22.405582 C.3        1 MOL1        -0.1684
      19    H12     21.443132   16.540606   22.449317 H          1 MOL1         0.0833
      20    H13     21.505524   17.992135   21.524375 H          1 MOL1         0.0833
      21    C8      19.490967   17.409312   22.184636 C.3        1 MOL1        -0.1684
      22    H14     19.164848   16.511763   22.727701 H          1 MOL1         0.0833
      23    H15     19.303970   17.193148   21.124095 H          1 MOL1         0.0833
      24    O1      22.121562   20.395640   24.692287 O.3        1 MOL1        -0.5508
      25    H16     21.867093   21.333294   24.819206 H          1 MOL1         0.3780
@<TRIPOS>BOND
    1     1     2    1
    2     1     3    1
    3     1     4    1
    4     4     5    1
    5     4     6    1
    6     4     7    1
    7     7     8    1
    8     7     9    1
    9     7    10    1
   10    10    11    1
   11    10    12    1
   12    10    13    1
   13    13    14    1
   14    13    15    1
   15    15    16    1
   16    15    17    1
   17    15    18    1
   18    18    19    1
   19    18    20    1
   20     1    21    1
   21    18    21    1
   22    21    22    1
   23    21    23    1
   24    13    24    1
   25    24    25    1
@<TRIPOS>SUBSTRUCTURE
       1 MOL1            1 RESIDUE      1      MOL     
@<SCITEGIC>MOL_PROPERTY
VConf Rank
SciTegic.value.IntegerValue
358

@<SCITEGIC>MOL_PROPERTY
Conf_Id
SciTegic.value.IntegerValue
161

@<SCITEGIC>MOL_PROPERTY
Delta U+W
SciTegic.value.DoubleValue
2.120

@<SCITEGIC>MOL_PROPERTY
U+W
SciTegic.value.DoubleValue
13.033

@<SCITEGIC>MOL_PROPERTY
Grad RMS
SciTegic.value.DoubleValue
0.000000

@<SCITEGIC>MOL_PROPERTY
U
SciTegic.value.DoubleValue
15.076

@<SCITEGIC>MOL_PROPERTY
W
SciTegic.value.DoubleValue
-2.043

@<SCITEGIC>MOL_PROPERTY
W(PB)
SciTegic.value.DoubleValue
-4.186

@<SCITEGIC>MOL_PROPERTY
W(SA)
SciTegic.value.DoubleValue
2.143

@<SCITEGIC>MOL_PROPERTY
Valence
SciTegic.value.DoubleValue
18.884

@<SCITEGIC>MOL_PROPERTY
Coulomb
SciTegic.value.DoubleValue
-8.074

@<SCITEGIC>MOL_PROPERTY
VdW
SciTegic.value.DoubleValue
4.266

@<SCITEGIC>MOL_PROPERTY
VdW6
SciTegic.value.DoubleValue
-13.486

@<SCITEGIC>MOL_PROPERTY
VdW12
SciTegic.value.DoubleValue
17.752

@<SCITEGIC>MOL_PROPERTY
Bond
SciTegic.value.DoubleValue
0.713

@<SCITEGIC>MOL_PROPERTY
Angle
SciTegic.value.DoubleValue
8.955

@<SCITEGIC>MOL_PROPERTY
Pdih
SciTegic.value.DoubleValue
9.215

@<SCITEGIC>MOL_PROPERTY
Idih
SciTegic.value.DoubleValue
0.000

@<SCITEGIC>MOL_PROPERTY
Tether
SciTegic.value.DoubleValue
0.000

@<TRIPOS>MOLECULE
guest-s17_confgen4.mol2 : confsearch ligand conformer 359
          25          25           1
SMALL
USER_CHARGES
 
@<TRIPOS>ATOM
       1    C1      21.854924   20.362621   22.193429 C.3        1 MOL1        -0.1684
       2    H1      22.849682   20.811450   22.066948 H          1 MOL1         0.0833
       3    H2      21.151580   21.167424   21.944767 H          1 MOL1         0.0833
       4    C2      21.696103   19.963008   23.681637 C.3        1 MOL1        -0.1684
       5    H3      22.104924   18.959790   23.862207 H          1 MOL1         0.0833
       6    H4      22.331743   20.644461   24.263664 H          1 MOL1         0.0833
       7    C3      20.256270   20.094377   24.251686 C.3        1 MOL1        -0.1684
       8    H5      19.745415   20.974801   23.839175 H          1 MOL1         0.0833
       9    H6      20.358101   20.295417   25.327053 H          1 MOL1         0.0833
      10    C4      19.371081   18.828706   24.113884 C.3        1 MOL1        -0.1760
      11    H7      19.990845   17.928861   24.209490 H          1 MOL1         0.0833
      12    H8      18.694552   18.799271   24.978219 H          1 MOL1         0.0833
      13    C5      18.475451   18.753301   22.851350 C.3        1 MOL1         0.1219
      14    H9      17.681109   19.506234   22.955687 H          1 MOL1         0.0790
      15    C6      19.175132   19.003170   21.495292 C.3        1 MOL1        -0.1760
      16    H10     18.490705   18.696115   20.693194 H          1 MOL1         0.0833
      17    H11     19.297210   20.082121   21.351331 H          1 MOL1         0.0833
      18    C7      20.526881   18.262959   21.310644 C.3        1 MOL1        -0.1684
      19    H12     20.467483   17.638618   20.408757 H          1 MOL1         0.0833
      20    H13     20.708912   17.557872   22.129678 H          1 MOL1         0.0833
      21    C8      21.746222   19.204776   21.166181 C.3        1 MOL1        -0.1684
      22    H14     21.736999   19.641708   20.158304 H          1 MOL1         0.0833
      23    H15     22.659162   18.596099   21.219409 H          1 MOL1         0.0833
      24    O1      17.880896   17.463598   22.812152 O.3        1 MOL1        -0.5508
      25    H16     18.601563   16.843299   22.580467 H          1 MOL1         0.3780
@<TRIPOS>BOND
    1     1     2    1
    2     1     3    1
    3     1     4    1
    4     4     5    1
    5     4     6    1
    6     4     7    1
    7     7     8    1
    8     7     9    1
    9     7    10    1
   10    10    11    1
   11    10    12    1
   12    10    13    1
   13    13    14    1
   14    13    15    1
   15    15    16    1
   16    15    17    1
   17    15    18    1
   18    18    19    1
   19    18    20    1
   20     1    21    1
   21    18    21    1
   22    21    22    1
   23    21    23    1
   24    13    24    1
   25    24    25    1
@<TRIPOS>SUBSTRUCTURE
       1 MOL1            1 RESIDUE      1      MOL     
@<SCITEGIC>MOL_PROPERTY
VConf Rank
SciTegic.value.IntegerValue
359

@<SCITEGIC>MOL_PROPERTY
Conf_Id
SciTegic.value.IntegerValue
164

@<SCITEGIC>MOL_PROPERTY
Delta U+W
SciTegic.value.DoubleValue
0.008

@<SCITEGIC>MOL_PROPERTY
U+W
SciTegic.value.DoubleValue
10.922

@<SCITEGIC>MOL_PROPERTY
Grad RMS
SciTegic.value.DoubleValue
0.000000

@<SCITEGIC>MOL_PROPERTY
U
SciTegic.value.DoubleValue
12.433

@<SCITEGIC>MOL_PROPERTY
W
SciTegic.value.DoubleValue
-1.511

@<SCITEGIC>MOL_PROPERTY
W(PB)
SciTegic.value.DoubleValue
-3.669

@<SCITEGIC>MOL_PROPERTY
W(SA)
SciTegic.value.DoubleValue
2.157

@<SCITEGIC>MOL_PROPERTY
Valence
SciTegic.value.DoubleValue
19.007

@<SCITEGIC>MOL_PROPERTY
Coulomb
SciTegic.value.DoubleValue
-9.373

@<SCITEGIC>MOL_PROPERTY
VdW
SciTegic.value.DoubleValue
2.799

@<SCITEGIC>MOL_PROPERTY
VdW6
SciTegic.value.DoubleValue
-12.597

@<SCITEGIC>MOL_PROPERTY
VdW12
SciTegic.value.DoubleValue
15.396

@<SCITEGIC>MOL_PROPERTY
Bond
SciTegic.value.DoubleValue
0.425

@<SCITEGIC>MOL_PROPERTY
Angle
SciTegic.value.DoubleValue
4.784

@<SCITEGIC>MOL_PROPERTY
Pdih
SciTegic.value.DoubleValue
13.799

@<SCITEGIC>MOL_PROPERTY
Idih
SciTegic.value.DoubleValue
0.000

@<SCITEGIC>MOL_PROPERTY
Tether
SciTegic.value.DoubleValue
0.000

@<TRIPOS>MOLECULE
guest-s17_confgen4.mol2 : confsearch ligand conformer 360
          25          25           1
SMALL
USER_CHARGES
 
@<TRIPOS>ATOM
       1    C1      19.144652   17.989775   23.309538 C.3        1 MOL1        -0.1684
       2    H1      19.171908   18.797004   24.050186 H          1 MOL1         0.0833
       3    H2      18.438095   17.258040   23.724285 H          1 MOL1         0.0833
       4    C2      20.525637   17.294037   23.217089 C.3        1 MOL1        -0.1684
       5    H3      20.756149   16.887357   24.211261 H          1 MOL1         0.0833
       6    H4      20.449764   16.424030   22.550878 H          1 MOL1         0.0833
       7    C3      21.727667   18.165418   22.771466 C.3        1 MOL1        -0.1684
       8    H5      21.766029   18.238490   21.678648 H          1 MOL1         0.0833
       9    H6      22.641655   17.619317   23.042398 H          1 MOL1         0.0833
      10    C4      21.797684   19.576372   23.414183 C.3        1 MOL1        -0.1760
      11    H7      21.266199   19.597719   24.373270 H          1 MOL1         0.0833
      12    H8      22.850104   19.770378   23.661188 H          1 MOL1         0.0833
      13    C5      21.327370   20.734046   22.498175 C.3        1 MOL1         0.1219
      14    H9      21.881794   20.668263   21.551134 H          1 MOL1         0.0790
      15    C6      19.814273   20.785799   22.169028 C.3        1 MOL1        -0.1760
      16    H10     19.217554   20.846937   23.087161 H          1 MOL1         0.0833
      17    H11     19.633148   21.731986   21.641617 H          1 MOL1         0.0833
      18    C7      19.306114   19.642000   21.251270 C.3        1 MOL1        -0.1684
      19    H12     20.128467   19.237022   20.650611 H          1 MOL1         0.0833
      20    H13     18.615179   20.074514   20.514694 H          1 MOL1         0.0833
      21    C8      18.546855   18.500632   21.974854 C.3        1 MOL1        -0.1684
      22    H14     18.429760   17.655759   21.282767 H          1 MOL1         0.0833
      23    H15     17.528601   18.855405   22.185084 H          1 MOL1         0.0833
      24    O1      21.671236   21.955799   23.137138 O.3        1 MOL1        -0.5508
      25    H16     21.162749   21.982710   23.973501 H          1 MOL1         0.3780
@<TRIPOS>BOND
    1     1     2    1
    2     1     3    1
    3     1     4    1
    4     4     5    1
    5     4     6    1
    6     4     7    1
    7     7     8    1
    8     7     9    1
    9     7    10    1
   10    10    11    1
   11    10    12    1
   12    10    13    1
   13    13    14    1
   14    13    15    1
   15    15    16    1
   16    15    17    1
   17    15    18    1
   18    18    19    1
   19    18    20    1
   20     1    21    1
   21    18    21    1
   22    21    22    1
   23    21    23    1
   24    13    24    1
   25    24    25    1
@<TRIPOS>SUBSTRUCTURE
       1 MOL1            1 RESIDUE      1      MOL     
@<SCITEGIC>MOL_PROPERTY
VConf Rank
SciTegic.value.IntegerValue
360

@<SCITEGIC>MOL_PROPERTY
Conf_Id
SciTegic.value.IntegerValue
15

@<SCITEGIC>MOL_PROPERTY
Delta U+W
SciTegic.value.DoubleValue
-1.271

@<SCITEGIC>MOL_PROPERTY
U+W
SciTegic.value.DoubleValue
9.643

@<SCITEGIC>MOL_PROPERTY
Grad RMS
SciTegic.value.DoubleValue
0.000000

@<SCITEGIC>MOL_PROPERTY
U
SciTegic.value.DoubleValue
11.413

@<SCITEGIC>MOL_PROPERTY
W
SciTegic.value.DoubleValue
-1.770

@<SCITEGIC>MOL_PROPERTY
W(PB)
SciTegic.value.DoubleValue
-3.908

@<SCITEGIC>MOL_PROPERTY
W(SA)
SciTegic.value.DoubleValue
2.138

@<SCITEGIC>MOL_PROPERTY
Valence
SciTegic.value.DoubleValue
17.496

@<SCITEGIC>MOL_PROPERTY
Coulomb
SciTegic.value.DoubleValue
-8.736

@<SCITEGIC>MOL_PROPERTY
VdW
SciTegic.value.DoubleValue
2.653

@<SCITEGIC>MOL_PROPERTY
VdW6
SciTegic.value.DoubleValue
-12.485

@<SCITEGIC>MOL_PROPERTY
VdW12
SciTegic.value.DoubleValue
15.138

@<SCITEGIC>MOL_PROPERTY
Bond
SciTegic.value.DoubleValue
0.414

@<SCITEGIC>MOL_PROPERTY
Angle
SciTegic.value.DoubleValue
5.295

@<SCITEGIC>MOL_PROPERTY
Pdih
SciTegic.value.DoubleValue
11.787

@<SCITEGIC>MOL_PROPERTY
Idih
SciTegic.value.DoubleValue
0.000

@<SCITEGIC>MOL_PROPERTY
Tether
SciTegic.value.DoubleValue
0.000

@<TRIPOS>MOLECULE
guest-s17_confgen4.mol2 : confsearch ligand conformer 361
          25          25           1
SMALL
USER_CHARGES
 
@<TRIPOS>ATOM
       1    C1      20.847607   20.553229   21.357317 C.3        1 MOL1        -0.1684
       2    H1      20.975458   21.414123   20.686872 H          1 MOL1         0.0833
       3    H2      21.302865   19.711082   20.820946 H          1 MOL1         0.0833
       4    C2      21.638763   20.867666   22.654247 C.3        1 MOL1        -0.1684
       5    H3      22.708192   20.890652   22.404013 H          1 MOL1         0.0833
       6    H4      21.387953   21.884482   22.985841 H          1 MOL1         0.0833
       7    C3      21.429285   19.903097   23.846329 C.3        1 MOL1        -0.1684
       8    H5      20.482328   20.137996   24.346194 H          1 MOL1         0.0833
       9    H6      22.202806   20.115751   24.596815 H          1 MOL1         0.0833
      10    C4      21.502595   18.401040   23.466984 C.3        1 MOL1        -0.1760
      11    H7      21.851204   18.274606   22.436024 H          1 MOL1         0.0833
      12    H8      22.273697   17.924128   24.085977 H          1 MOL1         0.0833
      13    C5      20.185122   17.620757   23.680740 C.3        1 MOL1         0.1219
      14    H9      20.056551   17.475945   24.763019 H          1 MOL1         0.0790
      15    C6      18.889711   18.290099   23.153130 C.3        1 MOL1        -0.1760
      16    H10     18.088869   17.542267   23.228858 H          1 MOL1         0.0833
      17    H11     18.578910   19.092995   23.832301 H          1 MOL1         0.0833
      18    C7      18.915264   18.818902   21.694105 C.3        1 MOL1        -0.1684
      19    H12     17.890079   18.732737   21.308471 H          1 MOL1         0.0833
      20    H13     19.521755   18.171328   21.047862 H          1 MOL1         0.0833
      21    C8      19.328893   20.308116   21.536205 C.3        1 MOL1        -0.1684
      22    H14     18.928224   20.920882   22.354842 H          1 MOL1         0.0833
      23    H15     18.836737   20.680296   20.627118 H          1 MOL1         0.0833
      24    O1      20.318223   16.348143   23.063371 O.3        1 MOL1        -0.5508
      25    H16     20.333547   16.518227   22.100053 H          1 MOL1         0.3780
@<TRIPOS>BOND
    1     1     2    1
    2     1     3    1
    3     1     4    1
    4     4     5    1
    5     4     6    1
    6     4     7    1
    7     7     8    1
    8     7     9    1
    9     7    10    1
   10    10    11    1
   11    10    12    1
   12    10    13    1
   13    13    14    1
   14    13    15    1
   15    15    16    1
   16    15    17    1
   17    15    18    1
   18    18    19    1
   19    18    20    1
   20     1    21    1
   21    18    21    1
   22    21    22    1
   23    21    23    1
   24    13    24    1
   25    24    25    1
@<TRIPOS>SUBSTRUCTURE
       1 MOL1            1 RESIDUE      1      MOL     
@<SCITEGIC>MOL_PROPERTY
VConf Rank
SciTegic.value.IntegerValue
361

@<SCITEGIC>MOL_PROPERTY
Conf_Id
SciTegic.value.IntegerValue
115

@<SCITEGIC>MOL_PROPERTY
Delta U+W
SciTegic.value.DoubleValue
0.038

@<SCITEGIC>MOL_PROPERTY
U+W
SciTegic.value.DoubleValue
10.952

@<SCITEGIC>MOL_PROPERTY
Grad RMS
SciTegic.value.DoubleValue
0.000000

@<SCITEGIC>MOL_PROPERTY
U
SciTegic.value.DoubleValue
12.526

@<SCITEGIC>MOL_PROPERTY
W
SciTegic.value.DoubleValue
-1.575

@<SCITEGIC>MOL_PROPERTY
W(PB)
SciTegic.value.DoubleValue
-3.698

@<SCITEGIC>MOL_PROPERTY
W(SA)
SciTegic.value.DoubleValue
2.123

@<SCITEGIC>MOL_PROPERTY
Valence
SciTegic.value.DoubleValue
19.016

@<SCITEGIC>MOL_PROPERTY
Coulomb
SciTegic.value.DoubleValue
-9.226

@<SCITEGIC>MOL_PROPERTY
VdW
SciTegic.value.DoubleValue
2.737

@<SCITEGIC>MOL_PROPERTY
VdW6
SciTegic.value.DoubleValue
-12.612

@<SCITEGIC>MOL_PROPERTY
VdW12
SciTegic.value.DoubleValue
15.349

@<SCITEGIC>MOL_PROPERTY
Bond
SciTegic.value.DoubleValue
0.421

@<SCITEGIC>MOL_PROPERTY
Angle
SciTegic.value.DoubleValue
4.883

@<SCITEGIC>MOL_PROPERTY
Pdih
SciTegic.value.DoubleValue
13.711

@<SCITEGIC>MOL_PROPERTY
Idih
SciTegic.value.DoubleValue
0.000

@<SCITEGIC>MOL_PROPERTY
Tether
SciTegic.value.DoubleValue
0.000

@<TRIPOS>MOLECULE
guest-s17_confgen4.mol2 : confsearch ligand conformer 362
          25          25           1
SMALL
USER_CHARGES
 
@<TRIPOS>ATOM
       1    C1      18.593413   18.024048   22.434235 C.3        1 MOL1        -0.1684
       2    H1      17.800287   17.362248   22.808343 H          1 MOL1         0.0833
       3    H2      18.286586   18.305407   21.417785 H          1 MOL1         0.0833
       4    C2      19.898778   17.196326   22.384907 C.3        1 MOL1        -0.1684
       5    H3      20.139591   16.811850   23.385298 H          1 MOL1         0.0833
       6    H4      19.701902   16.309160   21.767513 H          1 MOL1         0.0833
       7    C3      21.120801   17.930870   21.786577 C.3        1 MOL1        -0.1684
       8    H5      20.821761   18.512427   20.904339 H          1 MOL1         0.0833
       9    H6      21.812509   17.164880   21.409799 H          1 MOL1         0.0833
      10    C4      21.902434   18.804468   22.804329 C.3        1 MOL1        -0.1760
      11    H7      21.605584   18.576989   23.835805 H          1 MOL1         0.0833
      12    H8      22.960980   18.519378   22.735301 H          1 MOL1         0.0833
      13    C5      21.803360   20.325381   22.549452 C.3        1 MOL1         0.1219
      14    H9      21.781334   20.503702   21.464838 H          1 MOL1         0.0790
      15    C6      20.577499   21.008380   23.195369 C.3        1 MOL1        -0.1760
      16    H10     20.616184   20.892891   24.286587 H          1 MOL1         0.0833
      17    H11     20.661346   22.086588   23.006027 H          1 MOL1         0.0833
      18    C7      19.200591   20.546311   22.659382 C.3        1 MOL1        -0.1684
      19    H12     19.233598   20.432214   21.567629 H          1 MOL1         0.0833
      20    H13     18.487489   21.361360   22.844886 H          1 MOL1         0.0833
      21    C8      18.637979   19.273634   23.344776 C.3        1 MOL1        -0.1684
      22    H14     17.605012   19.493468   23.647852 H          1 MOL1         0.0833
      23    H15     19.172327   19.049292   24.277499 H          1 MOL1         0.0833
      24    O1      22.967874   20.938877   23.089061 O.3        1 MOL1        -0.5508
      25    H16     22.912625   21.892609   22.870711 H          1 MOL1         0.3780
@<TRIPOS>BOND
    1     1     2    1
    2     1     3    1
    3     1     4    1
    4     4     5    1
    5     4     6    1
    6     4     7    1
    7     7     8    1
    8     7     9    1
    9     7    10    1
   10    10    11    1
   11    10    12    1
   12    10    13    1
   13    13    14    1
   14    13    15    1
   15    15    16    1
   16    15    17    1
   17    15    18    1
   18    18    19    1
   19    18    20    1
   20     1    21    1
   21    18    21    1
   22    21    22    1
   23    21    23    1
   24    13    24    1
   25    24    25    1
@<TRIPOS>SUBSTRUCTURE
       1 MOL1            1 RESIDUE      1      MOL     
@<SCITEGIC>MOL_PROPERTY
VConf Rank
SciTegic.value.IntegerValue
362

@<SCITEGIC>MOL_PROPERTY
Conf_Id
SciTegic.value.IntegerValue
30

@<SCITEGIC>MOL_PROPERTY
Delta U+W
SciTegic.value.DoubleValue
0.000

@<SCITEGIC>MOL_PROPERTY
U+W
SciTegic.value.DoubleValue
10.913

@<SCITEGIC>MOL_PROPERTY
Grad RMS
SciTegic.value.DoubleValue
0.000000

@<SCITEGIC>MOL_PROPERTY
U
SciTegic.value.DoubleValue
13.140

@<SCITEGIC>MOL_PROPERTY
W
SciTegic.value.DoubleValue
-2.227

@<SCITEGIC>MOL_PROPERTY
W(PB)
SciTegic.value.DoubleValue
-4.367

@<SCITEGIC>MOL_PROPERTY
W(SA)
SciTegic.value.DoubleValue
2.140

@<SCITEGIC>MOL_PROPERTY
Valence
SciTegic.value.DoubleValue
19.155

@<SCITEGIC>MOL_PROPERTY
Coulomb
SciTegic.value.DoubleValue
-8.157

@<SCITEGIC>MOL_PROPERTY
VdW
SciTegic.value.DoubleValue
2.142

@<SCITEGIC>MOL_PROPERTY
VdW6
SciTegic.value.DoubleValue
-11.576

@<SCITEGIC>MOL_PROPERTY
VdW12
SciTegic.value.DoubleValue
13.718

@<SCITEGIC>MOL_PROPERTY
Bond
SciTegic.value.DoubleValue
0.294

@<SCITEGIC>MOL_PROPERTY
Angle
SciTegic.value.DoubleValue
3.547

@<SCITEGIC>MOL_PROPERTY
Pdih
SciTegic.value.DoubleValue
15.314

@<SCITEGIC>MOL_PROPERTY
Idih
SciTegic.value.DoubleValue
0.000

@<SCITEGIC>MOL_PROPERTY
Tether
SciTegic.value.DoubleValue
0.000

@<TRIPOS>MOLECULE
guest-s17_confgen4.mol2 : confsearch ligand conformer 363
          25          25           1
SMALL
USER_CHARGES
 
@<TRIPOS>ATOM
       1    C1      22.313521   19.909959   22.396297 C.3        1 MOL1        -0.1684
       2    H1      23.097501   19.663168   21.667376 H          1 MOL1         0.0833
       3    H2      22.781850   20.596452   23.114744 H          1 MOL1         0.0833
       4    C2      21.918112   18.615849   23.149302 C.3        1 MOL1        -0.1684
       5    H3      22.841173   18.078054   23.405436 H          1 MOL1         0.0833
       6    H4      21.471189   18.874418   24.116234 H          1 MOL1         0.0833
       7    C3      20.997188   17.663014   22.345682 C.3        1 MOL1        -0.1684
       8    H5      21.472582   16.674116   22.293073 H          1 MOL1         0.0833
       9    H6      20.910108   17.987229   21.302161 H          1 MOL1         0.0833
      10    C4      19.584368   17.484723   22.956998 C.3        1 MOL1        -0.1760
      11    H7      18.955935   16.954868   22.228928 H          1 MOL1         0.0833
      12    H8      19.663751   16.819719   23.826844 H          1 MOL1         0.0833
      13    C5      18.852359   18.771197   23.414520 C.3        1 MOL1         0.1219
      14    H9      19.341690   19.164533   24.315536 H          1 MOL1         0.0790
      15    C6      18.782904   19.899638   22.356648 C.3        1 MOL1        -0.1760
      16    H10     18.744202   19.473241   21.346085 H          1 MOL1         0.0833
      17    H11     17.829397   20.429205   22.484629 H          1 MOL1         0.0833
      18    C7      19.906280   20.969298   22.464374 C.3        1 MOL1        -0.1684
      19    H12     20.156700   21.178986   23.513060 H          1 MOL1         0.0833
      20    H13     19.491870   21.907654   22.070688 H          1 MOL1         0.0833
      21    C8      21.184399   20.664006   21.644612 C.3        1 MOL1        -0.1684
      22    H14     21.607298   21.621368   21.310425 H          1 MOL1         0.0833
      23    H15     20.919027   20.138268   20.718596 H          1 MOL1         0.0833
      24    O1      17.523918   18.397811   23.760995 O.3        1 MOL1        -0.5508
      25    H16     17.091312   19.198527   24.124533 H          1 MOL1         0.3780
@<TRIPOS>BOND
    1     1     2    1
    2     1     3    1
    3     1     4    1
    4     4     5    1
    5     4     6    1
    6     4     7    1
    7     7     8    1
    8     7     9    1
    9     7    10    1
   10    10    11    1
   11    10    12    1
   12    10    13    1
   13    13    14    1
   14    13    15    1
   15    15    16    1
   16    15    17    1
   17    15    18    1
   18    18    19    1
   19    18    20    1
   20     1    21    1
   21    18    21    1
   22    21    22    1
   23    21    23    1
   24    13    24    1
   25    24    25    1
@<TRIPOS>SUBSTRUCTURE
       1 MOL1            1 RESIDUE      1      MOL     
@<SCITEGIC>MOL_PROPERTY
VConf Rank
SciTegic.value.IntegerValue
363

@<SCITEGIC>MOL_PROPERTY
Conf_Id
SciTegic.value.IntegerValue
162

@<SCITEGIC>MOL_PROPERTY
Delta U+W
SciTegic.value.DoubleValue
0.219

@<SCITEGIC>MOL_PROPERTY
U+W
SciTegic.value.DoubleValue
11.132

@<SCITEGIC>MOL_PROPERTY
Grad RMS
SciTegic.value.DoubleValue
0.000000

@<SCITEGIC>MOL_PROPERTY
U
SciTegic.value.DoubleValue
13.296

@<SCITEGIC>MOL_PROPERTY
W
SciTegic.value.DoubleValue
-2.164

@<SCITEGIC>MOL_PROPERTY
W(PB)
SciTegic.value.DoubleValue
-4.311

@<SCITEGIC>MOL_PROPERTY
W(SA)
SciTegic.value.DoubleValue
2.148

@<SCITEGIC>MOL_PROPERTY
Valence
SciTegic.value.DoubleValue
18.607

@<SCITEGIC>MOL_PROPERTY
Coulomb
SciTegic.value.DoubleValue
-8.339

@<SCITEGIC>MOL_PROPERTY
VdW
SciTegic.value.DoubleValue
3.028

@<SCITEGIC>MOL_PROPERTY
VdW6
SciTegic.value.DoubleValue
-12.271

@<SCITEGIC>MOL_PROPERTY
VdW12
SciTegic.value.DoubleValue
15.299

@<SCITEGIC>MOL_PROPERTY
Bond
SciTegic.value.DoubleValue
0.423

@<SCITEGIC>MOL_PROPERTY
Angle
SciTegic.value.DoubleValue
4.488

@<SCITEGIC>MOL_PROPERTY
Pdih
SciTegic.value.DoubleValue
13.696

@<SCITEGIC>MOL_PROPERTY
Idih
SciTegic.value.DoubleValue
0.000

@<SCITEGIC>MOL_PROPERTY
Tether
SciTegic.value.DoubleValue
0.000

@<TRIPOS>MOLECULE
guest-s17_confgen4.mol2 : confsearch ligand conformer 364
          25          25           1
SMALL
USER_CHARGES
 
@<TRIPOS>ATOM
       1    C1      21.389259   20.879353   22.196803 C.3        1 MOL1        -0.1684
       2    H1      21.994727   20.700365   23.094336 H          1 MOL1         0.0833
       3    H2      21.838850   21.765552   21.728310 H          1 MOL1         0.0833
       4    C2      21.537689   19.691573   21.213518 C.3        1 MOL1        -0.1684
       5    H3      20.701772   19.668115   20.501532 H          1 MOL1         0.0833
       6    H4      22.431217   19.890864   20.606039 H          1 MOL1         0.0833
       7    C3      21.747025   18.303072   21.879704 C.3        1 MOL1        -0.1684
       8    H5      22.373474   18.384324   22.778106 H          1 MOL1         0.0833
       9    H6      22.330345   17.696928   21.172980 H          1 MOL1         0.0833
      10    C4      20.447873   17.512130   22.182699 C.3        1 MOL1        -0.1760
      11    H7      19.694054   17.721933   21.413911 H          1 MOL1         0.0833
      12    H8      20.672930   16.443196   22.073416 H          1 MOL1         0.0833
      13    C5      19.846343   17.693627   23.599225 C.3        1 MOL1         0.1219
      14    H9      20.513638   17.192149   24.314997 H          1 MOL1         0.0790
      15    C6      19.663868   19.151486   24.084409 C.3        1 MOL1        -0.1760
      16    H10     19.045227   19.143220   24.991170 H          1 MOL1         0.0833
      17    H11     20.632242   19.538755   24.418851 H          1 MOL1         0.0833
      18    C7      19.014800   20.105260   23.046864 C.3        1 MOL1        -0.1684
      19    H12     18.109034   20.542971   23.487723 H          1 MOL1         0.0833
      20    H13     18.658171   19.548208   22.172439 H          1 MOL1         0.0833
      21    C8      19.935785   21.260229   22.584678 C.3        1 MOL1        -0.1684
      22    H14     19.981690   22.014608   23.381887 H          1 MOL1         0.0833
      23    H15     19.459099   21.758295   21.729451 H          1 MOL1         0.0833
      24    O1      18.579006   17.047440   23.619236 O.3        1 MOL1        -0.5508
      25    H16     18.212593   17.173668   24.518639 H          1 MOL1         0.3780
@<TRIPOS>BOND
    1     1     2    1
    2     1     3    1
    3     1     4    1
    4     4     5    1
    5     4     6    1
    6     4     7    1
    7     7     8    1
    8     7     9    1
    9     7    10    1
   10    10    11    1
   11    10    12    1
   12    10    13    1
   13    13    14    1
   14    13    15    1
   15    15    16    1
   16    15    17    1
   17    15    18    1
   18    18    19    1
   19    18    20    1
   20     1    21    1
   21    18    21    1
   22    21    22    1
   23    21    23    1
   24    13    24    1
   25    24    25    1
@<TRIPOS>SUBSTRUCTURE
       1 MOL1            1 RESIDUE      1      MOL     
@<SCITEGIC>MOL_PROPERTY
VConf Rank
SciTegic.value.IntegerValue
364

@<SCITEGIC>MOL_PROPERTY
Conf_Id
SciTegic.value.IntegerValue
155

@<SCITEGIC>MOL_PROPERTY
Delta U+W
SciTegic.value.DoubleValue
0.339

@<SCITEGIC>MOL_PROPERTY
U+W
SciTegic.value.DoubleValue
11.252

@<SCITEGIC>MOL_PROPERTY
Grad RMS
SciTegic.value.DoubleValue
0.000000

@<SCITEGIC>MOL_PROPERTY
U
SciTegic.value.DoubleValue
13.420

@<SCITEGIC>MOL_PROPERTY
W
SciTegic.value.DoubleValue
-2.167

@<SCITEGIC>MOL_PROPERTY
W(PB)
SciTegic.value.DoubleValue
-4.325

@<SCITEGIC>MOL_PROPERTY
W(SA)
SciTegic.value.DoubleValue
2.157

@<SCITEGIC>MOL_PROPERTY
Valence
SciTegic.value.DoubleValue
18.609

@<SCITEGIC>MOL_PROPERTY
Coulomb
SciTegic.value.DoubleValue
-8.052

@<SCITEGIC>MOL_PROPERTY
VdW
SciTegic.value.DoubleValue
2.863

@<SCITEGIC>MOL_PROPERTY
VdW6
SciTegic.value.DoubleValue
-12.524

@<SCITEGIC>MOL_PROPERTY
VdW12
SciTegic.value.DoubleValue
15.387

@<SCITEGIC>MOL_PROPERTY
Bond
SciTegic.value.DoubleValue
0.430

@<SCITEGIC>MOL_PROPERTY
Angle
SciTegic.value.DoubleValue
4.724

@<SCITEGIC>MOL_PROPERTY
Pdih
SciTegic.value.DoubleValue
13.455

@<SCITEGIC>MOL_PROPERTY
Idih
SciTegic.value.DoubleValue
0.000

@<SCITEGIC>MOL_PROPERTY
Tether
SciTegic.value.DoubleValue
0.000

@<TRIPOS>MOLECULE
guest-s17_confgen4.mol2 : confsearch ligand conformer 365
          25          25           1
SMALL
USER_CHARGES
 
@<TRIPOS>ATOM
       1    C1      21.682989   18.922062   21.203372 C.3        1 MOL1        -0.1684
       2    H1      22.531866   18.282657   21.480696 H          1 MOL1         0.0833
       3    H2      21.848012   19.186286   20.149932 H          1 MOL1         0.0833
       4    C2      20.375650   18.088684   21.259619 C.3        1 MOL1        -0.1684
       5    H3      19.546904   18.689607   20.872048 H          1 MOL1         0.0833
       6    H4      20.468423   17.275985   20.526386 H          1 MOL1         0.0833
       7    C3      19.996419   17.435209   22.620636 C.3        1 MOL1        -0.1684
       8    H5      20.510046   16.465757   22.674521 H          1 MOL1         0.0833
       9    H6      18.923556   17.199288   22.615611 H          1 MOL1         0.0833
      10    C4      20.341671   18.204767   23.924663 C.3        1 MOL1        -0.1760
      11    H7      20.132017   17.532879   24.767225 H          1 MOL1         0.0833
      12    H8      21.424532   18.345395   23.982890 H          1 MOL1         0.0833
      13    C5      19.606860   19.550694   24.194547 C.3        1 MOL1         0.1219
      14    H9      20.231318   20.141629   24.879832 H          1 MOL1         0.0790
      15    C6      19.265142   20.441754   22.973982 C.3        1 MOL1        -0.1760
      16    H10     18.591722   19.893497   22.308821 H          1 MOL1         0.0833
      17    H11     18.649064   21.275296   23.336311 H          1 MOL1         0.0833
      18    C7      20.447601   21.066193   22.173876 C.3        1 MOL1        -0.1684
      19    H12     20.718286   22.008669   22.669159 H          1 MOL1         0.0833
      20    H13     20.088988   21.352624   21.176040 H          1 MOL1         0.0833
      21    C8      21.752650   20.239971   22.029327 C.3        1 MOL1        -0.1684
      22    H14     22.178054   20.056119   23.020895 H          1 MOL1         0.0833
      23    H15     22.500079   20.883647   21.545686 H          1 MOL1         0.0833
      24    O1      18.377193   19.252952   24.846815 O.3        1 MOL1        -0.5508
      25    H16     18.599683   18.733252   25.646598 H          1 MOL1         0.3780
@<TRIPOS>BOND
    1     1     2    1
    2     1     3    1
    3     1     4    1
    4     4     5    1
    5     4     6    1
    6     4     7    1
    7     7     8    1
    8     7     9    1
    9     7    10    1
   10    10    11    1
   11    10    12    1
   12    10    13    1
   13    13    14    1
   14    13    15    1
   15    15    16    1
   16    15    17    1
   17    15    18    1
   18    18    19    1
   19    18    20    1
   20     1    21    1
   21    18    21    1
   22    21    22    1
   23    21    23    1
   24    13    24    1
   25    24    25    1
@<TRIPOS>SUBSTRUCTURE
       1 MOL1            1 RESIDUE      1      MOL     
@<SCITEGIC>MOL_PROPERTY
VConf Rank
SciTegic.value.IntegerValue
365

@<SCITEGIC>MOL_PROPERTY
Conf_Id
SciTegic.value.IntegerValue
146

@<SCITEGIC>MOL_PROPERTY
Delta U+W
SciTegic.value.DoubleValue
2.553

@<SCITEGIC>MOL_PROPERTY
U+W
SciTegic.value.DoubleValue
13.466

@<SCITEGIC>MOL_PROPERTY
Grad RMS
SciTegic.value.DoubleValue
0.000000

@<SCITEGIC>MOL_PROPERTY
U
SciTegic.value.DoubleValue
15.643

@<SCITEGIC>MOL_PROPERTY
W
SciTegic.value.DoubleValue
-2.176

@<SCITEGIC>MOL_PROPERTY
W(PB)
SciTegic.value.DoubleValue
-4.307

@<SCITEGIC>MOL_PROPERTY
W(SA)
SciTegic.value.DoubleValue
2.131

@<SCITEGIC>MOL_PROPERTY
Valence
SciTegic.value.DoubleValue
18.916

@<SCITEGIC>MOL_PROPERTY
Coulomb
SciTegic.value.DoubleValue
-7.506

@<SCITEGIC>MOL_PROPERTY
VdW
SciTegic.value.DoubleValue
4.232

@<SCITEGIC>MOL_PROPERTY
VdW6
SciTegic.value.DoubleValue
-13.632

@<SCITEGIC>MOL_PROPERTY
VdW12
SciTegic.value.DoubleValue
17.864

@<SCITEGIC>MOL_PROPERTY
Bond
SciTegic.value.DoubleValue
0.735

@<SCITEGIC>MOL_PROPERTY
Angle
SciTegic.value.DoubleValue
9.140

@<SCITEGIC>MOL_PROPERTY
Pdih
SciTegic.value.DoubleValue
9.042

@<SCITEGIC>MOL_PROPERTY
Idih
SciTegic.value.DoubleValue
0.000

@<SCITEGIC>MOL_PROPERTY
Tether
SciTegic.value.DoubleValue
0.000

@<TRIPOS>MOLECULE
guest-s17_confgen4.mol2 : confsearch ligand conformer 366
          25          25           1
SMALL
USER_CHARGES
 
@<TRIPOS>ATOM
       1    C1      19.826403   17.281183   22.245961 C.3        1 MOL1        -0.1684
       2    H1      19.399785   16.967348   21.283667 H          1 MOL1         0.0833
       3    H2      19.905362   16.365401   22.847643 H          1 MOL1         0.0833
       4    C2      18.827948   18.222329   22.965317 C.3        1 MOL1        -0.1684
       5    H3      17.903876   17.651786   23.130759 H          1 MOL1         0.0833
       6    H4      19.187836   18.461862   23.972417 H          1 MOL1         0.0833
       7    C3      18.439779   19.515071   22.204708 C.3        1 MOL1        -0.1684
       8    H5      17.646908   20.011978   22.780399 H          1 MOL1         0.0833
       9    H6      17.985033   19.247100   21.241463 H          1 MOL1         0.0833
      10    C4      19.567281   20.551282   21.958317 C.3        1 MOL1        -0.1760
      11    H7      20.160896   20.266716   21.083838 H          1 MOL1         0.0833
      12    H8      19.082284   21.492455   21.665902 H          1 MOL1         0.0833
      13    C5      20.495105   20.815658   23.172122 C.3        1 MOL1         0.1219
      14    H9      19.992422   20.498842   24.095800 H          1 MOL1         0.0790
      15    C6      21.877497   20.121712   23.076234 C.3        1 MOL1        -0.1760
      16    H10     22.363433   20.414551   22.136111 H          1 MOL1         0.0833
      17    H11     22.513931   20.522087   23.876229 H          1 MOL1         0.0833
      18    C7      21.896306   18.574070   23.202940 C.3        1 MOL1        -0.1684
      19    H12     21.450774   18.255405   24.154125 H          1 MOL1         0.0833
      20    H13     22.950340   18.270420   23.264511 H          1 MOL1         0.0833
      21    C8      21.262563   17.815372   22.008272 C.3        1 MOL1        -0.1684
      22    H14     21.895814   16.946918   21.780632 H          1 MOL1         0.0833
      23    H15     21.301961   18.426577   21.099592 H          1 MOL1         0.0833
      24    O1      20.729838   22.217037   23.252049 O.3        1 MOL1        -0.5508
      25    H16     21.267719   22.368736   24.056966 H          1 MOL1         0.3780
@<TRIPOS>BOND
    1     1     2    1
    2     1     3    1
    3     1     4    1
    4     4     5    1
    5     4     6    1
    6     4     7    1
    7     7     8    1
    8     7     9    1
    9     7    10    1
   10    10    11    1
   11    10    12    1
   12    10    13    1
   13    13    14    1
   14    13    15    1
   15    15    16    1
   16    15    17    1
   17    15    18    1
   18    18    19    1
   19    18    20    1
   20     1    21    1
   21    18    21    1
   22    21    22    1
   23    21    23    1
   24    13    24    1
   25    24    25    1
@<TRIPOS>SUBSTRUCTURE
       1 MOL1            1 RESIDUE      1      MOL     
@<SCITEGIC>MOL_PROPERTY
VConf Rank
SciTegic.value.IntegerValue
366

@<SCITEGIC>MOL_PROPERTY
Conf_Id
SciTegic.value.IntegerValue
62

@<SCITEGIC>MOL_PROPERTY
Delta U+W
SciTegic.value.DoubleValue
-1.779

@<SCITEGIC>MOL_PROPERTY
U+W
SciTegic.value.DoubleValue
9.134

@<SCITEGIC>MOL_PROPERTY
Grad RMS
SciTegic.value.DoubleValue
0.000000

@<SCITEGIC>MOL_PROPERTY
U
SciTegic.value.DoubleValue
11.364

@<SCITEGIC>MOL_PROPERTY
W
SciTegic.value.DoubleValue
-2.230

@<SCITEGIC>MOL_PROPERTY
W(PB)
SciTegic.value.DoubleValue
-4.359

@<SCITEGIC>MOL_PROPERTY
W(SA)
SciTegic.value.DoubleValue
2.129

@<SCITEGIC>MOL_PROPERTY
Valence
SciTegic.value.DoubleValue
16.582

@<SCITEGIC>MOL_PROPERTY
Coulomb
SciTegic.value.DoubleValue
-8.150

@<SCITEGIC>MOL_PROPERTY
VdW
SciTegic.value.DoubleValue
2.933

@<SCITEGIC>MOL_PROPERTY
VdW6
SciTegic.value.DoubleValue
-12.531

@<SCITEGIC>MOL_PROPERTY
VdW12
SciTegic.value.DoubleValue
15.464

@<SCITEGIC>MOL_PROPERTY
Bond
SciTegic.value.DoubleValue
0.439

@<SCITEGIC>MOL_PROPERTY
Angle
SciTegic.value.DoubleValue
5.099

@<SCITEGIC>MOL_PROPERTY
Pdih
SciTegic.value.DoubleValue
11.044

@<SCITEGIC>MOL_PROPERTY
Idih
SciTegic.value.DoubleValue
0.000

@<SCITEGIC>MOL_PROPERTY
Tether
SciTegic.value.DoubleValue
0.000

@<TRIPOS>MOLECULE
guest-s17_confgen4.mol2 : confsearch ligand conformer 367
          25          25           1
SMALL
USER_CHARGES
 
@<TRIPOS>ATOM
       1    C1      18.623804   19.276668   23.333709 C.3        1 MOL1        -0.1684
       2    H1      19.151382   20.075151   23.867759 H          1 MOL1         0.0833
       3    H2      17.601195   19.305225   23.733829 H          1 MOL1         0.0833
       4    C2      19.222391   17.895403   23.699026 C.3        1 MOL1        -0.1684
       5    H3      19.109159   17.764459   24.783885 H          1 MOL1         0.0833
       6    H4      18.615203   17.103812   23.239460 H          1 MOL1         0.0833
       7    C3      20.712490   17.655393   23.345870 C.3        1 MOL1        -0.1684
       8    H5      20.815295   17.350197   22.298359 H          1 MOL1         0.0833
       9    H6      21.044260   16.779844   23.920647 H          1 MOL1         0.0833
      10    C4      21.668228   18.835912   23.665639 C.3        1 MOL1        -0.1760
      11    H7      21.253634   19.477023   24.453256 H          1 MOL1         0.0833
      12    H8      22.582682   18.405576   24.094509 H          1 MOL1         0.0833
      13    C5      22.088981   19.685295   22.439707 C.3        1 MOL1         0.1219
      14    H9      22.490632   19.007763   21.672499 H          1 MOL1         0.0790
      15    C6      20.980558   20.548442   21.786802 C.3        1 MOL1        -0.1760
      16    H10     20.548770   21.239396   22.520921 H          1 MOL1         0.0833
      17    H11     21.471282   21.188995   21.042026 H          1 MOL1         0.0833
      18    C7      19.872963   19.747426   21.051155 C.3        1 MOL1        -0.1684
      19    H12     20.248373   18.764151   20.745896 H          1 MOL1         0.0833
      20    H13     19.648664   20.261120   20.106296 H          1 MOL1         0.0833
      21    C8      18.535838   19.604541   21.822259 C.3        1 MOL1        -0.1684
      22    H14     17.914940   18.848842   21.322373 H          1 MOL1         0.0833
      23    H15     17.988341   20.551766   21.722796 H          1 MOL1         0.0833
      24    O1      23.124559   20.565049   22.859277 O.3        1 MOL1        -0.5508
      25    H16     23.848570   20.004283   23.207842 H          1 MOL1         0.3780
@<TRIPOS>BOND
    1     1     2    1
    2     1     3    1
    3     1     4    1
    4     4     5    1
    5     4     6    1
    6     4     7    1
    7     7     8    1
    8     7     9    1
    9     7    10    1
   10    10    11    1
   11    10    12    1
   12    10    13    1
   13    13    14    1
   14    13    15    1
   15    15    16    1
   16    15    17    1
   17    15    18    1
   18    18    19    1
   19    18    20    1
   20     1    21    1
   21    18    21    1
   22    21    22    1
   23    21    23    1
   24    13    24    1
   25    24    25    1
@<TRIPOS>SUBSTRUCTURE
       1 MOL1            1 RESIDUE      1      MOL     
@<SCITEGIC>MOL_PROPERTY
VConf Rank
SciTegic.value.IntegerValue
367

@<SCITEGIC>MOL_PROPERTY
Conf_Id
SciTegic.value.IntegerValue
121

@<SCITEGIC>MOL_PROPERTY
Delta U+W
SciTegic.value.DoubleValue
-1.283

@<SCITEGIC>MOL_PROPERTY
U+W
SciTegic.value.DoubleValue
9.630

@<SCITEGIC>MOL_PROPERTY
Grad RMS
SciTegic.value.DoubleValue
0.000000

@<SCITEGIC>MOL_PROPERTY
U
SciTegic.value.DoubleValue
11.876

@<SCITEGIC>MOL_PROPERTY
W
SciTegic.value.DoubleValue
-2.246

@<SCITEGIC>MOL_PROPERTY
W(PB)
SciTegic.value.DoubleValue
-4.376

@<SCITEGIC>MOL_PROPERTY
W(SA)
SciTegic.value.DoubleValue
2.130

@<SCITEGIC>MOL_PROPERTY
Valence
SciTegic.value.DoubleValue
17.153

@<SCITEGIC>MOL_PROPERTY
Coulomb
SciTegic.value.DoubleValue
-7.966

@<SCITEGIC>MOL_PROPERTY
VdW
SciTegic.value.DoubleValue
2.689

@<SCITEGIC>MOL_PROPERTY
VdW6
SciTegic.value.DoubleValue
-12.458

@<SCITEGIC>MOL_PROPERTY
VdW12
SciTegic.value.DoubleValue
15.147

@<SCITEGIC>MOL_PROPERTY
Bond
SciTegic.value.DoubleValue
0.421

@<SCITEGIC>MOL_PROPERTY
Angle
SciTegic.value.DoubleValue
5.258

@<SCITEGIC>MOL_PROPERTY
Pdih
SciTegic.value.DoubleValue
11.475

@<SCITEGIC>MOL_PROPERTY
Idih
SciTegic.value.DoubleValue
0.000

@<SCITEGIC>MOL_PROPERTY
Tether
SciTegic.value.DoubleValue
0.000

@<TRIPOS>MOLECULE
guest-s17_confgen4.mol2 : confsearch ligand conformer 368
          25          25           1
SMALL
USER_CHARGES
 
@<TRIPOS>ATOM
       1    C1      20.512796   21.067898   22.246401 C.3        1 MOL1        -0.1684
       2    H1      20.052189   20.625544   21.355734 H          1 MOL1         0.0833
       3    H2      20.598004   22.137531   22.011315 H          1 MOL1         0.0833
       4    C2      21.950170   20.522995   22.438129 C.3        1 MOL1        -0.1684
       5    H3      22.525741   20.791651   21.541790 H          1 MOL1         0.0833
       6    H4      22.431722   21.053990   23.270376 H          1 MOL1         0.0833
       7    C3      22.103558   18.996396   22.659240 C.3        1 MOL1        -0.1684
       8    H5      21.940189   18.741558   23.712480 H          1 MOL1         0.0833
       9    H6      23.157816   18.747016   22.476761 H          1 MOL1         0.0833
      10    C4      21.228348   18.101917   21.740825 C.3        1 MOL1        -0.1760
      11    H7      20.962443   18.625364   20.814495 H          1 MOL1         0.0833
      12    H8      21.847755   17.252305   21.424114 H          1 MOL1         0.0833
      13    C5      19.963694   17.512025   22.413575 C.3        1 MOL1         0.1219
      14    H9      20.274492   17.000963   23.336181 H          1 MOL1         0.0790
      15    C6      18.840390   18.518119   22.770438 C.3        1 MOL1        -0.1760
      16    H10     18.507183   19.055815   21.874275 H          1 MOL1         0.0833
      17    H11     17.970220   17.934023   23.097517 H          1 MOL1         0.0833
      18    C7      19.187065   19.505114   23.917157 C.3        1 MOL1        -0.1684
      19    H12     19.967895   19.086387   24.562111 H          1 MOL1         0.0833
      20    H13     18.308829   19.593292   24.571335 H          1 MOL1         0.0833
      21    C8      19.565409   20.938743   23.465184 C.3        1 MOL1        -0.1684
      22    H14     19.996378   21.479448   24.318647 H          1 MOL1         0.0833
      23    H15     18.635768   21.468747   23.216684 H          1 MOL1         0.0833
      24    O1      19.414123   16.550195   21.521792 O.3        1 MOL1        -0.5508
      25    H16     18.656386   16.135539   21.984440 H          1 MOL1         0.3780
@<TRIPOS>BOND
    1     1     2    1
    2     1     3    1
    3     1     4    1
    4     4     5    1
    5     4     6    1
    6     4     7    1
    7     7     8    1
    8     7     9    1
    9     7    10    1
   10    10    11    1
   11    10    12    1
   12    10    13    1
   13    13    14    1
   14    13    15    1
   15    15    16    1
   16    15    17    1
   17    15    18    1
   18    18    19    1
   19    18    20    1
   20     1    21    1
   21    18    21    1
   22    21    22    1
   23    21    23    1
   24    13    24    1
   25    24    25    1
@<TRIPOS>SUBSTRUCTURE
       1 MOL1            1 RESIDUE      1      MOL     
@<SCITEGIC>MOL_PROPERTY
VConf Rank
SciTegic.value.IntegerValue
368

@<SCITEGIC>MOL_PROPERTY
Conf_Id
SciTegic.value.IntegerValue
24

@<SCITEGIC>MOL_PROPERTY
Delta U+W
SciTegic.value.DoubleValue
-1.236

@<SCITEGIC>MOL_PROPERTY
U+W
SciTegic.value.DoubleValue
9.678

@<SCITEGIC>MOL_PROPERTY
Grad RMS
SciTegic.value.DoubleValue
0.000000

@<SCITEGIC>MOL_PROPERTY
U
SciTegic.value.DoubleValue
11.876

@<SCITEGIC>MOL_PROPERTY
W
SciTegic.value.DoubleValue
-2.199

@<SCITEGIC>MOL_PROPERTY
W(PB)
SciTegic.value.DoubleValue
-4.335

@<SCITEGIC>MOL_PROPERTY
W(SA)
SciTegic.value.DoubleValue
2.137

@<SCITEGIC>MOL_PROPERTY
Valence
SciTegic.value.DoubleValue
17.153

@<SCITEGIC>MOL_PROPERTY
Coulomb
SciTegic.value.DoubleValue
-7.966

@<SCITEGIC>MOL_PROPERTY
VdW
SciTegic.value.DoubleValue
2.689

@<SCITEGIC>MOL_PROPERTY
VdW6
SciTegic.value.DoubleValue
-12.458

@<SCITEGIC>MOL_PROPERTY
VdW12
SciTegic.value.DoubleValue
15.147

@<SCITEGIC>MOL_PROPERTY
Bond
SciTegic.value.DoubleValue
0.421

@<SCITEGIC>MOL_PROPERTY
Angle
SciTegic.value.DoubleValue
5.258

@<SCITEGIC>MOL_PROPERTY
Pdih
SciTegic.value.DoubleValue
11.475

@<SCITEGIC>MOL_PROPERTY
Idih
SciTegic.value.DoubleValue
0.000

@<SCITEGIC>MOL_PROPERTY
Tether
SciTegic.value.DoubleValue
0.000

@<TRIPOS>MOLECULE
guest-s17_confgen4.mol2 : confsearch ligand conformer 369
          25          25           1
SMALL
USER_CHARGES
 
@<TRIPOS>ATOM
       1    C1      21.683854   19.003288   21.048170 C.3        1 MOL1        -0.1684
       2    H1      22.191652   19.866441   20.596634 H          1 MOL1         0.0833
       3    H2      22.015068   18.128804   20.471604 H          1 MOL1         0.0833
       4    C2      22.186326   18.831862   22.506366 C.3        1 MOL1        -0.1684
       5    H3      21.965938   17.821962   22.874910 H          1 MOL1         0.0833
       6    H4      23.283288   18.884106   22.474581 H          1 MOL1         0.0833
       7    C3      21.689123   19.887141   23.525107 C.3        1 MOL1        -0.1684
       8    H5      21.584554   20.870961   23.048012 H          1 MOL1         0.0833
       9    H6      22.485665   20.009198   24.271985 H          1 MOL1         0.0833
      10    C4      20.398810   19.499247   24.301354 C.3        1 MOL1        -0.1760
      11    H7      20.383599   18.424070   24.520997 H          1 MOL1         0.0833
      12    H8      20.458952   19.998498   25.278125 H          1 MOL1         0.0833
      13    C5      19.074432   19.935203   23.628269 C.3        1 MOL1         0.1219
      14    H9      19.266681   20.836671   23.031553 H          1 MOL1         0.0790
      15    C6      18.399623   18.863852   22.734598 C.3        1 MOL1        -0.1760
      16    H10     17.971163   18.077190   23.369385 H          1 MOL1         0.0833
      17    H11     17.549285   19.340353   22.229133 H          1 MOL1         0.0833
      18    C7      19.288664   18.187738   21.660766 C.3        1 MOL1        -0.1684
      19    H12     18.632089   17.642952   20.968758 H          1 MOL1         0.0833
      20    H13     19.907248   17.412434   22.127617 H          1 MOL1         0.0833
      21    C8      20.158719   19.177374   20.845305 C.3        1 MOL1        -0.1684
      22    H14     19.875858   20.215861   21.053129 H          1 MOL1         0.0833
      23    H15     19.941010   19.038608   19.777495 H          1 MOL1         0.0833
      24    O1      18.145842   20.278064   24.648992 O.3        1 MOL1        -0.5508
      25    H16     18.005419   19.467048   25.179565 H          1 MOL1         0.3780
@<TRIPOS>BOND
    1     1     2    1
    2     1     3    1
    3     1     4    1
    4     4     5    1
    5     4     6    1
    6     4     7    1
    7     7     8    1
    8     7     9    1
    9     7    10    1
   10    10    11    1
   11    10    12    1
   12    10    13    1
   13    13    14    1
   14    13    15    1
   15    15    16    1
   16    15    17    1
   17    15    18    1
   18    18    19    1
   19    18    20    1
   20     1    21    1
   21    18    21    1
   22    21    22    1
   23    21    23    1
   24    13    24    1
   25    24    25    1
@<TRIPOS>SUBSTRUCTURE
       1 MOL1            1 RESIDUE      1      MOL     
@<SCITEGIC>MOL_PROPERTY
VConf Rank
SciTegic.value.IntegerValue
369

@<SCITEGIC>MOL_PROPERTY
Conf_Id
SciTegic.value.IntegerValue
167

@<SCITEGIC>MOL_PROPERTY
Delta U+W
SciTegic.value.DoubleValue
0.388

@<SCITEGIC>MOL_PROPERTY
U+W
SciTegic.value.DoubleValue
11.301

@<SCITEGIC>MOL_PROPERTY
Grad RMS
SciTegic.value.DoubleValue
0.000000

@<SCITEGIC>MOL_PROPERTY
U
SciTegic.value.DoubleValue
13.202

@<SCITEGIC>MOL_PROPERTY
W
SciTegic.value.DoubleValue
-1.901

@<SCITEGIC>MOL_PROPERTY
W(PB)
SciTegic.value.DoubleValue
-4.065

@<SCITEGIC>MOL_PROPERTY
W(SA)
SciTegic.value.DoubleValue
2.163

@<SCITEGIC>MOL_PROPERTY
Valence
SciTegic.value.DoubleValue
18.957

@<SCITEGIC>MOL_PROPERTY
Coulomb
SciTegic.value.DoubleValue
-8.753

@<SCITEGIC>MOL_PROPERTY
VdW
SciTegic.value.DoubleValue
2.998

@<SCITEGIC>MOL_PROPERTY
VdW6
SciTegic.value.DoubleValue
-12.294

@<SCITEGIC>MOL_PROPERTY
VdW12
SciTegic.value.DoubleValue
15.292

@<SCITEGIC>MOL_PROPERTY
Bond
SciTegic.value.DoubleValue
0.419

@<SCITEGIC>MOL_PROPERTY
Angle
SciTegic.value.DoubleValue
4.543

@<SCITEGIC>MOL_PROPERTY
Pdih
SciTegic.value.DoubleValue
13.996

@<SCITEGIC>MOL_PROPERTY
Idih
SciTegic.value.DoubleValue
0.000

@<SCITEGIC>MOL_PROPERTY
Tether
SciTegic.value.DoubleValue
0.000

@<TRIPOS>MOLECULE
guest-s17_confgen4.mol2 : confsearch ligand conformer 370
          25          25           1
SMALL
USER_CHARGES
 
@<TRIPOS>ATOM
       1    C1      20.134252   17.831245   24.156514 C.3        1 MOL1        -0.1684
       2    H1      21.020136   17.417656   24.657171 H          1 MOL1         0.0833
       3    H2      19.270776   17.363057   24.648578 H          1 MOL1         0.0833
       4    C2      20.136638   17.375390   22.674119 C.3        1 MOL1        -0.1684
       5    H3      21.148833   17.422333   22.256913 H          1 MOL1         0.0833
       6    H4      19.888044   16.305263   22.666095 H          1 MOL1         0.0833
       7    C3      19.132000   18.109931   21.748919 C.3        1 MOL1        -0.1684
       8    H5      18.284186   18.506069   22.322554 H          1 MOL1         0.0833
       9    H6      18.696299   17.360689   21.073858 H          1 MOL1         0.0833
      10    C4      19.757044   19.215624   20.855045 C.3        1 MOL1        -0.1760
      11    H7      20.574947   18.786340   20.261755 H          1 MOL1         0.0833
      12    H8      18.993765   19.523097   20.127962 H          1 MOL1         0.0833
      13    C5      20.263086   20.492002   21.572115 C.3        1 MOL1         0.1219
      14    H9      19.453262   20.901413   22.190762 H          1 MOL1         0.0790
      15    C6      21.527578   20.270338   22.441973 C.3        1 MOL1        -0.1760
      16    H10     22.063382   19.376657   22.106528 H          1 MOL1         0.0833
      17    H11     22.236730   21.091693   22.273385 H          1 MOL1         0.0833
      18    C7      21.267809   20.197302   23.969045 C.3        1 MOL1        -0.1684
      19    H12     21.118407   21.222143   24.335550 H          1 MOL1         0.0833
      20    H13     22.175742   19.832155   24.467921 H          1 MOL1         0.0833
      21    C8      20.054253   19.353507   24.433976 C.3        1 MOL1        -0.1684
      22    H14     19.121680   19.765294   24.031624 H          1 MOL1         0.0833
      23    H15     19.965970   19.481998   25.521412 H          1 MOL1         0.0833
      24    O1      20.577304   21.446756   20.565203 O.3        1 MOL1        -0.5508
      25    H16     20.829889   22.271892   21.029819 H          1 MOL1         0.3780
@<TRIPOS>BOND
    1     1     2    1
    2     1     3    1
    3     1     4    1
    4     4     5    1
    5     4     6    1
    6     4     7    1
    7     7     8    1
    8     7     9    1
    9     7    10    1
   10    10    11    1
   11    10    12    1
   12    10    13    1
   13    13    14    1
   14    13    15    1
   15    15    16    1
   16    15    17    1
   17    15    18    1
   18    18    19    1
   19    18    20    1
   20     1    21    1
   21    18    21    1
   22    21    22    1
   23    21    23    1
   24    13    24    1
   25    24    25    1
@<TRIPOS>SUBSTRUCTURE
       1 MOL1            1 RESIDUE      1      MOL     
@<SCITEGIC>MOL_PROPERTY
VConf Rank
SciTegic.value.IntegerValue
370

@<SCITEGIC>MOL_PROPERTY
Conf_Id
SciTegic.value.IntegerValue
60

@<SCITEGIC>MOL_PROPERTY
Delta U+W
SciTegic.value.DoubleValue
-1.838

@<SCITEGIC>MOL_PROPERTY
U+W
SciTegic.value.DoubleValue
9.075

@<SCITEGIC>MOL_PROPERTY
Grad RMS
SciTegic.value.DoubleValue
0.000000

@<SCITEGIC>MOL_PROPERTY
U
SciTegic.value.DoubleValue
11.150

@<SCITEGIC>MOL_PROPERTY
W
SciTegic.value.DoubleValue
-2.074

@<SCITEGIC>MOL_PROPERTY
W(PB)
SciTegic.value.DoubleValue
-4.196

@<SCITEGIC>MOL_PROPERTY
W(SA)
SciTegic.value.DoubleValue
2.121

@<SCITEGIC>MOL_PROPERTY
Valence
SciTegic.value.DoubleValue
16.582

@<SCITEGIC>MOL_PROPERTY
Coulomb
SciTegic.value.DoubleValue
-8.361

@<SCITEGIC>MOL_PROPERTY
VdW
SciTegic.value.DoubleValue
2.928

@<SCITEGIC>MOL_PROPERTY
VdW6
SciTegic.value.DoubleValue
-12.539

@<SCITEGIC>MOL_PROPERTY
VdW12
SciTegic.value.DoubleValue
15.467

@<SCITEGIC>MOL_PROPERTY
Bond
SciTegic.value.DoubleValue
0.441

@<SCITEGIC>MOL_PROPERTY
Angle
SciTegic.value.DoubleValue
5.093

@<SCITEGIC>MOL_PROPERTY
Pdih
SciTegic.value.DoubleValue
11.049

@<SCITEGIC>MOL_PROPERTY
Idih
SciTegic.value.DoubleValue
0.000

@<SCITEGIC>MOL_PROPERTY
Tether
SciTegic.value.DoubleValue
0.000

@<TRIPOS>MOLECULE
guest-s17_confgen4.mol2 : confsearch ligand conformer 371
          25          25           1
SMALL
USER_CHARGES
 
@<TRIPOS>ATOM
       1    C1      18.554154   20.101874   22.110508 C.3        1 MOL1        -0.1684
       2    H1      17.595533   19.801441   22.554682 H          1 MOL1         0.0833
       3    H2      18.309595   20.887343   21.382396 H          1 MOL1         0.0833
       4    C2      19.147770   18.908612   21.320313 C.3        1 MOL1        -0.1684
       5    H3      18.430159   18.653111   20.528748 H          1 MOL1         0.0833
       6    H4      20.051005   19.219465   20.783019 H          1 MOL1         0.0833
       7    C3      19.414540   17.616403   22.132655 C.3        1 MOL1        -0.1684
       8    H5      19.718890   16.835608   21.422250 H          1 MOL1         0.0833
       9    H6      18.472472   17.265377   22.575193 H          1 MOL1         0.0833
      10    C4      20.493267   17.696546   23.243819 C.3        1 MOL1        -0.1760
      11    H7      20.069388   18.138984   24.150930 H          1 MOL1         0.0833
      12    H8      20.737308   16.665568   23.532731 H          1 MOL1         0.0833
      13    C5      21.792305   18.442731   22.843279 C.3        1 MOL1         0.1219
      14    H9      21.873192   18.487257   21.748917 H          1 MOL1         0.0790
      15    C6      21.900548   19.877075   23.418034 C.3        1 MOL1        -0.1760
      16    H10     21.787099   19.838405   24.509307 H          1 MOL1         0.0833
      17    H11     22.924694   20.230575   23.239298 H          1 MOL1         0.0833
      18    C7      20.930835   20.941265   22.835448 C.3        1 MOL1        -0.1684
      19    H12     21.054925   21.027367   21.748269 H          1 MOL1         0.0833
      20    H13     21.244193   21.914357   23.237695 H          1 MOL1         0.0833
      21    C8      19.440149   20.739450   23.212241 C.3        1 MOL1        -0.1684
      22    H14     19.009984   21.724071   23.441400 H          1 MOL1         0.0833
      23    H15     19.352940   20.179841   24.150343 H          1 MOL1         0.0833
      24    O1      22.901593   17.703005   23.339715 O.3        1 MOL1        -0.5508
      25    H16     22.862176   16.819960   22.916402 H          1 MOL1         0.3780
@<TRIPOS>BOND
    1     1     2    1
    2     1     3    1
    3     1     4    1
    4     4     5    1
    5     4     6    1
    6     4     7    1
    7     7     8    1
    8     7     9    1
    9     7    10    1
   10    10    11    1
   11    10    12    1
   12    10    13    1
   13    13    14    1
   14    13    15    1
   15    15    16    1
   16    15    17    1
   17    15    18    1
   18    18    19    1
   19    18    20    1
   20     1    21    1
   21    18    21    1
   22    21    22    1
   23    21    23    1
   24    13    24    1
   25    24    25    1
@<TRIPOS>SUBSTRUCTURE
       1 MOL1            1 RESIDUE      1      MOL     
@<SCITEGIC>MOL_PROPERTY
VConf Rank
SciTegic.value.IntegerValue
371

@<SCITEGIC>MOL_PROPERTY
Conf_Id
SciTegic.value.IntegerValue
129

@<SCITEGIC>MOL_PROPERTY
Delta U+W
SciTegic.value.DoubleValue
-1.846

@<SCITEGIC>MOL_PROPERTY
U+W
SciTegic.value.DoubleValue
9.067

@<SCITEGIC>MOL_PROPERTY
Grad RMS
SciTegic.value.DoubleValue
0.000000

@<SCITEGIC>MOL_PROPERTY
U
SciTegic.value.DoubleValue
11.150

@<SCITEGIC>MOL_PROPERTY
W
SciTegic.value.DoubleValue
-2.083

@<SCITEGIC>MOL_PROPERTY
W(PB)
SciTegic.value.DoubleValue
-4.217

@<SCITEGIC>MOL_PROPERTY
W(SA)
SciTegic.value.DoubleValue
2.134

@<SCITEGIC>MOL_PROPERTY
Valence
SciTegic.value.DoubleValue
16.583

@<SCITEGIC>MOL_PROPERTY
Coulomb
SciTegic.value.DoubleValue
-8.361

@<SCITEGIC>MOL_PROPERTY
VdW
SciTegic.value.DoubleValue
2.928

@<SCITEGIC>MOL_PROPERTY
VdW6
SciTegic.value.DoubleValue
-12.539

@<SCITEGIC>MOL_PROPERTY
VdW12
SciTegic.value.DoubleValue
15.467

@<SCITEGIC>MOL_PROPERTY
Bond
SciTegic.value.DoubleValue
0.441

@<SCITEGIC>MOL_PROPERTY
Angle
SciTegic.value.DoubleValue
5.093

@<SCITEGIC>MOL_PROPERTY
Pdih
SciTegic.value.DoubleValue
11.049

@<SCITEGIC>MOL_PROPERTY
Idih
SciTegic.value.DoubleValue
0.000

@<SCITEGIC>MOL_PROPERTY
Tether
SciTegic.value.DoubleValue
0.000

@<TRIPOS>MOLECULE
guest-s17_confgen4.mol2 : confsearch ligand conformer 372
          25          25           1
SMALL
USER_CHARGES
 
@<TRIPOS>ATOM
       1    C1      21.666572   17.748404   23.014645 C.3        1 MOL1        -0.1684
       2    H1      21.776227   17.310701   24.016093 H          1 MOL1         0.0833
       3    H2      22.405851   17.235113   22.384630 H          1 MOL1         0.0833
       4    C2      22.062071   19.245499   23.064674 C.3        1 MOL1        -0.1684
       5    H3      23.112306   19.294425   23.383134 H          1 MOL1         0.0833
       6    H4      22.059948   19.674440   22.056108 H          1 MOL1         0.0833
       7    C3      21.245898   20.135136   24.035589 C.3        1 MOL1        -0.1684
       8    H5      21.714226   21.128926   24.045802 H          1 MOL1         0.0833
       9    H6      21.349460   19.746731   25.057799 H          1 MOL1         0.0833
      10    C4      19.739508   20.323933   23.718700 C.3        1 MOL1        -0.1760
      11    H7      19.165919   19.467100   24.086627 H          1 MOL1         0.0833
      12    H8      19.389615   21.171732   24.323208 H          1 MOL1         0.0833
      13    C5      19.410956   20.589974   22.226772 C.3        1 MOL1         0.1219
      14    H9      20.309544   20.950209   21.708465 H          1 MOL1         0.0790
      15    C6      18.843127   19.362241   21.471033 C.3        1 MOL1        -0.1760
      16    H10     17.962078   18.980695   22.003378 H          1 MOL1         0.0833
      17    H11     18.474766   19.711365   20.497042 H          1 MOL1         0.0833
      18    C7      19.824099   18.188926   21.202619 C.3        1 MOL1        -0.1684
      19    H12     20.696650   18.533256   20.632633 H          1 MOL1         0.0833
      20    H13     19.306917   17.484560   20.536769 H          1 MOL1         0.0833
      21    C8      20.257907   17.402343   22.466598 C.3        1 MOL1        -0.1684
      22    H14     20.262914   16.332231   22.217831 H          1 MOL1         0.0833
      23    H15     19.503090   17.494761   23.255591 H          1 MOL1         0.0833
      24    O1      18.427994   21.615673   22.164396 O.3        1 MOL1        -0.5508
      25    H16     17.637726   21.270038   22.628028 H          1 MOL1         0.3780
@<TRIPOS>BOND
    1     1     2    1
    2     1     3    1
    3     1     4    1
    4     4     5    1
    5     4     6    1
    6     4     7    1
    7     7     8    1
    8     7     9    1
    9     7    10    1
   10    10    11    1
   11    10    12    1
   12    10    13    1
   13    13    14    1
   14    13    15    1
   15    15    16    1
   16    15    17    1
   17    15    18    1
   18    18    19    1
   19    18    20    1
   20     1    21    1
   21    18    21    1
   22    21    22    1
   23    21    23    1
   24    13    24    1
   25    24    25    1
@<TRIPOS>SUBSTRUCTURE
       1 MOL1            1 RESIDUE      1      MOL     
@<SCITEGIC>MOL_PROPERTY
VConf Rank
SciTegic.value.IntegerValue
372

@<SCITEGIC>MOL_PROPERTY
Conf_Id
SciTegic.value.IntegerValue
140

@<SCITEGIC>MOL_PROPERTY
Delta U+W
SciTegic.value.DoubleValue
-1.702

@<SCITEGIC>MOL_PROPERTY
U+W
SciTegic.value.DoubleValue
9.211

@<SCITEGIC>MOL_PROPERTY
Grad RMS
SciTegic.value.DoubleValue
0.000000

@<SCITEGIC>MOL_PROPERTY
U
SciTegic.value.DoubleValue
11.181

@<SCITEGIC>MOL_PROPERTY
W
SciTegic.value.DoubleValue
-1.969

@<SCITEGIC>MOL_PROPERTY
W(PB)
SciTegic.value.DoubleValue
-4.093

@<SCITEGIC>MOL_PROPERTY
W(SA)
SciTegic.value.DoubleValue
2.124

@<SCITEGIC>MOL_PROPERTY
Valence
SciTegic.value.DoubleValue
16.954

@<SCITEGIC>MOL_PROPERTY
Coulomb
SciTegic.value.DoubleValue
-8.661

@<SCITEGIC>MOL_PROPERTY
VdW
SciTegic.value.DoubleValue
2.887

@<SCITEGIC>MOL_PROPERTY
VdW6
SciTegic.value.DoubleValue
-12.561

@<SCITEGIC>MOL_PROPERTY
VdW12
SciTegic.value.DoubleValue
15.448

@<SCITEGIC>MOL_PROPERTY
Bond
SciTegic.value.DoubleValue
0.433

@<SCITEGIC>MOL_PROPERTY
Angle
SciTegic.value.DoubleValue
5.120

@<SCITEGIC>MOL_PROPERTY
Pdih
SciTegic.value.DoubleValue
11.401

@<SCITEGIC>MOL_PROPERTY
Idih
SciTegic.value.DoubleValue
0.000

@<SCITEGIC>MOL_PROPERTY
Tether
SciTegic.value.DoubleValue
0.000

@<TRIPOS>MOLECULE
guest-s17_confgen4.mol2 : confsearch ligand conformer 373
          25          25           1
SMALL
USER_CHARGES
 
@<TRIPOS>ATOM
       1    C1      18.255596   18.896372   22.921319 C.3        1 MOL1        -0.1684
       2    H1      17.779469   19.124986   23.884411 H          1 MOL1         0.0833
       3    H2      17.449630   18.525955   22.273144 H          1 MOL1         0.0833
       4    C2      19.268045   17.739428   23.123497 C.3        1 MOL1        -0.1684
       5    H3      19.823098   17.871011   24.059128 H          1 MOL1         0.0833
       6    H4      18.682857   16.822855   23.280025 H          1 MOL1         0.0833
       7    C3      20.241927   17.493555   21.942121 C.3        1 MOL1        -0.1684
       8    H5      19.813081   17.848319   20.996062 H          1 MOL1         0.0833
       9    H6      20.345030   16.406624   21.819994 H          1 MOL1         0.0833
      10    C4      21.671378   18.064078   22.147514 C.3        1 MOL1        -0.1760
      11    H7      22.090808   17.659007   23.077682 H          1 MOL1         0.0833
      12    H8      22.301652   17.668944   21.339518 H          1 MOL1         0.0833
      13    C5      21.815932   19.606800   22.145229 C.3        1 MOL1         0.1219
      14    H9      21.368149   20.010922   21.227597 H          1 MOL1         0.0790
      15    C6      21.195198   20.306846   23.381836 C.3        1 MOL1        -0.1760
      16    H10     21.115765   19.602743   24.216383 H          1 MOL1         0.0833
      17    H11     21.882627   21.085003   23.740344 H          1 MOL1         0.0833
      18    C7      19.827918   20.994034   23.129666 C.3        1 MOL1        -0.1684
      19    H12     20.019638   21.943593   22.611369 H          1 MOL1         0.0833
      20    H13     19.382252   21.266933   24.095796 H          1 MOL1         0.0833
      21    C8      18.789933   20.206893   22.291058 C.3        1 MOL1        -0.1684
      22    H14     19.175175   20.015854   21.282944 H          1 MOL1         0.0833
      23    H15     17.927198   20.869024   22.135894 H          1 MOL1         0.0833
      24    O1      23.207113   19.900322   22.120314 O.3        1 MOL1        -0.5508
      25    H16     23.583273   19.527516   22.944003 H          1 MOL1         0.3780
@<TRIPOS>BOND
    1     1     2    1
    2     1     3    1
    3     1     4    1
    4     4     5    1
    5     4     6    1
    6     4     7    1
    7     7     8    1
    8     7     9    1
    9     7    10    1
   10    10    11    1
   11    10    12    1
   12    10    13    1
   13    13    14    1
   14    13    15    1
   15    15    16    1
   16    15    17    1
   17    15    18    1
   18    18    19    1
   19    18    20    1
   20     1    21    1
   21    18    21    1
   22    21    22    1
   23    21    23    1
   24    13    24    1
   25    24    25    1
@<TRIPOS>SUBSTRUCTURE
       1 MOL1            1 RESIDUE      1      MOL     
@<SCITEGIC>MOL_PROPERTY
VConf Rank
SciTegic.value.IntegerValue
373

@<SCITEGIC>MOL_PROPERTY
Conf_Id
SciTegic.value.IntegerValue
68

@<SCITEGIC>MOL_PROPERTY
Delta U+W
SciTegic.value.DoubleValue
-1.765

@<SCITEGIC>MOL_PROPERTY
U+W
SciTegic.value.DoubleValue
9.148

@<SCITEGIC>MOL_PROPERTY
Grad RMS
SciTegic.value.DoubleValue
0.000000

@<SCITEGIC>MOL_PROPERTY
U
SciTegic.value.DoubleValue
11.181

@<SCITEGIC>MOL_PROPERTY
W
SciTegic.value.DoubleValue
-2.032

@<SCITEGIC>MOL_PROPERTY
W(PB)
SciTegic.value.DoubleValue
-4.147

@<SCITEGIC>MOL_PROPERTY
W(SA)
SciTegic.value.DoubleValue
2.114

@<SCITEGIC>MOL_PROPERTY
Valence
SciTegic.value.DoubleValue
16.955

@<SCITEGIC>MOL_PROPERTY
Coulomb
SciTegic.value.DoubleValue
-8.661

@<SCITEGIC>MOL_PROPERTY
VdW
SciTegic.value.DoubleValue
2.887

@<SCITEGIC>MOL_PROPERTY
VdW6
SciTegic.value.DoubleValue
-12.561

@<SCITEGIC>MOL_PROPERTY
VdW12
SciTegic.value.DoubleValue
15.448

@<SCITEGIC>MOL_PROPERTY
Bond
SciTegic.value.DoubleValue
0.433

@<SCITEGIC>MOL_PROPERTY
Angle
SciTegic.value.DoubleValue
5.121

@<SCITEGIC>MOL_PROPERTY
Pdih
SciTegic.value.DoubleValue
11.402

@<SCITEGIC>MOL_PROPERTY
Idih
SciTegic.value.DoubleValue
0.000

@<SCITEGIC>MOL_PROPERTY
Tether
SciTegic.value.DoubleValue
0.000

@<TRIPOS>MOLECULE
guest-s17_confgen4.mol2 : confsearch ligand conformer 374
          25          25           1
SMALL
USER_CHARGES
 
@<TRIPOS>ATOM
       1    C1      19.919890   19.796578   24.396067 C.3        1 MOL1        -0.1684
       2    H1      19.816467   20.076943   25.453317 H          1 MOL1         0.0833
       3    H2      19.010787   20.184111   23.922525 H          1 MOL1         0.0833
       4    C2      19.961897   18.248586   24.310877 C.3        1 MOL1        -0.1684
       5    H3      20.995962   17.881089   24.294453 H          1 MOL1         0.0833
       6    H4      19.533783   17.855050   25.243007 H          1 MOL1         0.0833
       7    C3      19.142191   17.638257   23.143750 C.3        1 MOL1        -0.1684
       8    H5      18.101167   17.983103   23.210272 H          1 MOL1         0.0833
       9    H6      19.102362   16.551146   23.296836 H          1 MOL1         0.0833
      10    C4      19.676170   17.893685   21.709116 C.3        1 MOL1        -0.1760
      11    H7      20.705759   17.528233   21.614517 H          1 MOL1         0.0833
      12    H8      19.082916   17.262085   21.034029 H          1 MOL1         0.0833
      13    C5      19.564759   19.365766   21.234297 C.3        1 MOL1         0.1219
      14    H9      18.821827   19.884844   21.850863 H          1 MOL1         0.0790
      15    C6      20.893999   20.159640   21.264777 C.3        1 MOL1        -0.1760
      16    H10     21.499373   19.858923   20.399521 H          1 MOL1         0.0833
      17    H11     20.665751   21.223153   21.116697 H          1 MOL1         0.0833
      18    C7      21.781963   20.005734   22.526480 C.3        1 MOL1        -0.1684
      19    H12     22.707174   20.569731   22.345888 H          1 MOL1         0.0833
      20    H13     22.109829   18.966070   22.640113 H          1 MOL1         0.0833
      21    C8      21.175698   20.527022   23.853447 C.3        1 MOL1        -0.1684
      22    H14     20.950402   21.597537   23.754317 H          1 MOL1         0.0833
      23    H15     21.959354   20.459307   24.620451 H          1 MOL1         0.0833
      24    O1      19.092447   19.374438   19.892831 O.3        1 MOL1        -0.5508
      25    H16     19.758672   18.892105   19.361429 H          1 MOL1         0.3780
@<TRIPOS>BOND
    1     1     2    1
    2     1     3    1
    3     1     4    1
    4     4     5    1
    5     4     6    1
    6     4     7    1
    7     7     8    1
    8     7     9    1
    9     7    10    1
   10    10    11    1
   11    10    12    1
   12    10    13    1
   13    13    14    1
   14    13    15    1
   15    15    16    1
   16    15    17    1
   17    15    18    1
   18    18    19    1
   19    18    20    1
   20     1    21    1
   21    18    21    1
   22    21    22    1
   23    21    23    1
   24    13    24    1
   25    24    25    1
@<TRIPOS>SUBSTRUCTURE
       1 MOL1            1 RESIDUE      1      MOL     
@<SCITEGIC>MOL_PROPERTY
VConf Rank
SciTegic.value.IntegerValue
374

@<SCITEGIC>MOL_PROPERTY
Conf_Id
SciTegic.value.IntegerValue
165

@<SCITEGIC>MOL_PROPERTY
Delta U+W
SciTegic.value.DoubleValue
-1.999

@<SCITEGIC>MOL_PROPERTY
U+W
SciTegic.value.DoubleValue
8.915

@<SCITEGIC>MOL_PROPERTY
Grad RMS
SciTegic.value.DoubleValue
0.000000

@<SCITEGIC>MOL_PROPERTY
U
SciTegic.value.DoubleValue
10.935

@<SCITEGIC>MOL_PROPERTY
W
SciTegic.value.DoubleValue
-2.020

@<SCITEGIC>MOL_PROPERTY
W(PB)
SciTegic.value.DoubleValue
-4.135

@<SCITEGIC>MOL_PROPERTY
W(SA)
SciTegic.value.DoubleValue
2.115

@<SCITEGIC>MOL_PROPERTY
Valence
SciTegic.value.DoubleValue
16.757

@<SCITEGIC>MOL_PROPERTY
Coulomb
SciTegic.value.DoubleValue
-8.731

@<SCITEGIC>MOL_PROPERTY
VdW
SciTegic.value.DoubleValue
2.908

@<SCITEGIC>MOL_PROPERTY
VdW6
SciTegic.value.DoubleValue
-12.597

@<SCITEGIC>MOL_PROPERTY
VdW12
SciTegic.value.DoubleValue
15.506

@<SCITEGIC>MOL_PROPERTY
Bond
SciTegic.value.DoubleValue
0.434

@<SCITEGIC>MOL_PROPERTY
Angle
SciTegic.value.DoubleValue
5.069

@<SCITEGIC>MOL_PROPERTY
Pdih
SciTegic.value.DoubleValue
11.254

@<SCITEGIC>MOL_PROPERTY
Idih
SciTegic.value.DoubleValue
0.000

@<SCITEGIC>MOL_PROPERTY
Tether
SciTegic.value.DoubleValue
0.000

@<TRIPOS>MOLECULE
guest-s17_confgen4.mol2 : confsearch ligand conformer 375
          25          25           1
SMALL
USER_CHARGES
 
@<TRIPOS>ATOM
       1    C1      18.707426   18.333894   22.357063 C.3        1 MOL1        -0.1684
       2    H1      17.708740   17.908823   22.186698 H          1 MOL1         0.0833
       3    H2      19.394772   17.512986   22.123678 H          1 MOL1         0.0833
       4    C2      18.790314   18.709725   23.859505 C.3        1 MOL1        -0.1684
       5    H3      17.833146   19.168967   24.142230 H          1 MOL1         0.0833
       6    H4      18.863577   17.788977   24.453998 H          1 MOL1         0.0833
       7    C3      19.914605   19.686628   24.286085 C.3        1 MOL1        -0.1684
       8    H5      19.763805   19.914819   25.349988 H          1 MOL1         0.0833
       9    H6      19.795292   20.650105   23.777392 H          1 MOL1         0.0833
      10    C4      21.366387   19.165983   24.127065 C.3        1 MOL1        -0.1760
      11    H7      22.035255   19.917683   24.567607 H          1 MOL1         0.0833
      12    H8      21.486745   18.260173   24.735127 H          1 MOL1         0.0833
      13    C5      21.856306   18.866318   22.689031 C.3        1 MOL1         0.1219
      14    H9      21.445558   17.904605   22.360012 H          1 MOL1         0.0790
      15    C6      21.494256   19.952517   21.643433 C.3        1 MOL1        -0.1760
      16    H10     21.311488   20.917672   22.130452 H          1 MOL1         0.0833
      17    H11     22.368233   20.118710   20.999169 H          1 MOL1         0.0833
      18    C7      20.310227   19.581142   20.711153 C.3        1 MOL1        -0.1684
      19    H12     20.528107   18.627935   20.210242 H          1 MOL1         0.0833
      20    H13     20.267823   20.331607   19.910043 H          1 MOL1         0.0833
      21    C8      18.905118   19.509512   21.364916 C.3        1 MOL1        -0.1684
      22    H14     18.179259   19.379704   20.550491 H          1 MOL1         0.0833
      23    H15     18.643076   20.468278   21.830438 H          1 MOL1         0.0833
      24    O1      23.273159   18.741669   22.739069 O.3        1 MOL1        -0.5508
      25    H16     23.470863   18.020157   23.372136 H          1 MOL1         0.3780
@<TRIPOS>BOND
    1     1     2    1
    2     1     3    1
    3     1     4    1
    4     4     5    1
    5     4     6    1
    6     4     7    1
    7     7     8    1
    8     7     9    1
    9     7    10    1
   10    10    11    1
   11    10    12    1
   12    10    13    1
   13    13    14    1
   14    13    15    1
   15    15    16    1
   16    15    17    1
   17    15    18    1
   18    18    19    1
   19    18    20    1
   20     1    21    1
   21    18    21    1
   22    21    22    1
   23    21    23    1
   24    13    24    1
   25    24    25    1
@<TRIPOS>SUBSTRUCTURE
       1 MOL1            1 RESIDUE      1      MOL     
@<SCITEGIC>MOL_PROPERTY
VConf Rank
SciTegic.value.IntegerValue
375

@<SCITEGIC>MOL_PROPERTY
Conf_Id
SciTegic.value.IntegerValue
133

@<SCITEGIC>MOL_PROPERTY
Delta U+W
SciTegic.value.DoubleValue
-2.139

@<SCITEGIC>MOL_PROPERTY
U+W
SciTegic.value.DoubleValue
8.774

@<SCITEGIC>MOL_PROPERTY
Grad RMS
SciTegic.value.DoubleValue
0.000000

@<SCITEGIC>MOL_PROPERTY
U
SciTegic.value.DoubleValue
10.905

@<SCITEGIC>MOL_PROPERTY
W
SciTegic.value.DoubleValue
-2.131

@<SCITEGIC>MOL_PROPERTY
W(PB)
SciTegic.value.DoubleValue
-4.281

@<SCITEGIC>MOL_PROPERTY
W(SA)
SciTegic.value.DoubleValue
2.150

@<SCITEGIC>MOL_PROPERTY
Valence
SciTegic.value.DoubleValue
16.378

@<SCITEGIC>MOL_PROPERTY
Coulomb
SciTegic.value.DoubleValue
-8.448

@<SCITEGIC>MOL_PROPERTY
VdW
SciTegic.value.DoubleValue
2.976

@<SCITEGIC>MOL_PROPERTY
VdW6
SciTegic.value.DoubleValue
-12.570

@<SCITEGIC>MOL_PROPERTY
VdW12
SciTegic.value.DoubleValue
15.545

@<SCITEGIC>MOL_PROPERTY
Bond
SciTegic.value.DoubleValue
0.439

@<SCITEGIC>MOL_PROPERTY
Angle
SciTegic.value.DoubleValue
5.049

@<SCITEGIC>MOL_PROPERTY
Pdih
SciTegic.value.DoubleValue
10.889

@<SCITEGIC>MOL_PROPERTY
Idih
SciTegic.value.DoubleValue
0.000

@<SCITEGIC>MOL_PROPERTY
Tether
SciTegic.value.DoubleValue
0.000

@<TRIPOS>MOLECULE
guest-s17_confgen4.mol2 : confsearch ligand conformer 376
          25          25           1
SMALL
USER_CHARGES
 
@<TRIPOS>ATOM
       1    C1      21.653228   19.703618   21.525255 C.3        1 MOL1        -0.1684
       2    H1      22.436962   20.067652   20.846782 H          1 MOL1         0.0833
       3    H2      21.792341   18.616796   21.541652 H          1 MOL1         0.0833
       4    C2      20.277123   20.068078   20.909605 C.3        1 MOL1        -0.1684
       5    H3      19.900848   21.015934   21.315309 H          1 MOL1         0.0833
       6    H4      20.434412   20.258133   19.839021 H          1 MOL1         0.0833
       7    C3      19.199892   18.956917   21.018091 C.3        1 MOL1        -0.1684
       8    H5      19.581570   18.033514   20.561323 H          1 MOL1         0.0833
       9    H6      18.344442   19.259701   20.398978 H          1 MOL1         0.0833
      10    C4      18.664832   18.641828   22.440561 C.3        1 MOL1        -0.1760
      11    H7      18.249725   19.544881   22.903489 H          1 MOL1         0.0833
      12    H8      17.808699   17.964815   22.317188 H          1 MOL1         0.0833
      13    C5      19.694327   17.962957   23.380484 C.3        1 MOL1         0.1219
      14    H9      20.491678   17.518577   22.773348 H          1 MOL1         0.0790
      15    C6      20.321657   18.904264   24.437908 C.3        1 MOL1        -0.1760
      16    H10     19.584918   19.061461   25.237296 H          1 MOL1         0.0833
      17    H11     21.171127   18.390352   24.905896 H          1 MOL1         0.0833
      18    C7      20.786735   20.302009   23.954134 C.3        1 MOL1        -0.1684
      19    H12     21.131759   20.855754   24.837890 H          1 MOL1         0.0833
      20    H13     19.934507   20.881247   23.580658 H          1 MOL1         0.0833
      21    C8      21.941167   20.315624   22.920962 C.3        1 MOL1        -0.1684
      22    H14     22.821569   19.820630   23.352752 H          1 MOL1         0.0833
      23    H15     22.234546   21.363830   22.771973 H          1 MOL1         0.0833
      24    O1      19.041128   16.910429   24.081218 O.3        1 MOL1        -0.5508
      25    H16     19.723177   16.471913   24.631628 H          1 MOL1         0.3780
@<TRIPOS>BOND
    1     1     2    1
    2     1     3    1
    3     1     4    1
    4     4     5    1
    5     4     6    1
    6     4     7    1
    7     7     8    1
    8     7     9    1
    9     7    10    1
   10    10    11    1
   11    10    12    1
   12    10    13    1
   13    13    14    1
   14    13    15    1
   15    15    16    1
   16    15    17    1
   17    15    18    1
   18    18    19    1
   19    18    20    1
   20     1    21    1
   21    18    21    1
   22    21    22    1
   23    21    23    1
   24    13    24    1
   25    24    25    1
@<TRIPOS>SUBSTRUCTURE
       1 MOL1            1 RESIDUE      1      MOL     
@<SCITEGIC>MOL_PROPERTY
VConf Rank
SciTegic.value.IntegerValue
376

@<SCITEGIC>MOL_PROPERTY
Conf_Id
SciTegic.value.IntegerValue
95

@<SCITEGIC>MOL_PROPERTY
Delta U+W
SciTegic.value.DoubleValue
-2.190

@<SCITEGIC>MOL_PROPERTY
U+W
SciTegic.value.DoubleValue
8.723

@<SCITEGIC>MOL_PROPERTY
Grad RMS
SciTegic.value.DoubleValue
0.000000

@<SCITEGIC>MOL_PROPERTY
U
SciTegic.value.DoubleValue
10.905

@<SCITEGIC>MOL_PROPERTY
W
SciTegic.value.DoubleValue
-2.182

@<SCITEGIC>MOL_PROPERTY
W(PB)
SciTegic.value.DoubleValue
-4.296

@<SCITEGIC>MOL_PROPERTY
W(SA)
SciTegic.value.DoubleValue
2.114

@<SCITEGIC>MOL_PROPERTY
Valence
SciTegic.value.DoubleValue
16.377

@<SCITEGIC>MOL_PROPERTY
Coulomb
SciTegic.value.DoubleValue
-8.448

@<SCITEGIC>MOL_PROPERTY
VdW
SciTegic.value.DoubleValue
2.976

@<SCITEGIC>MOL_PROPERTY
VdW6
SciTegic.value.DoubleValue
-12.570

@<SCITEGIC>MOL_PROPERTY
VdW12
SciTegic.value.DoubleValue
15.546

@<SCITEGIC>MOL_PROPERTY
Bond
SciTegic.value.DoubleValue
0.439

@<SCITEGIC>MOL_PROPERTY
Angle
SciTegic.value.DoubleValue
5.049

@<SCITEGIC>MOL_PROPERTY
Pdih
SciTegic.value.DoubleValue
10.889

@<SCITEGIC>MOL_PROPERTY
Idih
SciTegic.value.DoubleValue
0.000

@<SCITEGIC>MOL_PROPERTY
Tether
SciTegic.value.DoubleValue
0.000

@<TRIPOS>MOLECULE
guest-s17_confgen4.mol2 : confsearch ligand conformer 377
          25          25           1
SMALL
USER_CHARGES
 
@<TRIPOS>ATOM
       1    C1      20.198753   20.484514   21.392956 C.3        1 MOL1        -0.1684
       2    H1      20.194654   21.345965   20.711204 H          1 MOL1         0.0833
       3    H2      19.446234   19.816332   20.962278 H          1 MOL1         0.0833
       4    C2      19.747239   21.006416   22.788654 C.3        1 MOL1        -0.1684
       5    H3      20.143003   22.025045   22.901372 H          1 MOL1         0.0833
       6    H4      18.654334   21.116060   22.791674 H          1 MOL1         0.0833
       7    C3      20.185848   20.210779   24.046064 C.3        1 MOL1        -0.1684
       8    H5      19.879950   20.788896   24.928688 H          1 MOL1         0.0833
       9    H6      21.278595   20.207427   24.108679 H          1 MOL1         0.0833
      10    C4      19.615660   18.771603   24.219787 C.3        1 MOL1        -0.1760
      11    H7      20.263859   18.213942   24.908427 H          1 MOL1         0.0833
      12    H8      18.650340   18.868540   24.733618 H          1 MOL1         0.0833
      13    C5      19.375469   17.919104   22.948077 C.3        1 MOL1         0.1219
      14    H9      18.691484   18.470228   22.294438 H          1 MOL1         0.0790
      15    C6      20.633439   17.488627   22.140121 C.3        1 MOL1        -0.1760
      16    H10     21.019714   16.561610   22.584807 H          1 MOL1         0.0833
      17    H11     20.315177   17.218561   21.125201 H          1 MOL1         0.0833
      18    C7      21.828264   18.475981   22.047696 C.3        1 MOL1        -0.1684
      19    H12     22.649559   17.955799   21.536229 H          1 MOL1         0.0833
      20    H13     22.226069   18.657155   23.051189 H          1 MOL1         0.0833
      21    C8      21.596223   19.817819   21.293286 C.3        1 MOL1        -0.1684
      22    H14     21.787227   19.632768   20.227387 H          1 MOL1         0.0833
      23    H15     22.363416   20.538665   21.606716 H          1 MOL1         0.0833
      24    O1      18.706256   16.730586   23.353282 O.3        1 MOL1        -0.5508
      25    H16     17.882314   17.009524   23.804248 H          1 MOL1         0.3780
@<TRIPOS>BOND
    1     1     2    1
    2     1     3    1
    3     1     4    1
    4     4     5    1
    5     4     6    1
    6     4     7    1
    7     7     8    1
    8     7     9    1
    9     7    10    1
   10    10    11    1
   11    10    12    1
   12    10    13    1
   13    13    14    1
   14    13    15    1
   15    15    16    1
   16    15    17    1
   17    15    18    1
   18    18    19    1
   19    18    20    1
   20     1    21    1
   21    18    21    1
   22    21    22    1
   23    21    23    1
   24    13    24    1
   25    24    25    1
@<TRIPOS>SUBSTRUCTURE
       1 MOL1            1 RESIDUE      1      MOL     
@<SCITEGIC>MOL_PROPERTY
VConf Rank
SciTegic.value.IntegerValue
377

@<SCITEGIC>MOL_PROPERTY
Conf_Id
SciTegic.value.IntegerValue
161

@<SCITEGIC>MOL_PROPERTY
Delta U+W
SciTegic.value.DoubleValue
2.120

@<SCITEGIC>MOL_PROPERTY
U+W
SciTegic.value.DoubleValue
13.033

@<SCITEGIC>MOL_PROPERTY
Grad RMS
SciTegic.value.DoubleValue
0.000000

@<SCITEGIC>MOL_PROPERTY
U
SciTegic.value.DoubleValue
15.076

@<SCITEGIC>MOL_PROPERTY
W
SciTegic.value.DoubleValue
-2.043

@<SCITEGIC>MOL_PROPERTY
W(PB)
SciTegic.value.DoubleValue
-4.186

@<SCITEGIC>MOL_PROPERTY
W(SA)
SciTegic.value.DoubleValue
2.143

@<SCITEGIC>MOL_PROPERTY
Valence
SciTegic.value.DoubleValue
18.884

@<SCITEGIC>MOL_PROPERTY
Coulomb
SciTegic.value.DoubleValue
-8.074

@<SCITEGIC>MOL_PROPERTY
VdW
SciTegic.value.DoubleValue
4.266

@<SCITEGIC>MOL_PROPERTY
VdW6
SciTegic.value.DoubleValue
-13.486

@<SCITEGIC>MOL_PROPERTY
VdW12
SciTegic.value.DoubleValue
17.752

@<SCITEGIC>MOL_PROPERTY
Bond
SciTegic.value.DoubleValue
0.713

@<SCITEGIC>MOL_PROPERTY
Angle
SciTegic.value.DoubleValue
8.955

@<SCITEGIC>MOL_PROPERTY
Pdih
SciTegic.value.DoubleValue
9.215

@<SCITEGIC>MOL_PROPERTY
Idih
SciTegic.value.DoubleValue
0.000

@<SCITEGIC>MOL_PROPERTY
Tether
SciTegic.value.DoubleValue
0.000

@<TRIPOS>MOLECULE
guest-s17_confgen4.mol2 : confsearch ligand conformer 378
          25          25           1
SMALL
USER_CHARGES
 
@<TRIPOS>ATOM
       1    C1      21.154991   20.638082   23.705568 C.3        1 MOL1        -0.1684
       2    H1      21.770758   21.467020   24.080644 H          1 MOL1         0.0833
       3    H2      20.637343   20.251006   24.592387 H          1 MOL1         0.0833
       4    C2      22.105485   19.556468   23.134300 C.3        1 MOL1        -0.1684
       5    H3      22.351856   19.768030   22.085143 H          1 MOL1         0.0833
       6    H4      23.055112   19.647368   23.679384 H          1 MOL1         0.0833
       7    C3      21.622696   18.090172   23.313808 C.3        1 MOL1        -0.1684
       8    H5      21.118179   17.954415   24.279893 H          1 MOL1         0.0833
       9    H6      22.523867   17.463830   23.366603 H          1 MOL1         0.0833
      10    C4      20.755548   17.531693   22.155953 C.3        1 MOL1        -0.1760
      11    H7      21.090227   17.956722   21.201852 H          1 MOL1         0.0833
      12    H8      20.961262   16.456232   22.074107 H          1 MOL1         0.0833
      13    C5      19.221008   17.674996   22.318685 C.3        1 MOL1         0.1219
      14    H9      18.900925   16.990086   23.116944 H          1 MOL1         0.0790
      15    C6      18.695761   19.083925   22.679130 C.3        1 MOL1        -0.1760
      16    H10     17.606909   19.092210   22.536244 H          1 MOL1         0.0833
      17    H11     18.831015   19.250072   23.753311 H          1 MOL1         0.0833
      18    C7      19.317485   20.243938   21.856295 C.3        1 MOL1        -0.1684
      19    H12     18.509125   20.797508   21.359461 H          1 MOL1         0.0833
      20    H13     19.940682   19.862262   21.039564 H          1 MOL1         0.0833
      21    C8      20.139788   21.245807   22.701727 C.3        1 MOL1        -0.1684
      22    H14     19.445997   21.886570   23.262875 H          1 MOL1         0.0833
      23    H15     20.676309   21.915487   22.015829 H          1 MOL1         0.0833
      24    O1      18.611609   17.273386   21.099788 O.3        1 MOL1        -0.5508
      25    H16     18.809008   17.982774   20.455108 H          1 MOL1         0.3780
@<TRIPOS>BOND
    1     1     2    1
    2     1     3    1
    3     1     4    1
    4     4     5    1
    5     4     6    1
    6     4     7    1
    7     7     8    1
    8     7     9    1
    9     7    10    1
   10    10    11    1
   11    10    12    1
   12    10    13    1
   13    13    14    1
   14    13    15    1
   15    15    16    1
   16    15    17    1
   17    15    18    1
   18    18    19    1
   19    18    20    1
   20     1    21    1
   21    18    21    1
   22    21    22    1
   23    21    23    1
   24    13    24    1
   25    24    25    1
@<TRIPOS>SUBSTRUCTURE
       1 MOL1            1 RESIDUE      1      MOL     
@<SCITEGIC>MOL_PROPERTY
VConf Rank
SciTegic.value.IntegerValue
378

@<SCITEGIC>MOL_PROPERTY
Conf_Id
SciTegic.value.IntegerValue
164

@<SCITEGIC>MOL_PROPERTY
Delta U+W
SciTegic.value.DoubleValue
0.008

@<SCITEGIC>MOL_PROPERTY
U+W
SciTegic.value.DoubleValue
10.922

@<SCITEGIC>MOL_PROPERTY
Grad RMS
SciTegic.value.DoubleValue
0.000000

@<SCITEGIC>MOL_PROPERTY
U
SciTegic.value.DoubleValue
12.433

@<SCITEGIC>MOL_PROPERTY
W
SciTegic.value.DoubleValue
-1.511

@<SCITEGIC>MOL_PROPERTY
W(PB)
SciTegic.value.DoubleValue
-3.669

@<SCITEGIC>MOL_PROPERTY
W(SA)
SciTegic.value.DoubleValue
2.157

@<SCITEGIC>MOL_PROPERTY
Valence
SciTegic.value.DoubleValue
19.007

@<SCITEGIC>MOL_PROPERTY
Coulomb
SciTegic.value.DoubleValue
-9.373

@<SCITEGIC>MOL_PROPERTY
VdW
SciTegic.value.DoubleValue
2.799

@<SCITEGIC>MOL_PROPERTY
VdW6
SciTegic.value.DoubleValue
-12.597

@<SCITEGIC>MOL_PROPERTY
VdW12
SciTegic.value.DoubleValue
15.396

@<SCITEGIC>MOL_PROPERTY
Bond
SciTegic.value.DoubleValue
0.425

@<SCITEGIC>MOL_PROPERTY
Angle
SciTegic.value.DoubleValue
4.784

@<SCITEGIC>MOL_PROPERTY
Pdih
SciTegic.value.DoubleValue
13.799

@<SCITEGIC>MOL_PROPERTY
Idih
SciTegic.value.DoubleValue
0.000

@<SCITEGIC>MOL_PROPERTY
Tether
SciTegic.value.DoubleValue
0.000

@<TRIPOS>MOLECULE
guest-s17_confgen4.mol2 : confsearch ligand conformer 379
          25          25           1
SMALL
USER_CHARGES
 
@<TRIPOS>ATOM
       1    C1      19.220979   18.877766   21.220454 C.3        1 MOL1        -0.1684
       2    H1      19.777302   17.946907   21.378340 H          1 MOL1         0.0833
       3    H2      18.565941   18.666324   20.364364 H          1 MOL1         0.0833
       4    C2      20.181484   20.015979   20.794284 C.3        1 MOL1        -0.1684
       5    H3      20.668003   19.703218   19.860269 H          1 MOL1         0.0833
       6    H4      19.595143   20.908993   20.538868 H          1 MOL1         0.0833
       7    C3      21.293987   20.414707   21.797336 C.3        1 MOL1        -0.1684
       8    H5      20.904773   21.114094   22.545957 H          1 MOL1         0.0833
       9    H6      22.039847   20.997027   21.239124 H          1 MOL1         0.0833
      10    C4      22.021246   19.229176   22.486094 C.3        1 MOL1        -0.1760
      11    H7      21.955529   18.320330   21.875798 H          1 MOL1         0.0833
      12    H8      23.090289   19.478466   22.521295 H          1 MOL1         0.0833
      13    C5      21.574336   18.947818   23.942659 C.3        1 MOL1         0.1219
      14    H9      21.652066   19.885149   24.511842 H          1 MOL1         0.0790
      15    C6      20.142962   18.385726   24.131598 C.3        1 MOL1        -0.1760
      16    H10     20.015472   17.449132   23.575434 H          1 MOL1         0.0833
      17    H11     20.043835   18.110458   25.190201 H          1 MOL1         0.0833
      18    C7      19.000787   19.384931   23.806317 C.3        1 MOL1        -0.1684
      19    H12     19.354005   20.417721   23.904529 H          1 MOL1         0.0833
      20    H13     18.226801   19.284741   24.579564 H          1 MOL1         0.0833
      21    C8      18.307586   19.174493   22.435932 C.3        1 MOL1        -0.1684
      22    H14     17.682209   20.049977   22.214711 H          1 MOL1         0.0833
      23    H15     17.611532   18.330688   22.537920 H          1 MOL1         0.0833
      24    O1      22.483249   18.007267   24.498034 O.3        1 MOL1        -0.5508
      25    H16     22.389278   17.187720   23.970496 H          1 MOL1         0.3780
@<TRIPOS>BOND
    1     1     2    1
    2     1     3    1
    3     1     4    1
    4     4     5    1
    5     4     6    1
    6     4     7    1
    7     7     8    1
    8     7     9    1
    9     7    10    1
   10    10    11    1
   11    10    12    1
   12    10    13    1
   13    13    14    1
   14    13    15    1
   15    15    16    1
   16    15    17    1
   17    15    18    1
   18    18    19    1
   19    18    20    1
   20     1    21    1
   21    18    21    1
   22    21    22    1
   23    21    23    1
   24    13    24    1
   25    24    25    1
@<TRIPOS>SUBSTRUCTURE
       1 MOL1            1 RESIDUE      1      MOL     
@<SCITEGIC>MOL_PROPERTY
VConf Rank
SciTegic.value.IntegerValue
379

@<SCITEGIC>MOL_PROPERTY
Conf_Id
SciTegic.value.IntegerValue
15

@<SCITEGIC>MOL_PROPERTY
Delta U+W
SciTegic.value.DoubleValue
-1.271

@<SCITEGIC>MOL_PROPERTY
U+W
SciTegic.value.DoubleValue
9.643

@<SCITEGIC>MOL_PROPERTY
Grad RMS
SciTegic.value.DoubleValue
0.000000

@<SCITEGIC>MOL_PROPERTY
U
SciTegic.value.DoubleValue
11.413

@<SCITEGIC>MOL_PROPERTY
W
SciTegic.value.DoubleValue
-1.770

@<SCITEGIC>MOL_PROPERTY
W(PB)
SciTegic.value.DoubleValue
-3.908

@<SCITEGIC>MOL_PROPERTY
W(SA)
SciTegic.value.DoubleValue
2.138

@<SCITEGIC>MOL_PROPERTY
Valence
SciTegic.value.DoubleValue
17.496

@<SCITEGIC>MOL_PROPERTY
Coulomb
SciTegic.value.DoubleValue
-8.736

@<SCITEGIC>MOL_PROPERTY
VdW
SciTegic.value.DoubleValue
2.653

@<SCITEGIC>MOL_PROPERTY
VdW6
SciTegic.value.DoubleValue
-12.485

@<SCITEGIC>MOL_PROPERTY
VdW12
SciTegic.value.DoubleValue
15.138

@<SCITEGIC>MOL_PROPERTY
Bond
SciTegic.value.DoubleValue
0.414

@<SCITEGIC>MOL_PROPERTY
Angle
SciTegic.value.DoubleValue
5.295

@<SCITEGIC>MOL_PROPERTY
Pdih
SciTegic.value.DoubleValue
11.787

@<SCITEGIC>MOL_PROPERTY
Idih
SciTegic.value.DoubleValue
0.000

@<SCITEGIC>MOL_PROPERTY
Tether
SciTegic.value.DoubleValue
0.000

@<TRIPOS>MOLECULE
guest-s17_confgen4.mol2 : confsearch ligand conformer 380
          25          25           1
SMALL
USER_CHARGES
 
@<TRIPOS>ATOM
       1    C1      21.592282   20.582266   23.156092 C.3        1 MOL1        -0.1684
       2    H1      22.161726   21.489178   23.401499 H          1 MOL1         0.0833
       3    H2      22.351696   19.845301   22.865684 H          1 MOL1         0.0833
       4    C2      20.866816   20.137966   24.453445 C.3        1 MOL1        -0.1684
       5    H3      21.628766   19.820910   25.178519 H          1 MOL1         0.0833
       6    H4      20.373465   21.011199   24.901600 H          1 MOL1         0.0833
       7    C3      19.818283   19.008595   24.310512 C.3        1 MOL1        -0.1684
       8    H5      18.885599   19.422577   23.909899 H          1 MOL1         0.0833
       9    H6      19.558436   18.655311   25.317715 H          1 MOL1         0.0833
      10    C4      20.299853   17.799369   23.467115 C.3        1 MOL1        -0.1760
      11    H7      21.369528   17.879380   23.243990 H          1 MOL1         0.0833
      12    H8      20.206107   16.891532   24.077230 H          1 MOL1         0.0833
      13    C5      19.501935   17.568795   22.163110 C.3        1 MOL1         0.1219
      14    H9      18.523299   17.152231   22.441631 H          1 MOL1         0.0790
      15    C6      19.232574   18.818281   21.285210 C.3        1 MOL1        -0.1760
      16    H10     18.815679   18.458424   20.334929 H          1 MOL1         0.0833
      17    H11     18.428682   19.420078   21.725790 H          1 MOL1         0.0833
      18    C7      20.449218   19.726091   20.961636 C.3        1 MOL1        -0.1684
      19    H12     20.257987   20.171711   19.975738 H          1 MOL1         0.0833
      20    H13     21.364699   19.133397   20.837455 H          1 MOL1         0.0833
      21    C8      20.677870   20.904224   21.948298 C.3        1 MOL1        -0.1684
      22    H14     19.723855   21.332404   22.284009 H          1 MOL1         0.0833
      23    H15     21.171161   21.704383   21.379454 H          1 MOL1         0.0833
      24    O1      20.199166   16.609985   21.380192 O.3        1 MOL1        -0.5508
      25    H16     21.015957   17.054958   21.076885 H          1 MOL1         0.3780
@<TRIPOS>BOND
    1     1     2    1
    2     1     3    1
    3     1     4    1
    4     4     5    1
    5     4     6    1
    6     4     7    1
    7     7     8    1
    8     7     9    1
    9     7    10    1
   10    10    11    1
   11    10    12    1
   12    10    13    1
   13    13    14    1
   14    13    15    1
   15    15    16    1
   16    15    17    1
   17    15    18    1
   18    18    19    1
   19    18    20    1
   20     1    21    1
   21    18    21    1
   22    21    22    1
   23    21    23    1
   24    13    24    1
   25    24    25    1
@<TRIPOS>SUBSTRUCTURE
       1 MOL1            1 RESIDUE      1      MOL     
@<SCITEGIC>MOL_PROPERTY
VConf Rank
SciTegic.value.IntegerValue
380

@<SCITEGIC>MOL_PROPERTY
Conf_Id
SciTegic.value.IntegerValue
115

@<SCITEGIC>MOL_PROPERTY
Delta U+W
SciTegic.value.DoubleValue
0.038

@<SCITEGIC>MOL_PROPERTY
U+W
SciTegic.value.DoubleValue
10.952

@<SCITEGIC>MOL_PROPERTY
Grad RMS
SciTegic.value.DoubleValue
0.000000

@<SCITEGIC>MOL_PROPERTY
U
SciTegic.value.DoubleValue
12.526

@<SCITEGIC>MOL_PROPERTY
W
SciTegic.value.DoubleValue
-1.575

@<SCITEGIC>MOL_PROPERTY
W(PB)
SciTegic.value.DoubleValue
-3.698

@<SCITEGIC>MOL_PROPERTY
W(SA)
SciTegic.value.DoubleValue
2.123

@<SCITEGIC>MOL_PROPERTY
Valence
SciTegic.value.DoubleValue
19.016

@<SCITEGIC>MOL_PROPERTY
Coulomb
SciTegic.value.DoubleValue
-9.226

@<SCITEGIC>MOL_PROPERTY
VdW
SciTegic.value.DoubleValue
2.737

@<SCITEGIC>MOL_PROPERTY
VdW6
SciTegic.value.DoubleValue
-12.612

@<SCITEGIC>MOL_PROPERTY
VdW12
SciTegic.value.DoubleValue
15.349

@<SCITEGIC>MOL_PROPERTY
Bond
SciTegic.value.DoubleValue
0.421

@<SCITEGIC>MOL_PROPERTY
Angle
SciTegic.value.DoubleValue
4.883

@<SCITEGIC>MOL_PROPERTY
Pdih
SciTegic.value.DoubleValue
13.711

@<SCITEGIC>MOL_PROPERTY
Idih
SciTegic.value.DoubleValue
0.000

@<SCITEGIC>MOL_PROPERTY
Tether
SciTegic.value.DoubleValue
0.000

@<TRIPOS>MOLECULE
guest-s17_confgen4.mol2 : confsearch ligand conformer 381
          25          25           1
SMALL
USER_CHARGES
 
@<TRIPOS>ATOM
       1    C1      21.987838   18.745657   23.918005 C.3        1 MOL1        -0.1684
       2    H1      22.563662   18.066524   24.561582 H          1 MOL1         0.0833
       3    H2      22.657738   19.590408   23.707991 H          1 MOL1         0.0833
       4    C2      20.765498   19.227328   24.733734 C.3        1 MOL1        -0.1684
       5    H3      20.159313   18.367017   25.048376 H          1 MOL1         0.0833
       6    H4      21.146021   19.675236   25.661947 H          1 MOL1         0.0833
       7    C3      19.876641   20.277508   24.028078 C.3        1 MOL1        -0.1684
       8    H5      20.500003   21.018131   23.509545 H          1 MOL1         0.0833
       9    H6      19.347228   20.838799   24.810278 H          1 MOL1         0.0833
      10    C4      18.804756   19.674475   23.080791 C.3        1 MOL1        -0.1760
      11    H7      18.691779   18.595134   23.242245 H          1 MOL1         0.0833
      12    H8      17.837442   20.114348   23.358959 H          1 MOL1         0.0833
      13    C5      19.042826   19.962121   21.581279 C.3        1 MOL1         0.1219
      14    H9      19.469885   20.969662   21.475677 H          1 MOL1         0.0790
      15    C6      19.966087   18.948533   20.869476 C.3        1 MOL1        -0.1760
      16    H10     19.523264   17.944686   20.911779 H          1 MOL1         0.0833
      17    H11     19.994961   19.217592   19.805434 H          1 MOL1         0.0833
      18    C7      21.426957   18.908170   21.380256 C.3        1 MOL1        -0.1684
      19    H12     21.795556   19.925788   21.566320 H          1 MOL1         0.0833
      20    H13     22.048547   18.519091   20.562042 H          1 MOL1         0.0833
      21    C8      21.652892   17.990554   22.610271 C.3        1 MOL1        -0.1684
      22    H14     22.507796   17.339434   22.381393 H          1 MOL1         0.0833
      23    H15     20.804560   17.311059   22.766627 H          1 MOL1         0.0833
      24    O1      17.783039   19.929165   20.921354 O.3        1 MOL1        -0.5508
      25    H16     17.947552   20.166337   19.984861 H          1 MOL1         0.3780
@<TRIPOS>BOND
    1     1     2    1
    2     1     3    1
    3     1     4    1
    4     4     5    1
    5     4     6    1
    6     4     7    1
    7     7     8    1
    8     7     9    1
    9     7    10    1
   10    10    11    1
   11    10    12    1
   12    10    13    1
   13    13    14    1
   14    13    15    1
   15    15    16    1
   16    15    17    1
   17    15    18    1
   18    18    19    1
   19    18    20    1
   20     1    21    1
   21    18    21    1
   22    21    22    1
   23    21    23    1
   24    13    24    1
   25    24    25    1
@<TRIPOS>SUBSTRUCTURE
       1 MOL1            1 RESIDUE      1      MOL     
@<SCITEGIC>MOL_PROPERTY
VConf Rank
SciTegic.value.IntegerValue
381

@<SCITEGIC>MOL_PROPERTY
Conf_Id
SciTegic.value.IntegerValue
30

@<SCITEGIC>MOL_PROPERTY
Delta U+W
SciTegic.value.DoubleValue
0.000

@<SCITEGIC>MOL_PROPERTY
U+W
SciTegic.value.DoubleValue
10.913

@<SCITEGIC>MOL_PROPERTY
Grad RMS
SciTegic.value.DoubleValue
0.000000

@<SCITEGIC>MOL_PROPERTY
U
SciTegic.value.DoubleValue
13.140

@<SCITEGIC>MOL_PROPERTY
W
SciTegic.value.DoubleValue
-2.227

@<SCITEGIC>MOL_PROPERTY
W(PB)
SciTegic.value.DoubleValue
-4.367

@<SCITEGIC>MOL_PROPERTY
W(SA)
SciTegic.value.DoubleValue
2.140

@<SCITEGIC>MOL_PROPERTY
Valence
SciTegic.value.DoubleValue
19.155

@<SCITEGIC>MOL_PROPERTY
Coulomb
SciTegic.value.DoubleValue
-8.157

@<SCITEGIC>MOL_PROPERTY
VdW
SciTegic.value.DoubleValue
2.142

@<SCITEGIC>MOL_PROPERTY
VdW6
SciTegic.value.DoubleValue
-11.576

@<SCITEGIC>MOL_PROPERTY
VdW12
SciTegic.value.DoubleValue
13.718

@<SCITEGIC>MOL_PROPERTY
Bond
SciTegic.value.DoubleValue
0.294

@<SCITEGIC>MOL_PROPERTY
Angle
SciTegic.value.DoubleValue
3.547

@<SCITEGIC>MOL_PROPERTY
Pdih
SciTegic.value.DoubleValue
15.314

@<SCITEGIC>MOL_PROPERTY
Idih
SciTegic.value.DoubleValue
0.000

@<SCITEGIC>MOL_PROPERTY
Tether
SciTegic.value.DoubleValue
0.000

@<TRIPOS>MOLECULE
guest-s17_confgen4.mol2 : confsearch ligand conformer 382
          25          25           1
SMALL
USER_CHARGES
 
@<TRIPOS>ATOM
       1    C1      22.122825   18.381655   23.355969 C.3        1 MOL1        -0.1684
       2    H1      23.157794   18.413478   22.988978 H          1 MOL1         0.0833
       3    H2      22.135547   17.705101   24.221351 H          1 MOL1         0.0833
       4    C2      21.231964   17.748696   22.258785 C.3        1 MOL1        -0.1684
       5    H3      21.762388   16.875874   21.854182 H          1 MOL1         0.0833
       6    H4      20.325043   17.334575   22.714366 H          1 MOL1         0.0833
       7    C3      20.883047   18.702108   21.087861 C.3        1 MOL1        -0.1684
       8    H5      21.196253   18.232699   20.145395 H          1 MOL1         0.0833
       9    H6      21.467136   19.627855   21.146751 H          1 MOL1         0.0833
      10    C4      19.375123   19.041923   20.977187 C.3        1 MOL1        -0.1760
      11    H7      19.255887   19.857545   20.251719 H          1 MOL1         0.0833
      12    H8      18.854904   18.176704   20.545985 H          1 MOL1         0.0833
      13    C5      18.645349   19.422547   22.289715 C.3        1 MOL1         0.1219
      14    H9      18.537264   18.526982   22.916028 H          1 MOL1         0.0790
      15    C6      19.331000   20.530967   23.125529 C.3        1 MOL1        -0.1760
      16    H10     19.860320   21.232272   22.467849 H          1 MOL1         0.0833
      17    H11     18.546663   21.125757   23.612393 H          1 MOL1         0.0833
      18    C7      20.267347   20.015857   24.254983 C.3        1 MOL1        -0.1684
      19    H12     19.862810   19.109012   24.724453 H          1 MOL1         0.0833
      20    H13     20.263669   20.779296   25.045164 H          1 MOL1         0.0833
      21    C8      21.744593   19.807173   23.839056 C.3        1 MOL1        -0.1684
      22    H14     22.374797   20.026237   24.711937 H          1 MOL1         0.0833
      23    H15     22.033101   20.557338   23.091832 H          1 MOL1         0.0833
      24    O1      17.343310   19.870475   21.931562 O.3        1 MOL1        -0.5508
      25    H16     16.860501   20.033174   22.768746 H          1 MOL1         0.3780
@<TRIPOS>BOND
    1     1     2    1
    2     1     3    1
    3     1     4    1
    4     4     5    1
    5     4     6    1
    6     4     7    1
    7     7     8    1
    8     7     9    1
    9     7    10    1
   10    10    11    1
   11    10    12    1
   12    10    13    1
   13    13    14    1
   14    13    15    1
   15    15    16    1
   16    15    17    1
   17    15    18    1
   18    18    19    1
   19    18    20    1
   20     1    21    1
   21    18    21    1
   22    21    22    1
   23    21    23    1
   24    13    24    1
   25    24    25    1
@<TRIPOS>SUBSTRUCTURE
       1 MOL1            1 RESIDUE      1      MOL     
@<SCITEGIC>MOL_PROPERTY
VConf Rank
SciTegic.value.IntegerValue
382

@<SCITEGIC>MOL_PROPERTY
Conf_Id
SciTegic.value.IntegerValue
162

@<SCITEGIC>MOL_PROPERTY
Delta U+W
SciTegic.value.DoubleValue
0.219

@<SCITEGIC>MOL_PROPERTY
U+W
SciTegic.value.DoubleValue
11.132

@<SCITEGIC>MOL_PROPERTY
Grad RMS
SciTegic.value.DoubleValue
0.000000

@<SCITEGIC>MOL_PROPERTY
U
SciTegic.value.DoubleValue
13.296

@<SCITEGIC>MOL_PROPERTY
W
SciTegic.value.DoubleValue
-2.164

@<SCITEGIC>MOL_PROPERTY
W(PB)
SciTegic.value.DoubleValue
-4.311

@<SCITEGIC>MOL_PROPERTY
W(SA)
SciTegic.value.DoubleValue
2.148

@<SCITEGIC>MOL_PROPERTY
Valence
SciTegic.value.DoubleValue
18.607

@<SCITEGIC>MOL_PROPERTY
Coulomb
SciTegic.value.DoubleValue
-8.339

@<SCITEGIC>MOL_PROPERTY
VdW
SciTegic.value.DoubleValue
3.028

@<SCITEGIC>MOL_PROPERTY
VdW6
SciTegic.value.DoubleValue
-12.271

@<SCITEGIC>MOL_PROPERTY
VdW12
SciTegic.value.DoubleValue
15.299

@<SCITEGIC>MOL_PROPERTY
Bond
SciTegic.value.DoubleValue
0.423

@<SCITEGIC>MOL_PROPERTY
Angle
SciTegic.value.DoubleValue
4.488

@<SCITEGIC>MOL_PROPERTY
Pdih
SciTegic.value.DoubleValue
13.696

@<SCITEGIC>MOL_PROPERTY
Idih
SciTegic.value.DoubleValue
0.000

@<SCITEGIC>MOL_PROPERTY
Tether
SciTegic.value.DoubleValue
0.000

@<TRIPOS>MOLECULE
guest-s17_confgen4.mol2 : confsearch ligand conformer 383
          25          25           1
SMALL
USER_CHARGES
 
@<TRIPOS>ATOM
       1    C1      21.072858   20.505111   21.302839 C.3        1 MOL1        -0.1684
       2    H1      21.701292   19.682998   20.937607 H          1 MOL1         0.0833
       3    H2      21.287489   21.343263   20.625786 H          1 MOL1         0.0833
       4    C2      19.576460   20.135957   21.147214 C.3        1 MOL1        -0.1684
       5    H3      18.951990   20.753424   21.806763 H          1 MOL1         0.0833
       6    H4      19.284256   20.415027   20.125511 H          1 MOL1         0.0833
       7    C3      19.246494   18.626265   21.313084 C.3        1 MOL1        -0.1684
       8    H5      20.038801   17.997508   20.885205 H          1 MOL1         0.0833
       9    H6      18.355842   18.427205   20.701328 H          1 MOL1         0.0833
      10    C4      18.906831   18.178299   22.758472 C.3        1 MOL1        -0.1760
      11    H7      18.388413   18.986599   23.288744 H          1 MOL1         0.0833
      12    H8      18.171410   17.365798   22.693576 H          1 MOL1         0.0833
      13    C5      20.086183   17.638999   23.606770 C.3        1 MOL1         0.1219
      14    H9      20.376230   16.660926   23.196480 H          1 MOL1         0.0790
      15    C6      21.359591   18.517030   23.646100 C.3        1 MOL1        -0.1760
      16    H10     22.021987   18.136939   24.434619 H          1 MOL1         0.0833
      17    H11     21.924244   18.366171   22.719826 H          1 MOL1         0.0833
      18    C7      21.100870   20.026196   23.897012 C.3        1 MOL1        -0.1684
      19    H12     21.658373   20.336211   24.791127 H          1 MOL1         0.0833
      20    H13     20.048894   20.206651   24.147799 H          1 MOL1         0.0833
      21    C8      21.518139   20.944501   22.722966 C.3        1 MOL1        -0.1684
      22    H14     22.612408   21.041014   22.723077 H          1 MOL1         0.0833
      23    H15     21.129500   21.952744   22.920747 H          1 MOL1         0.0833
      24    O1      19.617751   17.460253   24.938206 O.3        1 MOL1        -0.5508
      25    H16     20.374404   17.122232   25.460064 H          1 MOL1         0.3780
@<TRIPOS>BOND
    1     1     2    1
    2     1     3    1
    3     1     4    1
    4     4     5    1
    5     4     6    1
    6     4     7    1
    7     7     8    1
    8     7     9    1
    9     7    10    1
   10    10    11    1
   11    10    12    1
   12    10    13    1
   13    13    14    1
   14    13    15    1
   15    15    16    1
   16    15    17    1
   17    15    18    1
   18    18    19    1
   19    18    20    1
   20     1    21    1
   21    18    21    1
   22    21    22    1
   23    21    23    1
   24    13    24    1
   25    24    25    1
@<TRIPOS>SUBSTRUCTURE
       1 MOL1            1 RESIDUE      1      MOL     
@<SCITEGIC>MOL_PROPERTY
VConf Rank
SciTegic.value.IntegerValue
383

@<SCITEGIC>MOL_PROPERTY
Conf_Id
SciTegic.value.IntegerValue
155

@<SCITEGIC>MOL_PROPERTY
Delta U+W
SciTegic.value.DoubleValue
0.339

@<SCITEGIC>MOL_PROPERTY
U+W
SciTegic.value.DoubleValue
11.252

@<SCITEGIC>MOL_PROPERTY
Grad RMS
SciTegic.value.DoubleValue
0.000000

@<SCITEGIC>MOL_PROPERTY
U
SciTegic.value.DoubleValue
13.420

@<SCITEGIC>MOL_PROPERTY
W
SciTegic.value.DoubleValue
-2.167

@<SCITEGIC>MOL_PROPERTY
W(PB)
SciTegic.value.DoubleValue
-4.325

@<SCITEGIC>MOL_PROPERTY
W(SA)
SciTegic.value.DoubleValue
2.157

@<SCITEGIC>MOL_PROPERTY
Valence
SciTegic.value.DoubleValue
18.609

@<SCITEGIC>MOL_PROPERTY
Coulomb
SciTegic.value.DoubleValue
-8.052

@<SCITEGIC>MOL_PROPERTY
VdW
SciTegic.value.DoubleValue
2.863

@<SCITEGIC>MOL_PROPERTY
VdW6
SciTegic.value.DoubleValue
-12.524

@<SCITEGIC>MOL_PROPERTY
VdW12
SciTegic.value.DoubleValue
15.387

@<SCITEGIC>MOL_PROPERTY
Bond
SciTegic.value.DoubleValue
0.430

@<SCITEGIC>MOL_PROPERTY
Angle
SciTegic.value.DoubleValue
4.724

@<SCITEGIC>MOL_PROPERTY
Pdih
SciTegic.value.DoubleValue
13.455

@<SCITEGIC>MOL_PROPERTY
Idih
SciTegic.value.DoubleValue
0.000

@<SCITEGIC>MOL_PROPERTY
Tether
SciTegic.value.DoubleValue
0.000

@<TRIPOS>MOLECULE
guest-s17_confgen4.mol2 : confsearch ligand conformer 384
          25          25           1
SMALL
USER_CHARGES
 
@<TRIPOS>ATOM
       1    C1      19.403496   18.715077   24.370335 C.3        1 MOL1        -0.1684
       2    H1      18.319886   18.573274   24.260694 H          1 MOL1         0.0833
       3    H2      19.620206   18.505953   25.426785 H          1 MOL1         0.0833
       4    C2      20.146748   17.638776   23.536087 C.3        1 MOL1        -0.1684
       5    H3      21.220918   17.704466   23.736051 H          1 MOL1         0.0833
       6    H4      19.869883   16.655729   23.940661 H          1 MOL1         0.0833
       7    C3      19.870313   17.597101   22.004727 C.3        1 MOL1        -0.1684
       8    H5      18.979530   16.973782   21.848103 H          1 MOL1         0.0833
       9    H6      20.692802   17.063848   21.508872 H          1 MOL1         0.0833
      10    C4      19.618815   18.941190   21.268468 C.3        1 MOL1        -0.1760
      11    H7      19.306127   18.700406   20.243994 H          1 MOL1         0.0833
      12    H8      18.732803   19.422419   21.691735 H          1 MOL1         0.0833
      13    C5      20.795485   19.957109   21.180924 C.3        1 MOL1         0.1219
      14    H9      20.364104   20.956960   21.029341 H          1 MOL1         0.0790
      15    C6      21.769321   20.036224   22.383390 C.3        1 MOL1        -0.1760
      16    H10     22.257543   19.065869   22.512111 H          1 MOL1         0.0833
      17    H11     22.592542   20.704295   22.097708 H          1 MOL1         0.0833
      18    C7      21.210389   20.559994   23.740432 C.3        1 MOL1        -0.1684
      19    H12     21.285760   21.655872   23.726028 H          1 MOL1         0.0833
      20    H13     21.876837   20.231574   24.549326 H          1 MOL1         0.0833
      21    C8      19.745287   20.212117   24.113458 C.3        1 MOL1        -0.1684
      22    H14     19.068542   20.643983   23.369492 H          1 MOL1         0.0833
      23    H15     19.498549   20.760778   25.032680 H          1 MOL1         0.0833
      24    O1      21.575475   19.623438   20.037918 O.3        1 MOL1        -0.5508
      25    H16     20.967362   19.624637   19.270168 H          1 MOL1         0.3780
@<TRIPOS>BOND
    1     1     2    1
    2     1     3    1
    3     1     4    1
    4     4     5    1
    5     4     6    1
    6     4     7    1
    7     7     8    1
    8     7     9    1
    9     7    10    1
   10    10    11    1
   11    10    12    1
   12    10    13    1
   13    13    14    1
   14    13    15    1
   15    15    16    1
   16    15    17    1
   17    15    18    1
   18    18    19    1
   19    18    20    1
   20     1    21    1
   21    18    21    1
   22    21    22    1
   23    21    23    1
   24    13    24    1
   25    24    25    1
@<TRIPOS>SUBSTRUCTURE
       1 MOL1            1 RESIDUE      1      MOL     
@<SCITEGIC>MOL_PROPERTY
VConf Rank
SciTegic.value.IntegerValue
384

@<SCITEGIC>MOL_PROPERTY
Conf_Id
SciTegic.value.IntegerValue
146

@<SCITEGIC>MOL_PROPERTY
Delta U+W
SciTegic.value.DoubleValue
2.553

@<SCITEGIC>MOL_PROPERTY
U+W
SciTegic.value.DoubleValue
13.466

@<SCITEGIC>MOL_PROPERTY
Grad RMS
SciTegic.value.DoubleValue
0.000000

@<SCITEGIC>MOL_PROPERTY
U
SciTegic.value.DoubleValue
15.643

@<SCITEGIC>MOL_PROPERTY
W
SciTegic.value.DoubleValue
-2.176

@<SCITEGIC>MOL_PROPERTY
W(PB)
SciTegic.value.DoubleValue
-4.307

@<SCITEGIC>MOL_PROPERTY
W(SA)
SciTegic.value.DoubleValue
2.131

@<SCITEGIC>MOL_PROPERTY
Valence
SciTegic.value.DoubleValue
18.916

@<SCITEGIC>MOL_PROPERTY
Coulomb
SciTegic.value.DoubleValue
-7.506

@<SCITEGIC>MOL_PROPERTY
VdW
SciTegic.value.DoubleValue
4.232

@<SCITEGIC>MOL_PROPERTY
VdW6
SciTegic.value.DoubleValue
-13.632

@<SCITEGIC>MOL_PROPERTY
VdW12
SciTegic.value.DoubleValue
17.864

@<SCITEGIC>MOL_PROPERTY
Bond
SciTegic.value.DoubleValue
0.735

@<SCITEGIC>MOL_PROPERTY
Angle
SciTegic.value.DoubleValue
9.140

@<SCITEGIC>MOL_PROPERTY
Pdih
SciTegic.value.DoubleValue
9.042

@<SCITEGIC>MOL_PROPERTY
Idih
SciTegic.value.DoubleValue
0.000

@<SCITEGIC>MOL_PROPERTY
Tether
SciTegic.value.DoubleValue
0.000

@<TRIPOS>MOLECULE
guest-s17_confgen4.mol2 : confsearch ligand conformer 385
          25          25           1
SMALL
USER_CHARGES
 
@<TRIPOS>ATOM
       1    C1      21.995363   18.800012   21.532746 C.3        1 MOL1        -0.1684
       2    H1      22.075995   17.884812   20.930741 H          1 MOL1         0.0833
       3    H2      22.942008   19.337096   21.383356 H          1 MOL1         0.0833
       4    C2      21.911135   18.419905   23.032268 C.3        1 MOL1        -0.1684
       5    H3      22.835654   17.882903   23.284644 H          1 MOL1         0.0833
       6    H4      21.936842   19.320772   23.655906 H          1 MOL1         0.0833
       7    C3      20.725360   17.509888   23.439932 C.3        1 MOL1        -0.1684
       8    H5      20.866758   17.234997   24.494172 H          1 MOL1         0.0833
       9    H6      20.779734   16.568390   22.876843 H          1 MOL1         0.0833
      10    C4      19.300141   18.103611   23.291789 C.3        1 MOL1        -0.1760
      11    H7      18.956551   18.014045   22.256418 H          1 MOL1         0.0833
      12    H8      18.620290   17.457120   23.863092 H          1 MOL1         0.0833
      13    C5      19.141565   19.565392   23.783854 C.3        1 MOL1         0.1219
      14    H9      19.961072   19.813365   24.471721 H          1 MOL1         0.0790
      15    C6      19.091740   20.615568   22.645254 C.3        1 MOL1        -0.1760
      16    H10     18.292979   20.346590   21.941441 H          1 MOL1         0.0833
      17    H11     18.790098   21.576116   23.083091 H          1 MOL1         0.0833
      18    C7      20.407841   20.860528   21.858185 C.3        1 MOL1        -0.1684
      19    H12     21.214895   21.169705   22.534848 H          1 MOL1         0.0833
      20    H13     20.234131   21.726742   21.205130 H          1 MOL1         0.0833
      21    C8      20.856595   19.681060   20.957097 C.3        1 MOL1        -0.1684
      22    H14     21.219388   20.096161   20.006776 H          1 MOL1         0.0833
      23    H15     19.996385   19.064105   20.673853 H          1 MOL1         0.0833
      24    O1      17.915705   19.659960   24.500564 O.3        1 MOL1        -0.5508
      25    H16     17.862869   20.573055   24.852254 H          1 MOL1         0.3780
@<TRIPOS>BOND
    1     1     2    1
    2     1     3    1
    3     1     4    1
    4     4     5    1
    5     4     6    1
    6     4     7    1
    7     7     8    1
    8     7     9    1
    9     7    10    1
   10    10    11    1
   11    10    12    1
   12    10    13    1
   13    13    14    1
   14    13    15    1
   15    15    16    1
   16    15    17    1
   17    15    18    1
   18    18    19    1
   19    18    20    1
   20     1    21    1
   21    18    21    1
   22    21    22    1
   23    21    23    1
   24    13    24    1
   25    24    25    1
@<TRIPOS>SUBSTRUCTURE
       1 MOL1            1 RESIDUE      1      MOL     
@<SCITEGIC>MOL_PROPERTY
VConf Rank
SciTegic.value.IntegerValue
385

@<SCITEGIC>MOL_PROPERTY
Conf_Id
SciTegic.value.IntegerValue
62

@<SCITEGIC>MOL_PROPERTY
Delta U+W
SciTegic.value.DoubleValue
-1.779

@<SCITEGIC>MOL_PROPERTY
U+W
SciTegic.value.DoubleValue
9.134

@<SCITEGIC>MOL_PROPERTY
Grad RMS
SciTegic.value.DoubleValue
0.000000

@<SCITEGIC>MOL_PROPERTY
U
SciTegic.value.DoubleValue
11.364

@<SCITEGIC>MOL_PROPERTY
W
SciTegic.value.DoubleValue
-2.230

@<SCITEGIC>MOL_PROPERTY
W(PB)
SciTegic.value.DoubleValue
-4.359

@<SCITEGIC>MOL_PROPERTY
W(SA)
SciTegic.value.DoubleValue
2.129

@<SCITEGIC>MOL_PROPERTY
Valence
SciTegic.value.DoubleValue
16.582

@<SCITEGIC>MOL_PROPERTY
Coulomb
SciTegic.value.DoubleValue
-8.150

@<SCITEGIC>MOL_PROPERTY
VdW
SciTegic.value.DoubleValue
2.933

@<SCITEGIC>MOL_PROPERTY
VdW6
SciTegic.value.DoubleValue
-12.531

@<SCITEGIC>MOL_PROPERTY
VdW12
SciTegic.value.DoubleValue
15.464

@<SCITEGIC>MOL_PROPERTY
Bond
SciTegic.value.DoubleValue
0.439

@<SCITEGIC>MOL_PROPERTY
Angle
SciTegic.value.DoubleValue
5.099

@<SCITEGIC>MOL_PROPERTY
Pdih
SciTegic.value.DoubleValue
11.044

@<SCITEGIC>MOL_PROPERTY
Idih
SciTegic.value.DoubleValue
0.000

@<SCITEGIC>MOL_PROPERTY
Tether
SciTegic.value.DoubleValue
0.000

@<TRIPOS>MOLECULE
guest-s17_confgen4.mol2 : confsearch ligand conformer 386
          25          25           1
SMALL
USER_CHARGES
 
@<TRIPOS>ATOM
       1    C1      19.334471   20.461549   21.762788 C.3        1 MOL1        -0.1684
       2    H1      19.768493   21.019768   22.600129 H          1 MOL1         0.0833
       3    H2      18.710317   21.195484   21.235142 H          1 MOL1         0.0833
       4    C2      18.392864   19.348311   22.285981 C.3        1 MOL1        -0.1684
       5    H3      17.598974   19.835831   22.868176 H          1 MOL1         0.0833
       6    H4      17.887152   18.871457   21.435474 H          1 MOL1         0.0833
       7    C3      19.025634   18.248289   23.176078 C.3        1 MOL1        -0.1684
       8    H5      19.491424   17.473168   22.557029 H          1 MOL1         0.0833
       9    H6      18.201595   17.732428   23.687813 H          1 MOL1         0.0833
      10    C4      20.021593   18.757540   24.252202 C.3        1 MOL1        -0.1760
      11    H7      19.823559   19.805514   24.508685 H          1 MOL1         0.0833
      12    H8      19.822169   18.192059   25.171878 H          1 MOL1         0.0833
      13    C5      21.518079   18.557594   23.902995 C.3        1 MOL1         0.1219
      14    H9      21.673479   17.500088   23.645096 H          1 MOL1         0.0790
      15    C6      22.076598   19.422319   22.745318 C.3        1 MOL1        -0.1760
      16    H10     21.938760   20.488778   22.960853 H          1 MOL1         0.0833
      17    H11     23.163935   19.269939   22.728302 H          1 MOL1         0.0833
      18    C7      21.535955   19.060346   21.335974 C.3        1 MOL1        -0.1684
      19    H12     21.189205   18.021032   21.312766 H          1 MOL1         0.0833
      20    H13     22.376936   19.085040   20.629512 H          1 MOL1         0.0833
      21    C8      20.444706   20.011102   20.780852 C.3        1 MOL1        -0.1684
      22    H14     19.982912   19.547369   19.898707 H          1 MOL1         0.0833
      23    H15     20.944962   20.917127   20.412418 H          1 MOL1         0.0833
      24    O1      22.276908   18.859920   25.067127 O.3        1 MOL1        -0.5508
      25    H16     21.961511   18.259679   25.774505 H          1 MOL1         0.3780
@<TRIPOS>BOND
    1     1     2    1
    2     1     3    1
    3     1     4    1
    4     4     5    1
    5     4     6    1
    6     4     7    1
    7     7     8    1
    8     7     9    1
    9     7    10    1
   10    10    11    1
   11    10    12    1
   12    10    13    1
   13    13    14    1
   14    13    15    1
   15    15    16    1
   16    15    17    1
   17    15    18    1
   18    18    19    1
   19    18    20    1
   20     1    21    1
   21    18    21    1
   22    21    22    1
   23    21    23    1
   24    13    24    1
   25    24    25    1
@<TRIPOS>SUBSTRUCTURE
       1 MOL1            1 RESIDUE      1      MOL     
@<SCITEGIC>MOL_PROPERTY
VConf Rank
SciTegic.value.IntegerValue
386

@<SCITEGIC>MOL_PROPERTY
Conf_Id
SciTegic.value.IntegerValue
121

@<SCITEGIC>MOL_PROPERTY
Delta U+W
SciTegic.value.DoubleValue
-1.283

@<SCITEGIC>MOL_PROPERTY
U+W
SciTegic.value.DoubleValue
9.630

@<SCITEGIC>MOL_PROPERTY
Grad RMS
SciTegic.value.DoubleValue
0.000000

@<SCITEGIC>MOL_PROPERTY
U
SciTegic.value.DoubleValue
11.876

@<SCITEGIC>MOL_PROPERTY
W
SciTegic.value.DoubleValue
-2.246

@<SCITEGIC>MOL_PROPERTY
W(PB)
SciTegic.value.DoubleValue
-4.376

@<SCITEGIC>MOL_PROPERTY
W(SA)
SciTegic.value.DoubleValue
2.130

@<SCITEGIC>MOL_PROPERTY
Valence
SciTegic.value.DoubleValue
17.153

@<SCITEGIC>MOL_PROPERTY
Coulomb
SciTegic.value.DoubleValue
-7.966

@<SCITEGIC>MOL_PROPERTY
VdW
SciTegic.value.DoubleValue
2.689

@<SCITEGIC>MOL_PROPERTY
VdW6
SciTegic.value.DoubleValue
-12.458

@<SCITEGIC>MOL_PROPERTY
VdW12
SciTegic.value.DoubleValue
15.147

@<SCITEGIC>MOL_PROPERTY
Bond
SciTegic.value.DoubleValue
0.421

@<SCITEGIC>MOL_PROPERTY
Angle
SciTegic.value.DoubleValue
5.258

@<SCITEGIC>MOL_PROPERTY
Pdih
SciTegic.value.DoubleValue
11.475

@<SCITEGIC>MOL_PROPERTY
Idih
SciTegic.value.DoubleValue
0.000

@<SCITEGIC>MOL_PROPERTY
Tether
SciTegic.value.DoubleValue
0.000

@<TRIPOS>MOLECULE
guest-s17_confgen4.mol2 : confsearch ligand conformer 387
          25          25           1
SMALL
USER_CHARGES
 
@<TRIPOS>ATOM
       1    C1      20.132895   20.893520   23.543716 C.3        1 MOL1        -0.1684
       2    H1      20.988889   21.052980   22.878156 H          1 MOL1         0.0833
       3    H2      19.991189   21.859017   24.048073 H          1 MOL1         0.0833
       4    C2      20.484077   19.851545   24.634899 C.3        1 MOL1        -0.1684
       5    H3      21.336993   20.246218   25.203802 H          1 MOL1         0.0833
       6    H4      19.654896   19.783349   25.352039 H          1 MOL1         0.0833
       7    C3      20.854061   18.424342   24.156222 C.3        1 MOL1        -0.1684
       8    H5      19.949790   17.831430   23.978193 H          1 MOL1         0.0833
       9    H6      21.352125   17.920133   24.995658 H          1 MOL1         0.0833
      10    C4      21.797261   18.361386   22.924970 C.3        1 MOL1        -0.1760
      11    H7      22.392458   19.278073   22.834341 H          1 MOL1         0.0833
      12    H8      22.526331   17.561643   23.111192 H          1 MOL1         0.0833
      13    C5      21.099551   18.031769   21.581665 C.3        1 MOL1         0.1219
      14    H9      20.513831   17.111248   21.717880 H          1 MOL1         0.0790
      15    C6      20.162062   19.123311   21.006308 C.3        1 MOL1        -0.1760
      16    H10     20.709248   20.063112   20.862732 H          1 MOL1         0.0833
      17    H11     19.867662   18.803163   19.998252 H          1 MOL1         0.0833
      18    C7      18.856421   19.355069   21.813091 C.3        1 MOL1        -0.1684
      19    H12     18.599539   18.461946   22.393898 H          1 MOL1         0.0833
      20    H13     18.027806   19.466662   21.100372 H          1 MOL1         0.0833
      21    C8      18.852101   20.613025   22.718764 C.3        1 MOL1        -0.1684
      22    H14     17.988508   20.561966   23.395590 H          1 MOL1         0.0833
      23    H15     18.675698   21.487609   22.077770 H          1 MOL1         0.0833
      24    O1      22.117902   17.786811   20.619697 O.3        1 MOL1        -0.5508
      25    H16     21.667270   17.513247   19.793717 H          1 MOL1         0.3780
@<TRIPOS>BOND
    1     1     2    1
    2     1     3    1
    3     1     4    1
    4     4     5    1
    5     4     6    1
    6     4     7    1
    7     7     8    1
    8     7     9    1
    9     7    10    1
   10    10    11    1
   11    10    12    1
   12    10    13    1
   13    13    14    1
   14    13    15    1
   15    15    16    1
   16    15    17    1
   17    15    18    1
   18    18    19    1
   19    18    20    1
   20     1    21    1
   21    18    21    1
   22    21    22    1
   23    21    23    1
   24    13    24    1
   25    24    25    1
@<TRIPOS>SUBSTRUCTURE
       1 MOL1            1 RESIDUE      1      MOL     
@<SCITEGIC>MOL_PROPERTY
VConf Rank
SciTegic.value.IntegerValue
387

@<SCITEGIC>MOL_PROPERTY
Conf_Id
SciTegic.value.IntegerValue
24

@<SCITEGIC>MOL_PROPERTY
Delta U+W
SciTegic.value.DoubleValue
-1.236

@<SCITEGIC>MOL_PROPERTY
U+W
SciTegic.value.DoubleValue
9.678

@<SCITEGIC>MOL_PROPERTY
Grad RMS
SciTegic.value.DoubleValue
0.000000

@<SCITEGIC>MOL_PROPERTY
U
SciTegic.value.DoubleValue
11.876

@<SCITEGIC>MOL_PROPERTY
W
SciTegic.value.DoubleValue
-2.199

@<SCITEGIC>MOL_PROPERTY
W(PB)
SciTegic.value.DoubleValue
-4.335

@<SCITEGIC>MOL_PROPERTY
W(SA)
SciTegic.value.DoubleValue
2.137

@<SCITEGIC>MOL_PROPERTY
Valence
SciTegic.value.DoubleValue
17.153

@<SCITEGIC>MOL_PROPERTY
Coulomb
SciTegic.value.DoubleValue
-7.966

@<SCITEGIC>MOL_PROPERTY
VdW
SciTegic.value.DoubleValue
2.689

@<SCITEGIC>MOL_PROPERTY
VdW6
SciTegic.value.DoubleValue
-12.458

@<SCITEGIC>MOL_PROPERTY
VdW12
SciTegic.value.DoubleValue
15.147

@<SCITEGIC>MOL_PROPERTY
Bond
SciTegic.value.DoubleValue
0.421

@<SCITEGIC>MOL_PROPERTY
Angle
SciTegic.value.DoubleValue
5.258

@<SCITEGIC>MOL_PROPERTY
Pdih
SciTegic.value.DoubleValue
11.475

@<SCITEGIC>MOL_PROPERTY
Idih
SciTegic.value.DoubleValue
0.000

@<SCITEGIC>MOL_PROPERTY
Tether
SciTegic.value.DoubleValue
0.000

@<TRIPOS>MOLECULE
guest-s17_confgen4.mol2 : confsearch ligand conformer 388
          25          25           1
SMALL
USER_CHARGES
 
@<TRIPOS>ATOM
       1    C1      21.512398   17.618242   23.411287 C.3        1 MOL1        -0.1684
       2    H1      22.340578   17.799853   24.109794 H          1 MOL1         0.0833
       3    H2      21.545374   16.543861   23.184411 H          1 MOL1         0.0833
       4    C2      20.171670   17.912310   24.135284 C.3        1 MOL1        -0.1684
       5    H3      19.334295   17.442550   23.603850 H          1 MOL1         0.0833
       6    H4      20.211900   17.396201   25.104345 H          1 MOL1         0.0833
       7    C3      19.857362   19.404863   24.403899 C.3        1 MOL1        -0.1684
       8    H5      20.778027   19.965598   24.614636 H          1 MOL1         0.0833
       9    H6      19.272929   19.445237   25.333421 H          1 MOL1         0.0833
      10    C4      19.009300   20.109060   23.307165 C.3        1 MOL1        -0.1760
      11    H7      18.262458   19.421718   22.889712 H          1 MOL1         0.0833
      12    H8      18.434321   20.896519   23.813383 H          1 MOL1         0.0833
      13    C5      19.827886   20.775302   22.174417 C.3        1 MOL1         0.1219
      14    H9      20.804020   21.074113   22.578831 H          1 MOL1         0.0790
      15    C6      20.042102   19.905336   20.909870 C.3        1 MOL1        -0.1760
      16    H10     19.096239   19.825239   20.358238 H          1 MOL1         0.0833
      17    H11     20.732575   20.444963   20.248303 H          1 MOL1         0.0833
      18    C7      20.595723   18.475110   21.130319 C.3        1 MOL1        -0.1684
      19    H12     20.911529   18.078189   20.155908 H          1 MOL1         0.0833
      20    H13     19.785708   17.810832   21.453278 H          1 MOL1         0.0833
      21    C8      21.795801   18.405112   22.108208 C.3        1 MOL1        -0.1684
      22    H14     22.162392   19.408016   22.356099 H          1 MOL1         0.0833
      23    H15     22.638125   17.920236   21.596099 H          1 MOL1         0.0833
      24    O1      19.146702   21.954094   21.764361 O.3        1 MOL1        -0.5508
      25    H16     18.273448   21.666371   21.427293 H          1 MOL1         0.3780
@<TRIPOS>BOND
    1     1     2    1
    2     1     3    1
    3     1     4    1
    4     4     5    1
    5     4     6    1
    6     4     7    1
    7     7     8    1
    8     7     9    1
    9     7    10    1
   10    10    11    1
   11    10    12    1
   12    10    13    1
   13    13    14    1
   14    13    15    1
   15    15    16    1
   16    15    17    1
   17    15    18    1
   18    18    19    1
   19    18    20    1
   20     1    21    1
   21    18    21    1
   22    21    22    1
   23    21    23    1
   24    13    24    1
   25    24    25    1
@<TRIPOS>SUBSTRUCTURE
       1 MOL1            1 RESIDUE      1      MOL     
@<SCITEGIC>MOL_PROPERTY
VConf Rank
SciTegic.value.IntegerValue
388

@<SCITEGIC>MOL_PROPERTY
Conf_Id
SciTegic.value.IntegerValue
167

@<SCITEGIC>MOL_PROPERTY
Delta U+W
SciTegic.value.DoubleValue
0.388

@<SCITEGIC>MOL_PROPERTY
U+W
SciTegic.value.DoubleValue
11.301

@<SCITEGIC>MOL_PROPERTY
Grad RMS
SciTegic.value.DoubleValue
0.000000

@<SCITEGIC>MOL_PROPERTY
U
SciTegic.value.DoubleValue
13.202

@<SCITEGIC>MOL_PROPERTY
W
SciTegic.value.DoubleValue
-1.901

@<SCITEGIC>MOL_PROPERTY
W(PB)
SciTegic.value.DoubleValue
-4.065

@<SCITEGIC>MOL_PROPERTY
W(SA)
SciTegic.value.DoubleValue
2.163

@<SCITEGIC>MOL_PROPERTY
Valence
SciTegic.value.DoubleValue
18.957

@<SCITEGIC>MOL_PROPERTY
Coulomb
SciTegic.value.DoubleValue
-8.753

@<SCITEGIC>MOL_PROPERTY
VdW
SciTegic.value.DoubleValue
2.998

@<SCITEGIC>MOL_PROPERTY
VdW6
SciTegic.value.DoubleValue
-12.294

@<SCITEGIC>MOL_PROPERTY
VdW12
SciTegic.value.DoubleValue
15.292

@<SCITEGIC>MOL_PROPERTY
Bond
SciTegic.value.DoubleValue
0.419

@<SCITEGIC>MOL_PROPERTY
Angle
SciTegic.value.DoubleValue
4.543

@<SCITEGIC>MOL_PROPERTY
Pdih
SciTegic.value.DoubleValue
13.996

@<SCITEGIC>MOL_PROPERTY
Idih
SciTegic.value.DoubleValue
0.000

@<SCITEGIC>MOL_PROPERTY
Tether
SciTegic.value.DoubleValue
0.000

@<TRIPOS>MOLECULE
guest-s17_confgen4.mol2 : confsearch ligand conformer 389
          25          25           1
SMALL
USER_CHARGES
 
@<TRIPOS>ATOM
       1    C1      20.110990   20.304337   24.410600 C.3        1 MOL1        -0.1684
       2    H1      20.152196   21.401938   24.419442 H          1 MOL1         0.0833
       3    H2      19.928846   20.006732   25.452317 H          1 MOL1         0.0833
       4    C2      21.500860   19.752997   23.998788 C.3        1 MOL1        -0.1684
       5    H3      21.929668   20.352391   23.187829 H          1 MOL1         0.0833
       6    H4      22.177708   19.919679   24.847980 H          1 MOL1         0.0833
       7    C3      21.540522   18.244739   23.640416 C.3        1 MOL1        -0.1684
       8    H5      20.728475   17.699324   24.138284 H          1 MOL1         0.0833
       9    H6      22.465809   17.829345   24.062549 H          1 MOL1         0.0833
      10    C4      21.559021   17.936418   22.118298 C.3        1 MOL1        -0.1760
      11    H7      22.402895   18.459783   21.650102 H          1 MOL1         0.0833
      12    H8      21.772848   16.865776   22.000862 H          1 MOL1         0.0833
      13    C5      20.264483   18.245960   21.325983 C.3        1 MOL1         0.1219
      14    H9      19.416394   17.748160   21.814958 H          1 MOL1         0.0790
      15    C6      19.965235   19.759347   21.168391 C.3        1 MOL1        -0.1760
      16    H10     20.884636   20.340011   21.294115 H          1 MOL1         0.0833
      17    H11     19.652704   19.965365   20.136004 H          1 MOL1         0.0833
      18    C7      18.853757   20.307982   22.100260 C.3        1 MOL1        -0.1684
      19    H12     17.883416   20.008206   21.681311 H          1 MOL1         0.0833
      20    H13     18.867538   21.405710   22.063453 H          1 MOL1         0.0833
      21    C8      18.887086   19.845374   23.578689 C.3        1 MOL1        -0.1684
      22    H14     18.767854   18.757932   23.645052 H          1 MOL1         0.0833
      23    H15     17.990746   20.251440   24.067061 H          1 MOL1         0.0833
      24    O1      20.418651   17.685187   20.027550 O.3        1 MOL1        -0.5508
      25    H16     19.569673   17.825709   19.558502 H          1 MOL1         0.3780
@<TRIPOS>BOND
    1     1     2    1
    2     1     3    1
    3     1     4    1
    4     4     5    1
    5     4     6    1
    6     4     7    1
    7     7     8    1
    8     7     9    1
    9     7    10    1
   10    10    11    1
   11    10    12    1
   12    10    13    1
   13    13    14    1
   14    13    15    1
   15    15    16    1
   16    15    17    1
   17    15    18    1
   18    18    19    1
   19    18    20    1
   20     1    21    1
   21    18    21    1
   22    21    22    1
   23    21    23    1
   24    13    24    1
   25    24    25    1
@<TRIPOS>SUBSTRUCTURE
       1 MOL1            1 RESIDUE      1      MOL     
@<SCITEGIC>MOL_PROPERTY
VConf Rank
SciTegic.value.IntegerValue
389

@<SCITEGIC>MOL_PROPERTY
Conf_Id
SciTegic.value.IntegerValue
60

@<SCITEGIC>MOL_PROPERTY
Delta U+W
SciTegic.value.DoubleValue
-1.838

@<SCITEGIC>MOL_PROPERTY
U+W
SciTegic.value.DoubleValue
9.075

@<SCITEGIC>MOL_PROPERTY
Grad RMS
SciTegic.value.DoubleValue
0.000000

@<SCITEGIC>MOL_PROPERTY
U
SciTegic.value.DoubleValue
11.150

@<SCITEGIC>MOL_PROPERTY
W
SciTegic.value.DoubleValue
-2.074

@<SCITEGIC>MOL_PROPERTY
W(PB)
SciTegic.value.DoubleValue
-4.196

@<SCITEGIC>MOL_PROPERTY
W(SA)
SciTegic.value.DoubleValue
2.121

@<SCITEGIC>MOL_PROPERTY
Valence
SciTegic.value.DoubleValue
16.582

@<SCITEGIC>MOL_PROPERTY
Coulomb
SciTegic.value.DoubleValue
-8.361

@<SCITEGIC>MOL_PROPERTY
VdW
SciTegic.value.DoubleValue
2.928

@<SCITEGIC>MOL_PROPERTY
VdW6
SciTegic.value.DoubleValue
-12.539

@<SCITEGIC>MOL_PROPERTY
VdW12
SciTegic.value.DoubleValue
15.467

@<SCITEGIC>MOL_PROPERTY
Bond
SciTegic.value.DoubleValue
0.441

@<SCITEGIC>MOL_PROPERTY
Angle
SciTegic.value.DoubleValue
5.093

@<SCITEGIC>MOL_PROPERTY
Pdih
SciTegic.value.DoubleValue
11.049

@<SCITEGIC>MOL_PROPERTY
Idih
SciTegic.value.DoubleValue
0.000

@<SCITEGIC>MOL_PROPERTY
Tether
SciTegic.value.DoubleValue
0.000

@<TRIPOS>MOLECULE
guest-s17_confgen4.mol2 : confsearch ligand conformer 390
          25          25           1
SMALL
USER_CHARGES
 
@<TRIPOS>ATOM
       1    C1      18.696239   18.814028   21.441566 C.3        1 MOL1        -0.1684
       2    H1      18.277728   17.803283   21.342837 H          1 MOL1         0.0833
       3    H2      18.096256   19.449020   20.775441 H          1 MOL1         0.0833
       4    C2      20.148457   18.821046   20.901492 C.3        1 MOL1        -0.1684
       5    H3      20.103103   18.534630   19.841902 H          1 MOL1         0.0833
       6    H4      20.546790   19.842035   20.893752 H          1 MOL1         0.0833
       7    C3      21.140323   17.854420   21.596261 C.3        1 MOL1        -0.1684
       8    H5      22.083617   17.887511   21.034082 H          1 MOL1         0.0833
       9    H6      20.771456   16.824414   21.498403 H          1 MOL1         0.0833
      10    C4      21.463841   18.133467   23.086975 C.3        1 MOL1        -0.1760
      11    H7      20.673572   17.728991   23.727403 H          1 MOL1         0.0833
      12    H8      22.351300   17.539125   23.342153 H          1 MOL1         0.0833
      13    C5      21.721471   19.622769   23.433862 C.3        1 MOL1         0.1219
      14    H9      21.971122   20.179468   22.520672 H          1 MOL1         0.0790
      15    C6      20.535292   20.320938   24.144457 C.3        1 MOL1        -0.1760
      16    H10     20.262780   19.747629   25.040167 H          1 MOL1         0.0833
      17    H11     20.892712   21.291994   24.511996 H          1 MOL1         0.0833
      18    C7      19.263410   20.583417   23.292594 C.3        1 MOL1        -0.1684
      19    H12     19.504041   21.190971   22.410695 H          1 MOL1         0.0833
      20    H13     18.595569   21.210376   23.899072 H          1 MOL1         0.0833
      21    C8      18.472712   19.310389   22.893794 C.3        1 MOL1        -0.1684
      22    H14     17.400891   19.527979   22.998140 H          1 MOL1         0.0833
      23    H15     18.657078   18.502690   23.611036 H          1 MOL1         0.0833
      24    O1      22.838888   19.688354   24.312066 O.3        1 MOL1        -0.5508
      25    H16     23.600063   19.306749   23.826775 H          1 MOL1         0.3780
@<TRIPOS>BOND
    1     1     2    1
    2     1     3    1
    3     1     4    1
    4     4     5    1
    5     4     6    1
    6     4     7    1
    7     7     8    1
    8     7     9    1
    9     7    10    1
   10    10    11    1
   11    10    12    1
   12    10    13    1
   13    13    14    1
   14    13    15    1
   15    15    16    1
   16    15    17    1
   17    15    18    1
   18    18    19    1
   19    18    20    1
   20     1    21    1
   21    18    21    1
   22    21    22    1
   23    21    23    1
   24    13    24    1
   25    24    25    1
@<TRIPOS>SUBSTRUCTURE
       1 MOL1            1 RESIDUE      1      MOL     
@<SCITEGIC>MOL_PROPERTY
VConf Rank
SciTegic.value.IntegerValue
390

@<SCITEGIC>MOL_PROPERTY
Conf_Id
SciTegic.value.IntegerValue
129

@<SCITEGIC>MOL_PROPERTY
Delta U+W
SciTegic.value.DoubleValue
-1.846

@<SCITEGIC>MOL_PROPERTY
U+W
SciTegic.value.DoubleValue
9.067

@<SCITEGIC>MOL_PROPERTY
Grad RMS
SciTegic.value.DoubleValue
0.000000

@<SCITEGIC>MOL_PROPERTY
U
SciTegic.value.DoubleValue
11.150

@<SCITEGIC>MOL_PROPERTY
W
SciTegic.value.DoubleValue
-2.083

@<SCITEGIC>MOL_PROPERTY
W(PB)
SciTegic.value.DoubleValue
-4.217

@<SCITEGIC>MOL_PROPERTY
W(SA)
SciTegic.value.DoubleValue
2.134

@<SCITEGIC>MOL_PROPERTY
Valence
SciTegic.value.DoubleValue
16.583

@<SCITEGIC>MOL_PROPERTY
Coulomb
SciTegic.value.DoubleValue
-8.361

@<SCITEGIC>MOL_PROPERTY
VdW
SciTegic.value.DoubleValue
2.928

@<SCITEGIC>MOL_PROPERTY
VdW6
SciTegic.value.DoubleValue
-12.539

@<SCITEGIC>MOL_PROPERTY
VdW12
SciTegic.value.DoubleValue
15.467

@<SCITEGIC>MOL_PROPERTY
Bond
SciTegic.value.DoubleValue
0.441

@<SCITEGIC>MOL_PROPERTY
Angle
SciTegic.value.DoubleValue
5.093

@<SCITEGIC>MOL_PROPERTY
Pdih
SciTegic.value.DoubleValue
11.049

@<SCITEGIC>MOL_PROPERTY
Idih
SciTegic.value.DoubleValue
0.000

@<SCITEGIC>MOL_PROPERTY
Tether
SciTegic.value.DoubleValue
0.000

@<TRIPOS>MOLECULE
guest-s17_confgen4.mol2 : confsearch ligand conformer 391
          25          25           1
SMALL
USER_CHARGES
 
@<TRIPOS>ATOM
       1    C1      20.641105   17.234428   22.216281 C.3        1 MOL1        -0.1684
       2    H1      20.211747   16.760151   21.323409 H          1 MOL1         0.0833
       3    H2      21.236875   16.453722   22.708697 H          1 MOL1         0.0833
       4    C2      19.498824   17.625271   23.187184 C.3        1 MOL1        -0.1684
       5    H3      18.978279   16.699291   23.467181 H          1 MOL1         0.0833
       6    H4      19.911759   18.004504   24.128920 H          1 MOL1         0.0833
       7    C3      18.432413   18.600803   22.629177 C.3        1 MOL1        -0.1684
       8    H5      17.637959   18.688161   23.383010 H          1 MOL1         0.0833
       9    H6      17.957004   18.152583   21.746238 H          1 MOL1         0.0833
      10    C4      18.907587   20.033420   22.272677 C.3        1 MOL1        -0.1760
      11    H7      19.373770   20.041131   21.282145 H          1 MOL1         0.0833
      12    H8      18.005763   20.650239   22.159257 H          1 MOL1         0.0833
      13    C5      19.848837   20.691098   23.314829 C.3        1 MOL1         0.1219
      14    H9      19.738876   20.185912   24.283625 H          1 MOL1         0.0790
      15    C6      21.344078   20.696473   22.908472 C.3        1 MOL1        -0.1760
      16    H10     21.454174   21.173863   21.926030 H          1 MOL1         0.0833
      17    H11     21.879543   21.343714   23.615996 H          1 MOL1         0.0833
      18    C7      22.071300   19.324640   22.892861 C.3        1 MOL1        -0.1684
      19    H12     22.014558   18.842392   23.877243 H          1 MOL1         0.0833
      20    H13     23.139108   19.529595   22.735555 H          1 MOL1         0.0833
      21    C8      21.612009   18.358284   21.770473 C.3        1 MOL1        -0.1684
      22    H14     22.503600   17.868131   21.355905 H          1 MOL1         0.0833
      23    H15     21.192843   18.918849   20.927345 H          1 MOL1         0.0833
      24    O1      19.451343   22.046472   23.479521 O.3        1 MOL1        -0.5508
      25    H16     19.562018   22.475284   22.606129 H          1 MOL1         0.3780
@<TRIPOS>BOND
    1     1     2    1
    2     1     3    1
    3     1     4    1
    4     4     5    1
    5     4     6    1
    6     4     7    1
    7     7     8    1
    8     7     9    1
    9     7    10    1
   10    10    11    1
   11    10    12    1
   12    10    13    1
   13    13    14    1
   14    13    15    1
   15    15    16    1
   16    15    17    1
   17    15    18    1
   18    18    19    1
   19    18    20    1
   20     1    21    1
   21    18    21    1
   22    21    22    1
   23    21    23    1
   24    13    24    1
   25    24    25    1
@<TRIPOS>SUBSTRUCTURE
       1 MOL1            1 RESIDUE      1      MOL     
@<SCITEGIC>MOL_PROPERTY
VConf Rank
SciTegic.value.IntegerValue
391

@<SCITEGIC>MOL_PROPERTY
Conf_Id
SciTegic.value.IntegerValue
140

@<SCITEGIC>MOL_PROPERTY
Delta U+W
SciTegic.value.DoubleValue
-1.702

@<SCITEGIC>MOL_PROPERTY
U+W
SciTegic.value.DoubleValue
9.211

@<SCITEGIC>MOL_PROPERTY
Grad RMS
SciTegic.value.DoubleValue
0.000000

@<SCITEGIC>MOL_PROPERTY
U
SciTegic.value.DoubleValue
11.181

@<SCITEGIC>MOL_PROPERTY
W
SciTegic.value.DoubleValue
-1.969

@<SCITEGIC>MOL_PROPERTY
W(PB)
SciTegic.value.DoubleValue
-4.093

@<SCITEGIC>MOL_PROPERTY
W(SA)
SciTegic.value.DoubleValue
2.124

@<SCITEGIC>MOL_PROPERTY
Valence
SciTegic.value.DoubleValue
16.954

@<SCITEGIC>MOL_PROPERTY
Coulomb
SciTegic.value.DoubleValue
-8.661

@<SCITEGIC>MOL_PROPERTY
VdW
SciTegic.value.DoubleValue
2.887

@<SCITEGIC>MOL_PROPERTY
VdW6
SciTegic.value.DoubleValue
-12.561

@<SCITEGIC>MOL_PROPERTY
VdW12
SciTegic.value.DoubleValue
15.448

@<SCITEGIC>MOL_PROPERTY
Bond
SciTegic.value.DoubleValue
0.433

@<SCITEGIC>MOL_PROPERTY
Angle
SciTegic.value.DoubleValue
5.120

@<SCITEGIC>MOL_PROPERTY
Pdih
SciTegic.value.DoubleValue
11.401

@<SCITEGIC>MOL_PROPERTY
Idih
SciTegic.value.DoubleValue
0.000

@<SCITEGIC>MOL_PROPERTY
Tether
SciTegic.value.DoubleValue
0.000

@<TRIPOS>MOLECULE
guest-s17_confgen4.mol2 : confsearch ligand conformer 392
          25          25           1
SMALL
USER_CHARGES
 
@<TRIPOS>ATOM
       1    C1      19.359847   20.550277   23.882312 C.3        1 MOL1        -0.1684
       2    H1      19.469323   20.489539   24.973566 H          1 MOL1         0.0833
       3    H2      18.709602   21.416324   23.697750 H          1 MOL1         0.0833
       4    C2      18.615417   19.285806   23.380929 C.3        1 MOL1        -0.1684
       5    H3      18.973030   18.393236   23.906510 H          1 MOL1         0.0833
       6    H4      17.566655   19.384365   23.693078 H          1 MOL1         0.0833
       7    C3      18.642615   19.062288   21.846704 C.3        1 MOL1        -0.1684
       8    H5      18.784424   20.010167   21.311717 H          1 MOL1         0.0833
       9    H6      17.646059   18.710449   21.546619 H          1 MOL1         0.0833
      10    C4      19.663906   17.997796   21.362105 C.3        1 MOL1        -0.1760
      11    H7      19.470732   17.050268   21.881807 H          1 MOL1         0.0833
      12    H8      19.456811   17.803396   20.301183 H          1 MOL1         0.0833
      13    C5      21.165159   18.359512   21.489737 C.3        1 MOL1         0.1219
      14    H9      21.348733   19.322583   20.995099 H          1 MOL1         0.0790
      15    C6      21.685636   18.414110   22.949427 C.3        1 MOL1        -0.1760
      16    H10     21.040611   17.819945   23.604751 H          1 MOL1         0.0833
      17    H11     22.665354   17.920267   23.003146 H          1 MOL1         0.0833
      18    C7      21.867433   19.841271   23.528594 C.3        1 MOL1        -0.1684
      19    H12     22.797788   20.255258   23.116155 H          1 MOL1         0.0833
      20    H13     22.028871   19.768447   24.612629 H          1 MOL1         0.0833
      21    C8      20.737623   20.863192   23.246680 C.3        1 MOL1        -0.1684
      22    H14     20.631083   21.031209   22.168895 H          1 MOL1         0.0833
      23    H15     21.067863   21.831983   23.645667 H          1 MOL1         0.0833
      24    O1      21.900475   17.361543   20.792938 O.3        1 MOL1        -0.5508
      25    H16     21.717694   16.514384   21.248849 H          1 MOL1         0.3780
@<TRIPOS>BOND
    1     1     2    1
    2     1     3    1
    3     1     4    1
    4     4     5    1
    5     4     6    1
    6     4     7    1
    7     7     8    1
    8     7     9    1
    9     7    10    1
   10    10    11    1
   11    10    12    1
   12    10    13    1
   13    13    14    1
   14    13    15    1
   15    15    16    1
   16    15    17    1
   17    15    18    1
   18    18    19    1
   19    18    20    1
   20     1    21    1
   21    18    21    1
   22    21    22    1
   23    21    23    1
   24    13    24    1
   25    24    25    1
@<TRIPOS>SUBSTRUCTURE
       1 MOL1            1 RESIDUE      1      MOL     
@<SCITEGIC>MOL_PROPERTY
VConf Rank
SciTegic.value.IntegerValue
392

@<SCITEGIC>MOL_PROPERTY
Conf_Id
SciTegic.value.IntegerValue
68

@<SCITEGIC>MOL_PROPERTY
Delta U+W
SciTegic.value.DoubleValue
-1.765

@<SCITEGIC>MOL_PROPERTY
U+W
SciTegic.value.DoubleValue
9.148

@<SCITEGIC>MOL_PROPERTY
Grad RMS
SciTegic.value.DoubleValue
0.000000

@<SCITEGIC>MOL_PROPERTY
U
SciTegic.value.DoubleValue
11.181

@<SCITEGIC>MOL_PROPERTY
W
SciTegic.value.DoubleValue
-2.032

@<SCITEGIC>MOL_PROPERTY
W(PB)
SciTegic.value.DoubleValue
-4.147

@<SCITEGIC>MOL_PROPERTY
W(SA)
SciTegic.value.DoubleValue
2.114

@<SCITEGIC>MOL_PROPERTY
Valence
SciTegic.value.DoubleValue
16.955

@<SCITEGIC>MOL_PROPERTY
Coulomb
SciTegic.value.DoubleValue
-8.661

@<SCITEGIC>MOL_PROPERTY
VdW
SciTegic.value.DoubleValue
2.887

@<SCITEGIC>MOL_PROPERTY
VdW6
SciTegic.value.DoubleValue
-12.561

@<SCITEGIC>MOL_PROPERTY
VdW12
SciTegic.value.DoubleValue
15.448

@<SCITEGIC>MOL_PROPERTY
Bond
SciTegic.value.DoubleValue
0.433

@<SCITEGIC>MOL_PROPERTY
Angle
SciTegic.value.DoubleValue
5.121

@<SCITEGIC>MOL_PROPERTY
Pdih
SciTegic.value.DoubleValue
11.402

@<SCITEGIC>MOL_PROPERTY
Idih
SciTegic.value.DoubleValue
0.000

@<SCITEGIC>MOL_PROPERTY
Tether
SciTegic.value.DoubleValue
0.000

@<TRIPOS>MOLECULE
guest-s17_confgen4.mol2 : confsearch ligand conformer 393
          25          25           1
SMALL
USER_CHARGES
 
@<TRIPOS>ATOM
       1    C1      21.355517   17.820590   22.055976 C.3        1 MOL1        -0.1684
       2    H1      21.953905   16.942225   21.777616 H          1 MOL1         0.0833
       3    H2      21.920103   18.670881   21.657051 H          1 MOL1         0.0833
       4    C2      21.290353   17.887181   23.604078 C.3        1 MOL1        -0.1684
       5    H3      20.379751   17.405606   23.982896 H          1 MOL1         0.0833
       6    H4      22.118300   17.280377   23.995627 H          1 MOL1         0.0833
       7    C3      21.450200   19.309742   24.201884 C.3        1 MOL1        -0.1684
       8    H5      22.391255   19.750972   23.845788 H          1 MOL1         0.0833
       9    H6      21.567887   19.203463   25.288939 H          1 MOL1         0.0833
      10    C4      20.288212   20.306707   23.948114 C.3        1 MOL1        -0.1760
      11    H7      19.343795   19.895749   24.324607 H          1 MOL1         0.0833
      12    H8      20.487295   21.189212   24.571141 H          1 MOL1         0.0833
      13    C5      20.144592   20.764710   22.473498 C.3        1 MOL1         0.1219
      14    H9      21.088516   20.578971   21.948091 H          1 MOL1         0.0790
      15    C6      18.988535   20.090469   21.694412 C.3        1 MOL1        -0.1760
      16    H10     18.043308   20.558670   21.999220 H          1 MOL1         0.0833
      17    H11     19.108256   20.321877   20.628015 H          1 MOL1         0.0833
      18    C7      18.820822   18.558180   21.861822 C.3        1 MOL1        -0.1684
      19    H12     17.918690   18.265550   21.307522 H          1 MOL1         0.0833
      20    H13     18.597032   18.308696   22.905367 H          1 MOL1         0.0833
      21    C8      19.987785   17.684253   21.337811 C.3        1 MOL1        -0.1684
      22    H14     20.128480   17.871308   20.264591 H          1 MOL1         0.0833
      23    H15     19.672035   16.634911   21.416424 H          1 MOL1         0.0833
      24    O1      19.910962   22.167487   22.455656 O.3        1 MOL1        -0.5508
      25    H16     19.075011   22.315346   22.943727 H          1 MOL1         0.3780
@<TRIPOS>BOND
    1     1     2    1
    2     1     3    1
    3     1     4    1
    4     4     5    1
    5     4     6    1
    6     4     7    1
    7     7     8    1
    8     7     9    1
    9     7    10    1
   10    10    11    1
   11    10    12    1
   12    10    13    1
   13    13    14    1
   14    13    15    1
   15    15    16    1
   16    15    17    1
   17    15    18    1
   18    18    19    1
   19    18    20    1
   20     1    21    1
   21    18    21    1
   22    21    22    1
   23    21    23    1
   24    13    24    1
   25    24    25    1
@<TRIPOS>SUBSTRUCTURE
       1 MOL1            1 RESIDUE      1      MOL     
@<SCITEGIC>MOL_PROPERTY
VConf Rank
SciTegic.value.IntegerValue
393

@<SCITEGIC>MOL_PROPERTY
Conf_Id
SciTegic.value.IntegerValue
165

@<SCITEGIC>MOL_PROPERTY
Delta U+W
SciTegic.value.DoubleValue
-1.999

@<SCITEGIC>MOL_PROPERTY
U+W
SciTegic.value.DoubleValue
8.915

@<SCITEGIC>MOL_PROPERTY
Grad RMS
SciTegic.value.DoubleValue
0.000000

@<SCITEGIC>MOL_PROPERTY
U
SciTegic.value.DoubleValue
10.935

@<SCITEGIC>MOL_PROPERTY
W
SciTegic.value.DoubleValue
-2.020

@<SCITEGIC>MOL_PROPERTY
W(PB)
SciTegic.value.DoubleValue
-4.135

@<SCITEGIC>MOL_PROPERTY
W(SA)
SciTegic.value.DoubleValue
2.115

@<SCITEGIC>MOL_PROPERTY
Valence
SciTegic.value.DoubleValue
16.757

@<SCITEGIC>MOL_PROPERTY
Coulomb
SciTegic.value.DoubleValue
-8.731

@<SCITEGIC>MOL_PROPERTY
VdW
SciTegic.value.DoubleValue
2.908

@<SCITEGIC>MOL_PROPERTY
VdW6
SciTegic.value.DoubleValue
-12.597

@<SCITEGIC>MOL_PROPERTY
VdW12
SciTegic.value.DoubleValue
15.506

@<SCITEGIC>MOL_PROPERTY
Bond
SciTegic.value.DoubleValue
0.434

@<SCITEGIC>MOL_PROPERTY
Angle
SciTegic.value.DoubleValue
5.069

@<SCITEGIC>MOL_PROPERTY
Pdih
SciTegic.value.DoubleValue
11.254

@<SCITEGIC>MOL_PROPERTY
Idih
SciTegic.value.DoubleValue
0.000

@<SCITEGIC>MOL_PROPERTY
Tether
SciTegic.value.DoubleValue
0.000

@<TRIPOS>MOLECULE
guest-s17_confgen4.mol2 : confsearch ligand conformer 394
          25          25           1
SMALL
USER_CHARGES
 
@<TRIPOS>ATOM
       1    C1      22.093538   18.755021   22.701403 C.3        1 MOL1        -0.1684
       2    H1      23.178376   18.587862   22.749040 H          1 MOL1         0.0833
       3    H2      21.670071   17.752171   22.575830 H          1 MOL1         0.0833
       4    C2      21.823396   19.626613   21.447289 C.3        1 MOL1        -0.1684
       5    H3      22.601413   20.401146   21.404918 H          1 MOL1         0.0833
       6    H4      21.968218   19.012481   20.548158 H          1 MOL1         0.0833
       7    C3      20.452891   20.344228   21.363123 C.3        1 MOL1        -0.1684
       8    H5      20.473143   20.985103   20.471176 H          1 MOL1         0.0833
       9    H6      20.335644   21.040877   22.201112 H          1 MOL1         0.0833
      10    C4      19.209162   19.426146   21.243556 C.3        1 MOL1        -0.1760
      11    H7      18.336495   20.073966   21.084509 H          1 MOL1         0.0833
      12    H8      19.303890   18.817439   20.335140 H          1 MOL1         0.0833
      13    C5      18.904594   18.489403   22.438341 C.3        1 MOL1         0.1219
      14    H9      19.579818   17.626466   22.402685 H          1 MOL1         0.0790
      15    C6      19.018762   19.160713   23.831356 C.3        1 MOL1        -0.1760
      16    H10     18.903425   20.248099   23.751306 H          1 MOL1         0.0833
      17    H11     18.171990   18.828278   24.446984 H          1 MOL1         0.0833
      18    C7      20.311877   18.807291   24.613619 C.3        1 MOL1        -0.1684
      19    H12     20.391057   17.715702   24.709276 H          1 MOL1         0.0833
      20    H13     20.195837   19.184877   25.638674 H          1 MOL1         0.0833
      21    C8      21.642589   19.372410   24.050845 C.3        1 MOL1        -0.1684
      22    H14     22.423025   19.151768   24.791957 H          1 MOL1         0.0833
      23    H15     21.606402   20.467791   23.992212 H          1 MOL1         0.0833
      24    O1      17.574520   18.009957   22.275402 O.3        1 MOL1        -0.5508
      25    H16     17.543403   17.552783   21.409110 H          1 MOL1         0.3780
@<TRIPOS>BOND
    1     1     2    1
    2     1     3    1
    3     1     4    1
    4     4     5    1
    5     4     6    1
    6     4     7    1
    7     7     8    1
    8     7     9    1
    9     7    10    1
   10    10    11    1
   11    10    12    1
   12    10    13    1
   13    13    14    1
   14    13    15    1
   15    15    16    1
   16    15    17    1
   17    15    18    1
   18    18    19    1
   19    18    20    1
   20     1    21    1
   21    18    21    1
   22    21    22    1
   23    21    23    1
   24    13    24    1
   25    24    25    1
@<TRIPOS>SUBSTRUCTURE
       1 MOL1            1 RESIDUE      1      MOL     
@<SCITEGIC>MOL_PROPERTY
VConf Rank
SciTegic.value.IntegerValue
394

@<SCITEGIC>MOL_PROPERTY
Conf_Id
SciTegic.value.IntegerValue
133

@<SCITEGIC>MOL_PROPERTY
Delta U+W
SciTegic.value.DoubleValue
-2.139

@<SCITEGIC>MOL_PROPERTY
U+W
SciTegic.value.DoubleValue
8.774

@<SCITEGIC>MOL_PROPERTY
Grad RMS
SciTegic.value.DoubleValue
0.000000

@<SCITEGIC>MOL_PROPERTY
U
SciTegic.value.DoubleValue
10.905

@<SCITEGIC>MOL_PROPERTY
W
SciTegic.value.DoubleValue
-2.131

@<SCITEGIC>MOL_PROPERTY
W(PB)
SciTegic.value.DoubleValue
-4.281

@<SCITEGIC>MOL_PROPERTY
W(SA)
SciTegic.value.DoubleValue
2.150

@<SCITEGIC>MOL_PROPERTY
Valence
SciTegic.value.DoubleValue
16.378

@<SCITEGIC>MOL_PROPERTY
Coulomb
SciTegic.value.DoubleValue
-8.448

@<SCITEGIC>MOL_PROPERTY
VdW
SciTegic.value.DoubleValue
2.976

@<SCITEGIC>MOL_PROPERTY
VdW6
SciTegic.value.DoubleValue
-12.570

@<SCITEGIC>MOL_PROPERTY
VdW12
SciTegic.value.DoubleValue
15.545

@<SCITEGIC>MOL_PROPERTY
Bond
SciTegic.value.DoubleValue
0.439

@<SCITEGIC>MOL_PROPERTY
Angle
SciTegic.value.DoubleValue
5.049

@<SCITEGIC>MOL_PROPERTY
Pdih
SciTegic.value.DoubleValue
10.889

@<SCITEGIC>MOL_PROPERTY
Idih
SciTegic.value.DoubleValue
0.000

@<SCITEGIC>MOL_PROPERTY
Tether
SciTegic.value.DoubleValue
0.000

@<TRIPOS>MOLECULE
guest-s17_confgen4.mol2 : confsearch ligand conformer 395
          25          25           1
SMALL
USER_CHARGES
 
@<TRIPOS>ATOM
       1    C1      19.231930   17.739999   22.770902 C.3        1 MOL1        -0.1684
       2    H1      18.667223   16.798050   22.801279 H          1 MOL1         0.0833
       3    H2      18.499346   18.504389   23.053445 H          1 MOL1         0.0833
       4    C2      19.718094   17.962258   21.314959 C.3        1 MOL1        -0.1684
       5    H3      20.739318   17.584553   21.176943 H          1 MOL1         0.0833
       6    H4      19.092733   17.340586   20.659628 H          1 MOL1         0.0833
       7    C3      19.597498   19.421922   20.803382 C.3        1 MOL1        -0.1684
       8    H5      18.557024   19.759306   20.906208 H          1 MOL1         0.0833
       9    H6      19.799253   19.414952   19.723558 H          1 MOL1         0.0833
      10    C4      20.542065   20.468145   21.453152 C.3        1 MOL1        -0.1760
      11    H7      21.589357   20.166267   21.334127 H          1 MOL1         0.0833
      12    H8      20.443517   21.393520   20.869629 H          1 MOL1         0.0833
      13    C5      20.225139   20.788788   22.936705 C.3        1 MOL1         0.1219
      14    H9      19.194609   20.484622   23.154300 H          1 MOL1         0.0790
      15    C6      21.180377   20.124976   23.958772 C.3        1 MOL1        -0.1760
      16    H10     22.123804   20.687516   23.962008 H          1 MOL1         0.0833
      17    H11     20.755157   20.241223   24.963955 H          1 MOL1         0.0833
      18    C7      21.531356   18.631683   23.733127 C.3        1 MOL1        -0.1684
      19    H12     22.268377   18.349959   24.497411 H          1 MOL1         0.0833
      20    H13     22.057771   18.501591   22.780628 H          1 MOL1         0.0833
      21    C8      20.352512   17.631815   23.837696 C.3        1 MOL1        -0.1684
      22    H14     19.901945   17.703944   24.836873 H          1 MOL1         0.0833
      23    H15     20.775509   16.619730   23.776339 H          1 MOL1         0.0833
      24    O1      20.313337   22.196919   23.123518 O.3        1 MOL1        -0.5508
      25    H16     20.065119   22.374200   24.054860 H          1 MOL1         0.3780
@<TRIPOS>BOND
    1     1     2    1
    2     1     3    1
    3     1     4    1
    4     4     5    1
    5     4     6    1
    6     4     7    1
    7     7     8    1
    8     7     9    1
    9     7    10    1
   10    10    11    1
   11    10    12    1
   12    10    13    1
   13    13    14    1
   14    13    15    1
   15    15    16    1
   16    15    17    1
   17    15    18    1
   18    18    19    1
   19    18    20    1
   20     1    21    1
   21    18    21    1
   22    21    22    1
   23    21    23    1
   24    13    24    1
   25    24    25    1
@<TRIPOS>SUBSTRUCTURE
       1 MOL1            1 RESIDUE      1      MOL     
@<SCITEGIC>MOL_PROPERTY
VConf Rank
SciTegic.value.IntegerValue
395

@<SCITEGIC>MOL_PROPERTY
Conf_Id
SciTegic.value.IntegerValue
95

@<SCITEGIC>MOL_PROPERTY
Delta U+W
SciTegic.value.DoubleValue
-2.190

@<SCITEGIC>MOL_PROPERTY
U+W
SciTegic.value.DoubleValue
8.723

@<SCITEGIC>MOL_PROPERTY
Grad RMS
SciTegic.value.DoubleValue
0.000000

@<SCITEGIC>MOL_PROPERTY
U
SciTegic.value.DoubleValue
10.905

@<SCITEGIC>MOL_PROPERTY
W
SciTegic.value.DoubleValue
-2.182

@<SCITEGIC>MOL_PROPERTY
W(PB)
SciTegic.value.DoubleValue
-4.296

@<SCITEGIC>MOL_PROPERTY
W(SA)
SciTegic.value.DoubleValue
2.114

@<SCITEGIC>MOL_PROPERTY
Valence
SciTegic.value.DoubleValue
16.377

@<SCITEGIC>MOL_PROPERTY
Coulomb
SciTegic.value.DoubleValue
-8.448

@<SCITEGIC>MOL_PROPERTY
VdW
SciTegic.value.DoubleValue
2.976

@<SCITEGIC>MOL_PROPERTY
VdW6
SciTegic.value.DoubleValue
-12.570

@<SCITEGIC>MOL_PROPERTY
VdW12
SciTegic.value.DoubleValue
15.546

@<SCITEGIC>MOL_PROPERTY
Bond
SciTegic.value.DoubleValue
0.439

@<SCITEGIC>MOL_PROPERTY
Angle
SciTegic.value.DoubleValue
5.049

@<SCITEGIC>MOL_PROPERTY
Pdih
SciTegic.value.DoubleValue
10.889

@<SCITEGIC>MOL_PROPERTY
Idih
SciTegic.value.DoubleValue
0.000

@<SCITEGIC>MOL_PROPERTY
Tether
SciTegic.value.DoubleValue
0.000

@<TRIPOS>MOLECULE
guest-s17_confgen4.mol2 : confsearch ligand conformer 396
          25          25           1
SMALL
USER_CHARGES
 
@<TRIPOS>ATOM
       1    C1      21.891155   18.304838   22.824698 C.3        1 MOL1        -0.1684
       2    H1      22.895348   17.884325   22.971887 H          1 MOL1         0.0833
       3    H2      21.444162   17.639669   22.079055 H          1 MOL1         0.0833
       4    C2      22.078286   19.739920   22.250469 C.3        1 MOL1        -0.1684
       5    H3      22.983100   20.161197   22.709575 H          1 MOL1         0.0833
       6    H4      22.301946   19.668085   21.177488 H          1 MOL1         0.0833
       7    C3      20.940164   20.771204   22.468705 C.3        1 MOL1        -0.1684
       8    H5      21.298733   21.743882   22.105188 H          1 MOL1         0.0833
       9    H6      20.801438   20.934650   23.542049 H          1 MOL1         0.0833
      10    C4      19.576427   20.493936   21.768801 C.3        1 MOL1        -0.1760
      11    H7      18.791629   21.064727   22.282280 H          1 MOL1         0.0833
      12    H8      19.641171   20.920197   20.759161 H          1 MOL1         0.0833
      13    C5      19.115350   19.022155   21.617268 C.3        1 MOL1         0.1219
      14    H9      19.888681   18.479708   21.063620 H          1 MOL1         0.0790
      15    C6      18.775136   18.251869   22.925513 C.3        1 MOL1        -0.1760
      16    H10     17.727971   18.464047   23.179955 H          1 MOL1         0.0833
      17    H11     18.814618   17.176155   22.712044 H          1 MOL1         0.0833
      18    C7      19.616090   18.544481   24.197595 C.3        1 MOL1        -0.1684
      19    H12     19.160374   17.992260   25.030714 H          1 MOL1         0.0833
      20    H13     19.485614   19.592804   24.484066 H          1 MOL1         0.0833
      21    C8      21.124941   18.162516   24.166338 C.3        1 MOL1        -0.1684
      22    H14     21.203676   17.109597   24.469704 H          1 MOL1         0.0833
      23    H15     21.651344   18.731008   24.944901 H          1 MOL1         0.0833
      24    O1      17.942724   19.024976   20.811319 O.3        1 MOL1        -0.5508
      25    H16     18.183002   19.453740   19.963685 H          1 MOL1         0.3780
@<TRIPOS>BOND
    1     1     2    1
    2     1     3    1
    3     1     4    1
    4     4     5    1
    5     4     6    1
    6     4     7    1
    7     7     8    1
    8     7     9    1
    9     7    10    1
   10    10    11    1
   11    10    12    1
   12    10    13    1
   13    13    14    1
   14    13    15    1
   15    15    16    1
   16    15    17    1
   17    15    18    1
   18    18    19    1
   19    18    20    1
   20     1    21    1
   21    18    21    1
   22    21    22    1
   23    21    23    1
   24    13    24    1
   25    24    25    1
@<TRIPOS>SUBSTRUCTURE
       1 MOL1            1 RESIDUE      1      MOL     
@<SCITEGIC>MOL_PROPERTY
VConf Rank
SciTegic.value.IntegerValue
396

@<SCITEGIC>MOL_PROPERTY
Conf_Id
SciTegic.value.IntegerValue
161

@<SCITEGIC>MOL_PROPERTY
Delta U+W
SciTegic.value.DoubleValue
2.120

@<SCITEGIC>MOL_PROPERTY
U+W
SciTegic.value.DoubleValue
13.033

@<SCITEGIC>MOL_PROPERTY
Grad RMS
SciTegic.value.DoubleValue
0.000000

@<SCITEGIC>MOL_PROPERTY
U
SciTegic.value.DoubleValue
15.076

@<SCITEGIC>MOL_PROPERTY
W
SciTegic.value.DoubleValue
-2.043

@<SCITEGIC>MOL_PROPERTY
W(PB)
SciTegic.value.DoubleValue
-4.186

@<SCITEGIC>MOL_PROPERTY
W(SA)
SciTegic.value.DoubleValue
2.143

@<SCITEGIC>MOL_PROPERTY
Valence
SciTegic.value.DoubleValue
18.884

@<SCITEGIC>MOL_PROPERTY
Coulomb
SciTegic.value.DoubleValue
-8.074

@<SCITEGIC>MOL_PROPERTY
VdW
SciTegic.value.DoubleValue
4.266

@<SCITEGIC>MOL_PROPERTY
VdW6
SciTegic.value.DoubleValue
-13.486

@<SCITEGIC>MOL_PROPERTY
VdW12
SciTegic.value.DoubleValue
17.752

@<SCITEGIC>MOL_PROPERTY
Bond
SciTegic.value.DoubleValue
0.713

@<SCITEGIC>MOL_PROPERTY
Angle
SciTegic.value.DoubleValue
8.955

@<SCITEGIC>MOL_PROPERTY
Pdih
SciTegic.value.DoubleValue
9.215

@<SCITEGIC>MOL_PROPERTY
Idih
SciTegic.value.DoubleValue
0.000

@<SCITEGIC>MOL_PROPERTY
Tether
SciTegic.value.DoubleValue
0.000

@<TRIPOS>MOLECULE
guest-s17_confgen4.mol2 : confsearch ligand conformer 397
          25          25           1
SMALL
USER_CHARGES
 
@<TRIPOS>ATOM
       1    C1      21.129570   17.487651   22.082426 C.3        1 MOL1        -0.1684
       2    H1      21.810735   16.668405   21.814404 H          1 MOL1         0.0833
       3    H2      20.139445   17.146343   21.754711 H          1 MOL1         0.0833
       4    C2      21.549637   18.742122   21.276496 C.3        1 MOL1        -0.1684
       5    H3      22.332989   19.301546   21.805259 H          1 MOL1         0.0833
       6    H4      22.023136   18.382831   20.352440 H          1 MOL1         0.0833
       7    C3      20.382586   19.675631   20.850017 C.3        1 MOL1        -0.1684
       8    H5      19.489717   19.095900   20.579864 H          1 MOL1         0.0833
       9    H6      20.697219   20.173008   19.922211 H          1 MOL1         0.0833
      10    C4      20.027010   20.796118   21.861227 C.3        1 MOL1        -0.1760
      11    H7      20.935632   21.140343   22.370033 H          1 MOL1         0.0833
      12    H8      19.677971   21.664700   21.287319 H          1 MOL1         0.0833
      13    C5      18.910062   20.466762   22.883863 C.3        1 MOL1         0.1219
      14    H9      17.956432   20.420346   22.338694 H          1 MOL1         0.0790
      15    C6      19.061640   19.141251   23.665482 C.3        1 MOL1        -0.1760
      16    H10     18.345430   19.148838   24.497990 H          1 MOL1         0.0833
      17    H11     18.731258   18.313156   23.029188 H          1 MOL1         0.0833
      18    C7      20.482561   18.873692   24.229951 C.3        1 MOL1        -0.1684
      19    H12     20.410136   18.732777   25.316977 H          1 MOL1         0.0833
      20    H13     21.131938   19.747204   24.101941 H          1 MOL1         0.0833
      21    C8      21.175735   17.628445   23.627000 C.3        1 MOL1        -0.1684
      22    H14     20.726242   16.727309   24.066000 H          1 MOL1         0.0833
      23    H15     22.224987   17.627571   23.952346 H          1 MOL1         0.0833
      24    O1      18.848474   21.530616   23.823431 O.3        1 MOL1        -0.5508
      25    H16     19.652401   21.447490   24.375337 H          1 MOL1         0.3780
@<TRIPOS>BOND
    1     1     2    1
    2     1     3    1
    3     1     4    1
    4     4     5    1
    5     4     6    1
    6     4     7    1
    7     7     8    1
    8     7     9    1
    9     7    10    1
   10    10    11    1
   11    10    12    1
   12    10    13    1
   13    13    14    1
   14    13    15    1
   15    15    16    1
   16    15    17    1
   17    15    18    1
   18    18    19    1
   19    18    20    1
   20     1    21    1
   21    18    21    1
   22    21    22    1
   23    21    23    1
   24    13    24    1
   25    24    25    1
@<TRIPOS>SUBSTRUCTURE
       1 MOL1            1 RESIDUE      1      MOL     
@<SCITEGIC>MOL_PROPERTY
VConf Rank
SciTegic.value.IntegerValue
397

@<SCITEGIC>MOL_PROPERTY
Conf_Id
SciTegic.value.IntegerValue
164

@<SCITEGIC>MOL_PROPERTY
Delta U+W
SciTegic.value.DoubleValue
0.008

@<SCITEGIC>MOL_PROPERTY
U+W
SciTegic.value.DoubleValue
10.922

@<SCITEGIC>MOL_PROPERTY
Grad RMS
SciTegic.value.DoubleValue
0.000000

@<SCITEGIC>MOL_PROPERTY
U
SciTegic.value.DoubleValue
12.433

@<SCITEGIC>MOL_PROPERTY
W
SciTegic.value.DoubleValue
-1.511

@<SCITEGIC>MOL_PROPERTY
W(PB)
SciTegic.value.DoubleValue
-3.669

@<SCITEGIC>MOL_PROPERTY
W(SA)
SciTegic.value.DoubleValue
2.157

@<SCITEGIC>MOL_PROPERTY
Valence
SciTegic.value.DoubleValue
19.007

@<SCITEGIC>MOL_PROPERTY
Coulomb
SciTegic.value.DoubleValue
-9.373

@<SCITEGIC>MOL_PROPERTY
VdW
SciTegic.value.DoubleValue
2.799

@<SCITEGIC>MOL_PROPERTY
VdW6
SciTegic.value.DoubleValue
-12.597

@<SCITEGIC>MOL_PROPERTY
VdW12
SciTegic.value.DoubleValue
15.396

@<SCITEGIC>MOL_PROPERTY
Bond
SciTegic.value.DoubleValue
0.425

@<SCITEGIC>MOL_PROPERTY
Angle
SciTegic.value.DoubleValue
4.784

@<SCITEGIC>MOL_PROPERTY
Pdih
SciTegic.value.DoubleValue
13.799

@<SCITEGIC>MOL_PROPERTY
Idih
SciTegic.value.DoubleValue
0.000

@<SCITEGIC>MOL_PROPERTY
Tether
SciTegic.value.DoubleValue
0.000

@<TRIPOS>MOLECULE
guest-s17_confgen4.mol2 : confsearch ligand conformer 398
          25          25           1
SMALL
USER_CHARGES
 
@<TRIPOS>ATOM
       1    C1      20.161497   18.779163   24.397033 C.3        1 MOL1        -0.1684
       2    H1      21.234301   18.927740   24.229888 H          1 MOL1         0.0833
       3    H2      20.081143   18.518827   25.461195 H          1 MOL1         0.0833
       4    C2      19.651520   17.561742   23.586152 C.3        1 MOL1        -0.1684
       5    H3      20.212826   16.681085   23.927152 H          1 MOL1         0.0833
       6    H4      18.603033   17.364960   23.847799 H          1 MOL1         0.0833
       7    C3      19.779313   17.636558   22.043157 C.3        1 MOL1        -0.1684
       8    H5      18.937109   18.190783   21.613517 H          1 MOL1         0.0833
       9    H6      19.660277   16.614418   21.658367 H          1 MOL1         0.0833
      10    C4      21.126512   18.198886   21.516261 C.3        1 MOL1        -0.1760
      11    H7      21.925452   18.060295   22.254683 H          1 MOL1         0.0833
      12    H8      21.419990   17.586877   20.652806 H          1 MOL1         0.0833
      13    C5      21.074030   19.669434   21.031280 C.3        1 MOL1         0.1219
      14    H9      20.258305   19.759905   20.299838 H          1 MOL1         0.0790
      15    C6      20.867270   20.751150   22.121059 C.3        1 MOL1        -0.1760
      16    H10     21.657691   20.696513   22.879365 H          1 MOL1         0.0833
      17    H11     20.999505   21.726483   21.633741 H          1 MOL1         0.0833
      18    C7      19.462811   20.752611   22.781569 C.3        1 MOL1        -0.1684
      19    H12     18.723067   20.298003   22.112858 H          1 MOL1         0.0833
      20    H13     19.134023   21.795663   22.886187 H          1 MOL1         0.0833
      21    C8      19.392889   20.108038   24.189548 C.3        1 MOL1        -0.1684
      22    H14     18.339015   19.964297   24.463766 H          1 MOL1         0.0833
      23    H15     19.790982   20.834288   24.911340 H          1 MOL1         0.0833
      24    O1      22.301817   19.950065   20.373264 O.3        1 MOL1        -0.5508
      25    H16     23.004265   19.861025   21.049595 H          1 MOL1         0.3780
@<TRIPOS>BOND
    1     1     2    1
    2     1     3    1
    3     1     4    1
    4     4     5    1
    5     4     6    1
    6     4     7    1
    7     7     8    1
    8     7     9    1
    9     7    10    1
   10    10    11    1
   11    10    12    1
   12    10    13    1
   13    13    14    1
   14    13    15    1
   15    15    16    1
   16    15    17    1
   17    15    18    1
   18    18    19    1
   19    18    20    1
   20     1    21    1
   21    18    21    1
   22    21    22    1
   23    21    23    1
   24    13    24    1
   25    24    25    1
@<TRIPOS>SUBSTRUCTURE
       1 MOL1            1 RESIDUE      1      MOL     
@<SCITEGIC>MOL_PROPERTY
VConf Rank
SciTegic.value.IntegerValue
398

@<SCITEGIC>MOL_PROPERTY
Conf_Id
SciTegic.value.IntegerValue
15

@<SCITEGIC>MOL_PROPERTY
Delta U+W
SciTegic.value.DoubleValue
-1.271

@<SCITEGIC>MOL_PROPERTY
U+W
SciTegic.value.DoubleValue
9.643

@<SCITEGIC>MOL_PROPERTY
Grad RMS
SciTegic.value.DoubleValue
0.000000

@<SCITEGIC>MOL_PROPERTY
U
SciTegic.value.DoubleValue
11.413

@<SCITEGIC>MOL_PROPERTY
W
SciTegic.value.DoubleValue
-1.770

@<SCITEGIC>MOL_PROPERTY
W(PB)
SciTegic.value.DoubleValue
-3.908

@<SCITEGIC>MOL_PROPERTY
W(SA)
SciTegic.value.DoubleValue
2.138

@<SCITEGIC>MOL_PROPERTY
Valence
SciTegic.value.DoubleValue
17.496

@<SCITEGIC>MOL_PROPERTY
Coulomb
SciTegic.value.DoubleValue
-8.736

@<SCITEGIC>MOL_PROPERTY
VdW
SciTegic.value.DoubleValue
2.653

@<SCITEGIC>MOL_PROPERTY
VdW6
SciTegic.value.DoubleValue
-12.485

@<SCITEGIC>MOL_PROPERTY
VdW12
SciTegic.value.DoubleValue
15.138

@<SCITEGIC>MOL_PROPERTY
Bond
SciTegic.value.DoubleValue
0.414

@<SCITEGIC>MOL_PROPERTY
Angle
SciTegic.value.DoubleValue
5.295

@<SCITEGIC>MOL_PROPERTY
Pdih
SciTegic.value.DoubleValue
11.787

@<SCITEGIC>MOL_PROPERTY
Idih
SciTegic.value.DoubleValue
0.000

@<SCITEGIC>MOL_PROPERTY
Tether
SciTegic.value.DoubleValue
0.000

@<TRIPOS>MOLECULE
guest-s17_confgen4.mol2 : confsearch ligand conformer 399
          25          25           1
SMALL
USER_CHARGES
 
@<TRIPOS>ATOM
       1    C1      19.829630   18.238587   21.078311 C.3        1 MOL1        -0.1684
       2    H1      19.350636   17.686672   20.257983 H          1 MOL1         0.0833
       3    H2      20.853880   17.846824   21.118290 H          1 MOL1         0.0833
       4    C2      19.832340   19.736757   20.675440 C.3        1 MOL1        -0.1684
       5    H3      20.499162   19.855933   19.810587 H          1 MOL1         0.0833
       6    H4      18.829910   20.010833   20.319366 H          1 MOL1         0.0833
       7    C3      20.252480   20.748797   21.768414 C.3        1 MOL1        -0.1684
       8    H5      19.414140   20.916765   22.454523 H          1 MOL1         0.0833
       9    H6      20.419347   21.721594   21.286121 H          1 MOL1         0.0833
      10    C4      21.535854   20.349687   22.542440 C.3        1 MOL1        -0.1760
      11    H7      22.023278   19.487780   22.073479 H          1 MOL1         0.0833
      12    H8      22.262833   21.167528   22.453925 H          1 MOL1         0.0833
      13    C5      21.318230   20.080832   24.049299 C.3        1 MOL1         0.1219
      14    H9      21.165666   21.052074   24.541481 H          1 MOL1         0.0790
      15    C6      20.110665   19.183986   24.426041 C.3        1 MOL1        -0.1760
      16    H10     20.201489   18.957481   25.496919 H          1 MOL1         0.0833
      17    H11     19.178800   19.756455   24.345925 H          1 MOL1         0.0833
      18    C7      19.967167   17.840345   23.662446 C.3        1 MOL1        -0.1684
      19    H12     19.487030   17.133683   24.353270 H          1 MOL1         0.0833
      20    H13     20.949245   17.403609   23.439745 H          1 MOL1         0.0833
      21    C8      19.079388   17.893691   22.388561 C.3        1 MOL1        -0.1684
      22    H14     18.217856   18.559538   22.532075 H          1 MOL1         0.0833
      23    H15     18.652012   16.890167   22.256408 H          1 MOL1         0.0833
      24    O1      22.499702   19.487210   24.569050 O.3        1 MOL1        -0.5508
      25    H16     22.543899   18.591717   24.177536 H          1 MOL1         0.3780
@<TRIPOS>BOND
    1     1     2    1
    2     1     3    1
    3     1     4    1
    4     4     5    1
    5     4     6    1
    6     4     7    1
    7     7     8    1
    8     7     9    1
    9     7    10    1
   10    10    11    1
   11    10    12    1
   12    10    13    1
   13    13    14    1
   14    13    15    1
   15    15    16    1
   16    15    17    1
   17    15    18    1
   18    18    19    1
   19    18    20    1
   20     1    21    1
   21    18    21    1
   22    21    22    1
   23    21    23    1
   24    13    24    1
   25    24    25    1
@<TRIPOS>SUBSTRUCTURE
       1 MOL1            1 RESIDUE      1      MOL     
@<SCITEGIC>MOL_PROPERTY
VConf Rank
SciTegic.value.IntegerValue
399

@<SCITEGIC>MOL_PROPERTY
Conf_Id
SciTegic.value.IntegerValue
115

@<SCITEGIC>MOL_PROPERTY
Delta U+W
SciTegic.value.DoubleValue
0.038

@<SCITEGIC>MOL_PROPERTY
U+W
SciTegic.value.DoubleValue
10.952

@<SCITEGIC>MOL_PROPERTY
Grad RMS
SciTegic.value.DoubleValue
0.000000

@<SCITEGIC>MOL_PROPERTY
U
SciTegic.value.DoubleValue
12.526

@<SCITEGIC>MOL_PROPERTY
W
SciTegic.value.DoubleValue
-1.575

@<SCITEGIC>MOL_PROPERTY
W(PB)
SciTegic.value.DoubleValue
-3.698

@<SCITEGIC>MOL_PROPERTY
W(SA)
SciTegic.value.DoubleValue
2.123

@<SCITEGIC>MOL_PROPERTY
Valence
SciTegic.value.DoubleValue
19.016

@<SCITEGIC>MOL_PROPERTY
Coulomb
SciTegic.value.DoubleValue
-9.226

@<SCITEGIC>MOL_PROPERTY
VdW
SciTegic.value.DoubleValue
2.737

@<SCITEGIC>MOL_PROPERTY
VdW6
SciTegic.value.DoubleValue
-12.612

@<SCITEGIC>MOL_PROPERTY
VdW12
SciTegic.value.DoubleValue
15.349

@<SCITEGIC>MOL_PROPERTY
Bond
SciTegic.value.DoubleValue
0.421

@<SCITEGIC>MOL_PROPERTY
Angle
SciTegic.value.DoubleValue
4.883

@<SCITEGIC>MOL_PROPERTY
Pdih
SciTegic.value.DoubleValue
13.711

@<SCITEGIC>MOL_PROPERTY
Idih
SciTegic.value.DoubleValue
0.000

@<SCITEGIC>MOL_PROPERTY
Tether
SciTegic.value.DoubleValue
0.000

@<TRIPOS>MOLECULE
guest-s17_confgen4.mol2 : confsearch ligand conformer 400
          25          25           1
SMALL
USER_CHARGES
 
@<TRIPOS>ATOM
       1    C1      18.549438   19.877849   21.651518 C.3        1 MOL1        -0.1684
       2    H1      17.682416   20.535623   21.501213 H          1 MOL1         0.0833
       3    H2      18.615706   19.266070   20.741677 H          1 MOL1         0.0833
       4    C2      18.240942   18.981110   22.873084 C.3        1 MOL1        -0.1684
       5    H3      18.053828   19.602433   23.759391 H          1 MOL1         0.0833
       6    H4      17.293081   18.464129   22.669884 H          1 MOL1         0.0833
       7    C3      19.309693   17.909052   23.188296 C.3        1 MOL1        -0.1684
       8    H5      19.669384   17.444811   22.260352 H          1 MOL1         0.0833
       9    H6      18.811968   17.102262   23.743745 H          1 MOL1         0.0833
      10    C4      20.487447   18.418533   24.061946 C.3        1 MOL1        -0.1760
      11    H7      20.257191   19.391650   24.513425 H          1 MOL1         0.0833
      12    H8      20.594055   17.722999   24.905408 H          1 MOL1         0.0833
      13    C5      21.845500   18.485084   23.327631 C.3        1 MOL1         0.1219
      14    H9      21.911753   17.642128   22.624988 H          1 MOL1         0.0790
      15    C6      22.098209   19.800706   22.558403 C.3        1 MOL1        -0.1760
      16    H10     22.096913   20.648590   23.256028 H          1 MOL1         0.0833
      17    H11     23.115204   19.753710   22.147398 H          1 MOL1         0.0833
      18    C7      21.131698   20.078047   21.381286 C.3        1 MOL1        -0.1684
      19    H12     20.944933   19.156344   20.814176 H          1 MOL1         0.0833
      20    H13     21.651242   20.748602   20.682959 H          1 MOL1         0.0833
      21    C8      19.804940   20.770901   21.788312 C.3        1 MOL1        -0.1684
      22    H14     19.666554   21.632727   21.120998 H          1 MOL1         0.0833
      23    H15     19.865809   21.194150   22.799738 H          1 MOL1         0.0833
      24    O1      22.877416   18.352468   24.297791 O.3        1 MOL1        -0.5508
      25    H16     23.726523   18.342780   23.808651 H          1 MOL1         0.3780
@<TRIPOS>BOND
    1     1     2    1
    2     1     3    1
    3     1     4    1
    4     4     5    1
    5     4     6    1
    6     4     7    1
    7     7     8    1
    8     7     9    1
    9     7    10    1
   10    10    11    1
   11    10    12    1
   12    10    13    1
   13    13    14    1
   14    13    15    1
   15    15    16    1
   16    15    17    1
   17    15    18    1
   18    18    19    1
   19    18    20    1
   20     1    21    1
   21    18    21    1
   22    21    22    1
   23    21    23    1
   24    13    24    1
   25    24    25    1
@<TRIPOS>SUBSTRUCTURE
       1 MOL1            1 RESIDUE      1      MOL     
@<SCITEGIC>MOL_PROPERTY
VConf Rank
SciTegic.value.IntegerValue
400

@<SCITEGIC>MOL_PROPERTY
Conf_Id
SciTegic.value.IntegerValue
30

@<SCITEGIC>MOL_PROPERTY
Delta U+W
SciTegic.value.DoubleValue
0.000

@<SCITEGIC>MOL_PROPERTY
U+W
SciTegic.value.DoubleValue
10.913

@<SCITEGIC>MOL_PROPERTY
Grad RMS
SciTegic.value.DoubleValue
0.000000

@<SCITEGIC>MOL_PROPERTY
U
SciTegic.value.DoubleValue
13.140

@<SCITEGIC>MOL_PROPERTY
W
SciTegic.value.DoubleValue
-2.227

@<SCITEGIC>MOL_PROPERTY
W(PB)
SciTegic.value.DoubleValue
-4.367

@<SCITEGIC>MOL_PROPERTY
W(SA)
SciTegic.value.DoubleValue
2.140

@<SCITEGIC>MOL_PROPERTY
Valence
SciTegic.value.DoubleValue
19.155

@<SCITEGIC>MOL_PROPERTY
Coulomb
SciTegic.value.DoubleValue
-8.157

@<SCITEGIC>MOL_PROPERTY
VdW
SciTegic.value.DoubleValue
2.142

@<SCITEGIC>MOL_PROPERTY
VdW6
SciTegic.value.DoubleValue
-11.576

@<SCITEGIC>MOL_PROPERTY
VdW12
SciTegic.value.DoubleValue
13.718

@<SCITEGIC>MOL_PROPERTY
Bond
SciTegic.value.DoubleValue
0.294

@<SCITEGIC>MOL_PROPERTY
Angle
SciTegic.value.DoubleValue
3.547

@<SCITEGIC>MOL_PROPERTY
Pdih
SciTegic.value.DoubleValue
15.314

@<SCITEGIC>MOL_PROPERTY
Idih
SciTegic.value.DoubleValue
0.000

@<SCITEGIC>MOL_PROPERTY
Tether
SciTegic.value.DoubleValue
0.000

@<TRIPOS>MOLECULE
guest-s17_confgen4.mol2 : confsearch ligand conformer 401
          25          25           1
SMALL
USER_CHARGES
 
@<TRIPOS>ATOM
       1    C1      20.785480   21.230765   22.026990 C.3        1 MOL1        -0.1684
       2    H1      20.394830   21.884949   21.235604 H          1 MOL1         0.0833
       3    H2      21.617755   21.782887   22.484431 H          1 MOL1         0.0833
       4    C2      21.356574   19.950709   21.368664 C.3        1 MOL1        -0.1684
       5    H3      21.937036   20.254049   20.486666 H          1 MOL1         0.0833
       6    H4      22.091503   19.488860   22.038089 H          1 MOL1         0.0833
       7    C3      20.283000   18.924660   20.925424 C.3        1 MOL1        -0.1684
       8    H5      20.417733   18.712808   19.856007 H          1 MOL1         0.0833
       9    H6      19.276024   19.351140   21.001252 H          1 MOL1         0.0833
      10    C4      20.339659   17.579233   21.692347 C.3        1 MOL1        -0.1760
      11    H7      19.438437   17.001965   21.446744 H          1 MOL1         0.0833
      12    H8      21.185744   16.995320   21.307184 H          1 MOL1         0.0833
      13    C5      20.485362   17.657354   23.232751 C.3        1 MOL1         0.1219
      14    H9      21.498443   17.999330   23.483162 H          1 MOL1         0.0790
      15    C6      19.462829   18.577013   23.944053 C.3        1 MOL1        -0.1760
      16    H10     18.512201   18.586385   23.395628 H          1 MOL1         0.0833
      17    H11     19.229078   18.135352   24.921955 H          1 MOL1         0.0833
      18    C7      19.960826   20.024884   24.215012 C.3        1 MOL1        -0.1684
      19    H12     21.026383   20.035792   24.481267 H          1 MOL1         0.0833
      20    H13     19.433228   20.381180   25.110518 H          1 MOL1         0.0833
      21    C8      19.666170   21.042754   23.085447 C.3        1 MOL1        -0.1684
      22    H14     19.498721   22.023787   23.550853 H          1 MOL1         0.0833
      23    H15     18.712789   20.798315   22.600015 H          1 MOL1         0.0833
      24    O1      20.328204   16.336263   23.736972 O.3        1 MOL1        -0.5508
      25    H16     20.500625   16.379547   24.700741 H          1 MOL1         0.3780
@<TRIPOS>BOND
    1     1     2    1
    2     1     3    1
    3     1     4    1
    4     4     5    1
    5     4     6    1
    6     4     7    1
    7     7     8    1
    8     7     9    1
    9     7    10    1
   10    10    11    1
   11    10    12    1
   12    10    13    1
   13    13    14    1
   14    13    15    1
   15    15    16    1
   16    15    17    1
   17    15    18    1
   18    18    19    1
   19    18    20    1
   20     1    21    1
   21    18    21    1
   22    21    22    1
   23    21    23    1
   24    13    24    1
   25    24    25    1
@<TRIPOS>SUBSTRUCTURE
       1 MOL1            1 RESIDUE      1      MOL     
@<SCITEGIC>MOL_PROPERTY
VConf Rank
SciTegic.value.IntegerValue
401

@<SCITEGIC>MOL_PROPERTY
Conf_Id
SciTegic.value.IntegerValue
162

@<SCITEGIC>MOL_PROPERTY
Delta U+W
SciTegic.value.DoubleValue
0.219

@<SCITEGIC>MOL_PROPERTY
U+W
SciTegic.value.DoubleValue
11.132

@<SCITEGIC>MOL_PROPERTY
Grad RMS
SciTegic.value.DoubleValue
0.000000

@<SCITEGIC>MOL_PROPERTY
U
SciTegic.value.DoubleValue
13.296

@<SCITEGIC>MOL_PROPERTY
W
SciTegic.value.DoubleValue
-2.164

@<SCITEGIC>MOL_PROPERTY
W(PB)
SciTegic.value.DoubleValue
-4.311

@<SCITEGIC>MOL_PROPERTY
W(SA)
SciTegic.value.DoubleValue
2.148

@<SCITEGIC>MOL_PROPERTY
Valence
SciTegic.value.DoubleValue
18.607

@<SCITEGIC>MOL_PROPERTY
Coulomb
SciTegic.value.DoubleValue
-8.339

@<SCITEGIC>MOL_PROPERTY
VdW
SciTegic.value.DoubleValue
3.028

@<SCITEGIC>MOL_PROPERTY
VdW6
SciTegic.value.DoubleValue
-12.271

@<SCITEGIC>MOL_PROPERTY
VdW12
SciTegic.value.DoubleValue
15.299

@<SCITEGIC>MOL_PROPERTY
Bond
SciTegic.value.DoubleValue
0.423

@<SCITEGIC>MOL_PROPERTY
Angle
SciTegic.value.DoubleValue
4.488

@<SCITEGIC>MOL_PROPERTY
Pdih
SciTegic.value.DoubleValue
13.696

@<SCITEGIC>MOL_PROPERTY
Idih
SciTegic.value.DoubleValue
0.000

@<SCITEGIC>MOL_PROPERTY
Tether
SciTegic.value.DoubleValue
0.000

@<TRIPOS>MOLECULE
guest-s17_confgen4.mol2 : confsearch ligand conformer 402
          25          25           1
SMALL
USER_CHARGES
 
@<TRIPOS>ATOM
       1    C1      21.881889   20.102991   23.628028 C.3        1 MOL1        -0.1684
       2    H1      22.158352   19.106453   23.995007 H          1 MOL1         0.0833
       3    H2      22.660666   20.771384   24.020103 H          1 MOL1         0.0833
       4    C2      21.957570   20.136417   22.081142 C.3        1 MOL1        -0.1684
       5    H3      21.364218   20.968900   21.679722 H          1 MOL1         0.0833
       6    H4      22.998799   20.368503   21.818241 H          1 MOL1         0.0833
       7    C3      21.601633   18.799975   21.372063 C.3        1 MOL1        -0.1684
       8    H5      21.967513   17.937179   21.944672 H          1 MOL1         0.0833
       9    H6      22.164324   18.781866   20.428569 H          1 MOL1         0.0833
      10    C4      20.105146   18.624009   21.004979 C.3        1 MOL1        -0.1760
      11    H7      19.665715   19.596011   20.749230 H          1 MOL1         0.0833
      12    H8      20.053971   18.038133   20.077970 H          1 MOL1         0.0833
      13    C5      19.224313   17.884325   22.043403 C.3        1 MOL1         0.1219
      14    H9      19.518850   16.824923   22.040814 H          1 MOL1         0.0790
      15    C6      19.320983   18.384850   23.504287 C.3        1 MOL1        -0.1760
      16    H10     18.507193   17.930296   24.084051 H          1 MOL1         0.0833
      17    H11     20.234493   17.985117   23.957378 H          1 MOL1         0.0833
      18    C7      19.249995   19.926028   23.669235 C.3        1 MOL1        -0.1684
      19    H12     18.413116   20.171581   24.336841 H          1 MOL1         0.0833
      20    H13     18.999374   20.410416   22.718096 H          1 MOL1         0.0833
      21    C8      20.536275   20.561098   24.250571 C.3        1 MOL1        -0.1684
      22    H14     20.572623   20.358120   25.329560 H          1 MOL1         0.0833
      23    H15     20.454059   21.652317   24.154682 H          1 MOL1         0.0833
      24    O1      17.870786   17.987924   21.617572 O.3        1 MOL1        -0.5508
      25    H16     17.328854   17.518501   22.284707 H          1 MOL1         0.3780
@<TRIPOS>BOND
    1     1     2    1
    2     1     3    1
    3     1     4    1
    4     4     5    1
    5     4     6    1
    6     4     7    1
    7     7     8    1
    8     7     9    1
    9     7    10    1
   10    10    11    1
   11    10    12    1
   12    10    13    1
   13    13    14    1
   14    13    15    1
   15    15    16    1
   16    15    17    1
   17    15    18    1
   18    18    19    1
   19    18    20    1
   20     1    21    1
   21    18    21    1
   22    21    22    1
   23    21    23    1
   24    13    24    1
   25    24    25    1
@<TRIPOS>SUBSTRUCTURE
       1 MOL1            1 RESIDUE      1      MOL     
@<SCITEGIC>MOL_PROPERTY
VConf Rank
SciTegic.value.IntegerValue
402

@<SCITEGIC>MOL_PROPERTY
Conf_Id
SciTegic.value.IntegerValue
155

@<SCITEGIC>MOL_PROPERTY
Delta U+W
SciTegic.value.DoubleValue
0.339

@<SCITEGIC>MOL_PROPERTY
U+W
SciTegic.value.DoubleValue
11.252

@<SCITEGIC>MOL_PROPERTY
Grad RMS
SciTegic.value.DoubleValue
0.000000

@<SCITEGIC>MOL_PROPERTY
U
SciTegic.value.DoubleValue
13.420

@<SCITEGIC>MOL_PROPERTY
W
SciTegic.value.DoubleValue
-2.167

@<SCITEGIC>MOL_PROPERTY
W(PB)
SciTegic.value.DoubleValue
-4.325

@<SCITEGIC>MOL_PROPERTY
W(SA)
SciTegic.value.DoubleValue
2.157

@<SCITEGIC>MOL_PROPERTY
Valence
SciTegic.value.DoubleValue
18.609

@<SCITEGIC>MOL_PROPERTY
Coulomb
SciTegic.value.DoubleValue
-8.052

@<SCITEGIC>MOL_PROPERTY
VdW
SciTegic.value.DoubleValue
2.863

@<SCITEGIC>MOL_PROPERTY
VdW6
SciTegic.value.DoubleValue
-12.524

@<SCITEGIC>MOL_PROPERTY
VdW12
SciTegic.value.DoubleValue
15.387

@<SCITEGIC>MOL_PROPERTY
Bond
SciTegic.value.DoubleValue
0.430

@<SCITEGIC>MOL_PROPERTY
Angle
SciTegic.value.DoubleValue
4.724

@<SCITEGIC>MOL_PROPERTY
Pdih
SciTegic.value.DoubleValue
13.455

@<SCITEGIC>MOL_PROPERTY
Idih
SciTegic.value.DoubleValue
0.000

@<SCITEGIC>MOL_PROPERTY
Tether
SciTegic.value.DoubleValue
0.000

@<TRIPOS>MOLECULE
guest-s17_confgen4.mol2 : confsearch ligand conformer 403
          25          25           1
SMALL
USER_CHARGES
 
@<TRIPOS>ATOM
       1    C1      19.094321   19.937193   24.066132 C.3        1 MOL1        -0.1684
       2    H1      19.528682   20.705811   24.719504 H          1 MOL1         0.0833
       3    H2      18.054533   19.822172   24.401385 H          1 MOL1         0.0833
       4    C2      19.042166   20.473171   22.611200 C.3        1 MOL1        -0.1684
       5    H3      18.504420   19.757464   21.981332 H          1 MOL1         0.0833
       6    H4      18.391763   21.358424   22.606827 H          1 MOL1         0.0833
       7    C3      20.387637   20.891310   21.949322 C.3        1 MOL1        -0.1684
       8    H5      20.582419   21.935001   22.230964 H          1 MOL1         0.0833
       9    H6      20.259983   20.900447   20.858295 H          1 MOL1         0.0833
      10    C4      21.662973   20.079672   22.305225 C.3        1 MOL1        -0.1760
      11    H7      22.519652   20.603869   21.861810 H          1 MOL1         0.0833
      12    H8      21.851811   20.159869   23.379311 H          1 MOL1         0.0833
      13    C5      21.730400   18.590823   21.854572 C.3        1 MOL1         0.1219
      14    H9      22.444454   18.074025   22.511699 H          1 MOL1         0.0790
      15    C6      20.411012   17.778571   21.853173 C.3        1 MOL1        -0.1760
      16    H10     19.707161   18.241686   21.155578 H          1 MOL1         0.0833
      17    H11     20.624575   16.803322   21.396110 H          1 MOL1         0.0833
      18    C7      19.727531   17.496553   23.224896 C.3        1 MOL1        -0.1684
      19    H12     20.180494   16.584286   23.636516 H          1 MOL1         0.0833
      20    H13     18.672318   17.246363   23.050962 H          1 MOL1         0.0833
      21    C8      19.819037   18.584227   24.327293 C.3        1 MOL1        -0.1684
      22    H14     20.868971   18.748990   24.588960 H          1 MOL1         0.0833
      23    H15     19.389817   18.161408   25.245918 H          1 MOL1         0.0833
      24    O1      22.236577   18.560363   20.524519 O.3        1 MOL1        -0.5508
      25    H16     23.096019   19.029852   20.537984 H          1 MOL1         0.3780
@<TRIPOS>BOND
    1     1     2    1
    2     1     3    1
    3     1     4    1
    4     4     5    1
    5     4     6    1
    6     4     7    1
    7     7     8    1
    8     7     9    1
    9     7    10    1
   10    10    11    1
   11    10    12    1
   12    10    13    1
   13    13    14    1
   14    13    15    1
   15    15    16    1
   16    15    17    1
   17    15    18    1
   18    18    19    1
   19    18    20    1
   20     1    21    1
   21    18    21    1
   22    21    22    1
   23    21    23    1
   24    13    24    1
   25    24    25    1
@<TRIPOS>SUBSTRUCTURE
       1 MOL1            1 RESIDUE      1      MOL     
@<SCITEGIC>MOL_PROPERTY
VConf Rank
SciTegic.value.IntegerValue
403

@<SCITEGIC>MOL_PROPERTY
Conf_Id
SciTegic.value.IntegerValue
146

@<SCITEGIC>MOL_PROPERTY
Delta U+W
SciTegic.value.DoubleValue
2.553

@<SCITEGIC>MOL_PROPERTY
U+W
SciTegic.value.DoubleValue
13.466

@<SCITEGIC>MOL_PROPERTY
Grad RMS
SciTegic.value.DoubleValue
0.000000

@<SCITEGIC>MOL_PROPERTY
U
SciTegic.value.DoubleValue
15.643

@<SCITEGIC>MOL_PROPERTY
W
SciTegic.value.DoubleValue
-2.176

@<SCITEGIC>MOL_PROPERTY
W(PB)
SciTegic.value.DoubleValue
-4.307

@<SCITEGIC>MOL_PROPERTY
W(SA)
SciTegic.value.DoubleValue
2.131

@<SCITEGIC>MOL_PROPERTY
Valence
SciTegic.value.DoubleValue
18.916

@<SCITEGIC>MOL_PROPERTY
Coulomb
SciTegic.value.DoubleValue
-7.506

@<SCITEGIC>MOL_PROPERTY
VdW
SciTegic.value.DoubleValue
4.232

@<SCITEGIC>MOL_PROPERTY
VdW6
SciTegic.value.DoubleValue
-13.632

@<SCITEGIC>MOL_PROPERTY
VdW12
SciTegic.value.DoubleValue
17.864

@<SCITEGIC>MOL_PROPERTY
Bond
SciTegic.value.DoubleValue
0.735

@<SCITEGIC>MOL_PROPERTY
Angle
SciTegic.value.DoubleValue
9.140

@<SCITEGIC>MOL_PROPERTY
Pdih
SciTegic.value.DoubleValue
9.042

@<SCITEGIC>MOL_PROPERTY
Idih
SciTegic.value.DoubleValue
0.000

@<SCITEGIC>MOL_PROPERTY
Tether
SciTegic.value.DoubleValue
0.000

@<TRIPOS>MOLECULE
guest-s17_confgen4.mol2 : confsearch ligand conformer 404
          25          25           1
SMALL
USER_CHARGES
 
@<TRIPOS>ATOM
       1    C1      20.330066   19.422632   20.596821 C.3        1 MOL1        -0.1684
       2    H1      19.552586   19.965386   20.042342 H          1 MOL1         0.0833
       3    H2      21.026267   19.043573   19.836210 H          1 MOL1         0.0833
       4    C2      19.696050   18.194314   21.296392 C.3        1 MOL1        -0.1684
       5    H3      19.276104   17.552349   20.510054 H          1 MOL1         0.0833
       6    H4      20.472634   17.580874   21.767301 H          1 MOL1         0.0833
       7    C3      18.556151   18.494697   22.301769 C.3        1 MOL1        -0.1684
       8    H5      18.134411   17.531727   22.620836 H          1 MOL1         0.0833
       9    H6      17.742448   19.018684   21.782378 H          1 MOL1         0.0833
      10    C4      18.935361   19.292074   23.576952 C.3        1 MOL1        -0.1760
      11    H7      18.967493   20.364339   23.359502 H          1 MOL1         0.0833
      12    H8      18.103926   19.181007   24.286118 H          1 MOL1         0.0833
      13    C5      20.251029   18.845841   24.265406 C.3        1 MOL1         0.1219
      14    H9      20.505837   17.826102   23.946895 H          1 MOL1         0.0790
      15    C6      21.455873   19.783161   23.997928 C.3        1 MOL1        -0.1760
      16    H10     21.186540   20.807785   24.286590 H          1 MOL1         0.0833
      17    H11     22.270298   19.489303   24.672984 H          1 MOL1         0.0833
      18    C7      22.032330   19.791268   22.555972 C.3        1 MOL1        -0.1684
      19    H12     22.346632   18.783237   22.256163 H          1 MOL1         0.0833
      20    H13     22.957468   20.383139   22.584081 H          1 MOL1         0.0833
      21    C8      21.105372   20.427257   21.487911 C.3        1 MOL1        -0.1684
      22    H14     21.725263   21.039689   20.818808 H          1 MOL1         0.0833
      23    H15     20.417347   21.142706   21.952214 H          1 MOL1         0.0833
      24    O1      20.030976   18.830412   25.671354 O.3        1 MOL1        -0.5508
      25    H16     20.852635   18.490339   26.082992 H          1 MOL1         0.3780
@<TRIPOS>BOND
    1     1     2    1
    2     1     3    1
    3     1     4    1
    4     4     5    1
    5     4     6    1
    6     4     7    1
    7     7     8    1
    8     7     9    1
    9     7    10    1
   10    10    11    1
   11    10    12    1
   12    10    13    1
   13    13    14    1
   14    13    15    1
   15    15    16    1
   16    15    17    1
   17    15    18    1
   18    18    19    1
   19    18    20    1
   20     1    21    1
   21    18    21    1
   22    21    22    1
   23    21    23    1
   24    13    24    1
   25    24    25    1
@<TRIPOS>SUBSTRUCTURE
       1 MOL1            1 RESIDUE      1      MOL     
@<SCITEGIC>MOL_PROPERTY
VConf Rank
SciTegic.value.IntegerValue
404

@<SCITEGIC>MOL_PROPERTY
Conf_Id
SciTegic.value.IntegerValue
62

@<SCITEGIC>MOL_PROPERTY
Delta U+W
SciTegic.value.DoubleValue
-1.779

@<SCITEGIC>MOL_PROPERTY
U+W
SciTegic.value.DoubleValue
9.134

@<SCITEGIC>MOL_PROPERTY
Grad RMS
SciTegic.value.DoubleValue
0.000000

@<SCITEGIC>MOL_PROPERTY
U
SciTegic.value.DoubleValue
11.364

@<SCITEGIC>MOL_PROPERTY
W
SciTegic.value.DoubleValue
-2.230

@<SCITEGIC>MOL_PROPERTY
W(PB)
SciTegic.value.DoubleValue
-4.359

@<SCITEGIC>MOL_PROPERTY
W(SA)
SciTegic.value.DoubleValue
2.129

@<SCITEGIC>MOL_PROPERTY
Valence
SciTegic.value.DoubleValue
16.582

@<SCITEGIC>MOL_PROPERTY
Coulomb
SciTegic.value.DoubleValue
-8.150

@<SCITEGIC>MOL_PROPERTY
VdW
SciTegic.value.DoubleValue
2.933

@<SCITEGIC>MOL_PROPERTY
VdW6
SciTegic.value.DoubleValue
-12.531

@<SCITEGIC>MOL_PROPERTY
VdW12
SciTegic.value.DoubleValue
15.464

@<SCITEGIC>MOL_PROPERTY
Bond
SciTegic.value.DoubleValue
0.439

@<SCITEGIC>MOL_PROPERTY
Angle
SciTegic.value.DoubleValue
5.099

@<SCITEGIC>MOL_PROPERTY
Pdih
SciTegic.value.DoubleValue
11.044

@<SCITEGIC>MOL_PROPERTY
Idih
SciTegic.value.DoubleValue
0.000

@<SCITEGIC>MOL_PROPERTY
Tether
SciTegic.value.DoubleValue
0.000

@<TRIPOS>MOLECULE
guest-s17_confgen4.mol2 : confsearch ligand conformer 405
          25          25           1
SMALL
USER_CHARGES
 
@<TRIPOS>ATOM
       1    C1      18.912283   20.065011   21.883645 C.3        1 MOL1        -0.1684
       2    H1      19.786047   20.500614   21.385739 H          1 MOL1         0.0833
       3    H2      18.052877   20.584876   21.438897 H          1 MOL1         0.0833
       4    C2      18.925261   20.406834   23.394487 C.3        1 MOL1        -0.1684
       5    H3      18.905620   21.501578   23.484141 H          1 MOL1         0.0833
       6    H4      17.991989   20.054510   23.854231 H          1 MOL1         0.0833
       7    C3      20.124276   19.884809   24.226696 C.3        1 MOL1        -0.1684
       8    H5      19.958442   18.844824   24.529882 H          1 MOL1         0.0833
       9    H6      20.132792   20.447696   25.170154 H          1 MOL1         0.0833
      10    C4      21.515290   20.041517   23.555998 C.3        1 MOL1        -0.1760
      11    H7      21.506609   20.848873   22.813468 H          1 MOL1         0.0833
      12    H8      22.215128   20.372196   24.334601 H          1 MOL1         0.0833
      13    C5      22.092118   18.742440   22.938694 C.3        1 MOL1         0.1219
      14    H9      22.076609   17.958271   23.709290 H          1 MOL1         0.0790
      15    C6      21.368635   18.196752   21.682229 C.3        1 MOL1        -0.1760
      16    H10     21.358376   18.951251   20.886355 H          1 MOL1         0.0833
      17    H11     21.982589   17.374319   21.291749 H          1 MOL1         0.0833
      18    C7      19.945663   17.631649   21.937922 C.3        1 MOL1        -0.1684
      19    H12     19.837974   17.320399   22.983136 H          1 MOL1         0.0833
      20    H13     19.837387   16.702287   21.362151 H          1 MOL1         0.0833
      21    C8      18.778468   18.564116   21.524299 C.3        1 MOL1        -0.1684
      22    H14     17.842636   18.172107   21.945049 H          1 MOL1         0.0833
      23    H15     18.665120   18.496161   20.433696 H          1 MOL1         0.0833
      24    O1      23.442995   18.999795   22.576303 O.3        1 MOL1        -0.5508
      25    H16     23.907008   19.278845   23.392985 H          1 MOL1         0.3780
@<TRIPOS>BOND
    1     1     2    1
    2     1     3    1
    3     1     4    1
    4     4     5    1
    5     4     6    1
    6     4     7    1
    7     7     8    1
    8     7     9    1
    9     7    10    1
   10    10    11    1
   11    10    12    1
   12    10    13    1
   13    13    14    1
   14    13    15    1
   15    15    16    1
   16    15    17    1
   17    15    18    1
   18    18    19    1
   19    18    20    1
   20     1    21    1
   21    18    21    1
   22    21    22    1
   23    21    23    1
   24    13    24    1
   25    24    25    1
@<TRIPOS>SUBSTRUCTURE
       1 MOL1            1 RESIDUE      1      MOL     
@<SCITEGIC>MOL_PROPERTY
VConf Rank
SciTegic.value.IntegerValue
405

@<SCITEGIC>MOL_PROPERTY
Conf_Id
SciTegic.value.IntegerValue
121

@<SCITEGIC>MOL_PROPERTY
Delta U+W
SciTegic.value.DoubleValue
-1.283

@<SCITEGIC>MOL_PROPERTY
U+W
SciTegic.value.DoubleValue
9.630

@<SCITEGIC>MOL_PROPERTY
Grad RMS
SciTegic.value.DoubleValue
0.000000

@<SCITEGIC>MOL_PROPERTY
U
SciTegic.value.DoubleValue
11.876

@<SCITEGIC>MOL_PROPERTY
W
SciTegic.value.DoubleValue
-2.246

@<SCITEGIC>MOL_PROPERTY
W(PB)
SciTegic.value.DoubleValue
-4.376

@<SCITEGIC>MOL_PROPERTY
W(SA)
SciTegic.value.DoubleValue
2.130

@<SCITEGIC>MOL_PROPERTY
Valence
SciTegic.value.DoubleValue
17.153

@<SCITEGIC>MOL_PROPERTY
Coulomb
SciTegic.value.DoubleValue
-7.966

@<SCITEGIC>MOL_PROPERTY
VdW
SciTegic.value.DoubleValue
2.689

@<SCITEGIC>MOL_PROPERTY
VdW6
SciTegic.value.DoubleValue
-12.458

@<SCITEGIC>MOL_PROPERTY
VdW12
SciTegic.value.DoubleValue
15.147

@<SCITEGIC>MOL_PROPERTY
Bond
SciTegic.value.DoubleValue
0.421

@<SCITEGIC>MOL_PROPERTY
Angle
SciTegic.value.DoubleValue
5.258

@<SCITEGIC>MOL_PROPERTY
Pdih
SciTegic.value.DoubleValue
11.475

@<SCITEGIC>MOL_PROPERTY
Idih
SciTegic.value.DoubleValue
0.000

@<SCITEGIC>MOL_PROPERTY
Tether
SciTegic.value.DoubleValue
0.000

@<TRIPOS>MOLECULE
guest-s17_confgen4.mol2 : confsearch ligand conformer 406
          25          25           1
SMALL
USER_CHARGES
 
@<TRIPOS>ATOM
       1    C1      21.529990   18.941532   24.075974 C.3        1 MOL1        -0.1684
       2    H1      20.662641   19.408964   24.555908 H          1 MOL1         0.0833
       3    H2      22.224973   18.735446   24.901303 H          1 MOL1         0.0833
       4    C2      22.228462   19.946561   23.126356 C.3        1 MOL1        -0.1684
       5    H3      22.548883   20.804157   23.733597 H          1 MOL1         0.0833
       6    H4      23.151904   19.496732   22.737265 H          1 MOL1         0.0833
       7    C3      21.395364   20.492484   21.938568 C.3        1 MOL1        -0.1684
       8    H5      21.416293   19.789382   21.098237 H          1 MOL1         0.0833
       9    H6      21.913719   21.385181   21.562606 H          1 MOL1         0.0833
      10    C4      19.933956   20.888938   22.280159 C.3        1 MOL1        -0.1760
      11    H7      19.826875   21.128668   23.344984 H          1 MOL1         0.0833
      12    H8      19.716231   21.825891   21.750513 H          1 MOL1         0.0833
      13    C5      18.858038   19.863483   21.843405 C.3        1 MOL1         0.1219
      14    H9      19.003473   19.650131   20.774615 H          1 MOL1         0.0790
      15    C6      18.839008   18.516519   22.609376 C.3        1 MOL1        -0.1760
      16    H10     18.703052   18.687643   23.684311 H          1 MOL1         0.0833
      17    H11     17.942582   17.970279   22.287836 H          1 MOL1         0.0833
      18    C7      20.058446   17.594539   22.340620 C.3        1 MOL1        -0.1684
      19    H12     20.512426   17.830008   21.371368 H          1 MOL1         0.0833
      20    H13     19.692167   16.564760   22.229191 H          1 MOL1         0.0833
      21    C8      21.134709   17.578059   23.456015 C.3        1 MOL1        -0.1684
      22    H14     22.035374   17.078021   23.074886 H          1 MOL1         0.0833
      23    H15     20.763957   16.941395   24.270932 H          1 MOL1         0.0833
      24    O1      17.586920   20.476924   22.017686 O.3        1 MOL1        -0.5508
      25    H16     16.919123   19.846877   21.675285 H          1 MOL1         0.3780
@<TRIPOS>BOND
    1     1     2    1
    2     1     3    1
    3     1     4    1
    4     4     5    1
    5     4     6    1
    6     4     7    1
    7     7     8    1
    8     7     9    1
    9     7    10    1
   10    10    11    1
   11    10    12    1
   12    10    13    1
   13    13    14    1
   14    13    15    1
   15    15    16    1
   16    15    17    1
   17    15    18    1
   18    18    19    1
   19    18    20    1
   20     1    21    1
   21    18    21    1
   22    21    22    1
   23    21    23    1
   24    13    24    1
   25    24    25    1
@<TRIPOS>SUBSTRUCTURE
       1 MOL1            1 RESIDUE      1      MOL     
@<SCITEGIC>MOL_PROPERTY
VConf Rank
SciTegic.value.IntegerValue
406

@<SCITEGIC>MOL_PROPERTY
Conf_Id
SciTegic.value.IntegerValue
24

@<SCITEGIC>MOL_PROPERTY
Delta U+W
SciTegic.value.DoubleValue
-1.236

@<SCITEGIC>MOL_PROPERTY
U+W
SciTegic.value.DoubleValue
9.678

@<SCITEGIC>MOL_PROPERTY
Grad RMS
SciTegic.value.DoubleValue
0.000000

@<SCITEGIC>MOL_PROPERTY
U
SciTegic.value.DoubleValue
11.876

@<SCITEGIC>MOL_PROPERTY
W
SciTegic.value.DoubleValue
-2.199

@<SCITEGIC>MOL_PROPERTY
W(PB)
SciTegic.value.DoubleValue
-4.335

@<SCITEGIC>MOL_PROPERTY
W(SA)
SciTegic.value.DoubleValue
2.137

@<SCITEGIC>MOL_PROPERTY
Valence
SciTegic.value.DoubleValue
17.153

@<SCITEGIC>MOL_PROPERTY
Coulomb
SciTegic.value.DoubleValue
-7.966

@<SCITEGIC>MOL_PROPERTY
VdW
SciTegic.value.DoubleValue
2.689

@<SCITEGIC>MOL_PROPERTY
VdW6
SciTegic.value.DoubleValue
-12.458

@<SCITEGIC>MOL_PROPERTY
VdW12
SciTegic.value.DoubleValue
15.147

@<SCITEGIC>MOL_PROPERTY
Bond
SciTegic.value.DoubleValue
0.421

@<SCITEGIC>MOL_PROPERTY
Angle
SciTegic.value.DoubleValue
5.258

@<SCITEGIC>MOL_PROPERTY
Pdih
SciTegic.value.DoubleValue
11.475

@<SCITEGIC>MOL_PROPERTY
Idih
SciTegic.value.DoubleValue
0.000

@<SCITEGIC>MOL_PROPERTY
Tether
SciTegic.value.DoubleValue
0.000

@<TRIPOS>MOLECULE
guest-s17_confgen4.mol2 : confsearch ligand conformer 407
          25          25           1
SMALL
USER_CHARGES
 
@<TRIPOS>ATOM
       1    C1      18.512055   19.684764   23.788992 C.3        1 MOL1        -0.1684
       2    H1      18.236671   19.166251   24.717477 H          1 MOL1         0.0833
       3    H2      17.698327   20.396494   23.593696 H          1 MOL1         0.0833
       4    C2      19.809846   20.499252   24.035061 C.3        1 MOL1        -0.1684
       5    H3      19.934558   21.269941   23.263842 H          1 MOL1         0.0833
       6    H4      19.663182   21.059759   24.968543 H          1 MOL1         0.0833
       7    C3      21.113468   19.674844   24.174988 C.3        1 MOL1        -0.1684
       8    H5      20.916235   18.714028   24.669345 H          1 MOL1         0.0833
       9    H6      21.767644   20.227359   24.863453 H          1 MOL1         0.0833
      10    C4      21.913044   19.474512   22.856476 C.3        1 MOL1        -0.1760
      11    H7      21.854075   20.369633   22.224210 H          1 MOL1         0.0833
      12    H8      22.970138   19.384702   23.141845 H          1 MOL1         0.0833
      13    C5      21.532978   18.211000   22.046437 C.3        1 MOL1         0.1219
      14    H9      21.165062   17.447027   22.744046 H          1 MOL1         0.0790
      15    C6      20.483594   18.430405   20.927302 C.3        1 MOL1        -0.1760
      16    H10     20.944934   18.983396   20.098606 H          1 MOL1         0.0833
      17    H11     20.218852   17.444831   20.522115 H          1 MOL1         0.0833
      18    C7      19.176679   19.160274   21.327181 C.3        1 MOL1        -0.1684
      19    H12     18.451870   19.032233   20.511696 H          1 MOL1         0.0833
      20    H13     19.356158   20.240672   21.374286 H          1 MOL1         0.0833
      21    C8      18.541054   18.644115   22.642823 C.3        1 MOL1        -0.1684
      22    H14     19.036409   17.729374   22.988551 H          1 MOL1         0.0833
      23    H15     17.506204   18.338544   22.436468 H          1 MOL1         0.0833
      24    O1      22.709342   17.705911   21.427760 O.3        1 MOL1        -0.5508
      25    H16     23.030485   18.409604   20.827214 H          1 MOL1         0.3780
@<TRIPOS>BOND
    1     1     2    1
    2     1     3    1
    3     1     4    1
    4     4     5    1
    5     4     6    1
    6     4     7    1
    7     7     8    1
    8     7     9    1
    9     7    10    1
   10    10    11    1
   11    10    12    1
   12    10    13    1
   13    13    14    1
   14    13    15    1
   15    15    16    1
   16    15    17    1
   17    15    18    1
   18    18    19    1
   19    18    20    1
   20     1    21    1
   21    18    21    1
   22    21    22    1
   23    21    23    1
   24    13    24    1
   25    24    25    1
@<TRIPOS>SUBSTRUCTURE
       1 MOL1            1 RESIDUE      1      MOL     
@<SCITEGIC>MOL_PROPERTY
VConf Rank
SciTegic.value.IntegerValue
407

@<SCITEGIC>MOL_PROPERTY
Conf_Id
SciTegic.value.IntegerValue
167

@<SCITEGIC>MOL_PROPERTY
Delta U+W
SciTegic.value.DoubleValue
0.388

@<SCITEGIC>MOL_PROPERTY
U+W
SciTegic.value.DoubleValue
11.301

@<SCITEGIC>MOL_PROPERTY
Grad RMS
SciTegic.value.DoubleValue
0.000000

@<SCITEGIC>MOL_PROPERTY
U
SciTegic.value.DoubleValue
13.202

@<SCITEGIC>MOL_PROPERTY
W
SciTegic.value.DoubleValue
-1.901

@<SCITEGIC>MOL_PROPERTY
W(PB)
SciTegic.value.DoubleValue
-4.065

@<SCITEGIC>MOL_PROPERTY
W(SA)
SciTegic.value.DoubleValue
2.163

@<SCITEGIC>MOL_PROPERTY
Valence
SciTegic.value.DoubleValue
18.957

@<SCITEGIC>MOL_PROPERTY
Coulomb
SciTegic.value.DoubleValue
-8.753

@<SCITEGIC>MOL_PROPERTY
VdW
SciTegic.value.DoubleValue
2.998

@<SCITEGIC>MOL_PROPERTY
VdW6
SciTegic.value.DoubleValue
-12.294

@<SCITEGIC>MOL_PROPERTY
VdW12
SciTegic.value.DoubleValue
15.292

@<SCITEGIC>MOL_PROPERTY
Bond
SciTegic.value.DoubleValue
0.419

@<SCITEGIC>MOL_PROPERTY
Angle
SciTegic.value.DoubleValue
4.543

@<SCITEGIC>MOL_PROPERTY
Pdih
SciTegic.value.DoubleValue
13.996

@<SCITEGIC>MOL_PROPERTY
Idih
SciTegic.value.DoubleValue
0.000

@<SCITEGIC>MOL_PROPERTY
Tether
SciTegic.value.DoubleValue
0.000

@<TRIPOS>MOLECULE
guest-s17_confgen4.mol2 : confsearch ligand conformer 408
          25          25           1
SMALL
USER_CHARGES
 
@<TRIPOS>ATOM
       1    C1      19.009737   20.831072   22.476247 C.3        1 MOL1        -0.1684
       2    H1      18.008551   20.706742   22.041883 H          1 MOL1         0.0833
       3    H2      19.076925   21.888411   22.766831 H          1 MOL1         0.0833
       4    C2      20.070492   20.576675   21.373801 C.3        1 MOL1        -0.1684
       5    H3      19.780387   19.725746   20.747252 H          1 MOL1         0.0833
       6    H4      20.040566   21.438716   20.693343 H          1 MOL1         0.0833
       7    C3      21.528085   20.410526   21.876453 C.3        1 MOL1        -0.1684
       8    H5      21.674949   20.921153   22.836902 H          1 MOL1         0.0833
       9    H6      22.183302   20.936770   21.168878 H          1 MOL1         0.0833
      10    C4      22.028795   18.942198   21.950961 C.3        1 MOL1        -0.1760
      11    H7      21.909564   18.465637   20.969168 H          1 MOL1         0.0833
      12    H8      23.110720   18.971304   22.136377 H          1 MOL1         0.0833
      13    C5      21.390908   18.039715   23.036333 C.3        1 MOL1         0.1219
      14    H9      21.482152   18.533439   24.013096 H          1 MOL1         0.0790
      15    C6      19.907096   17.678261   22.767296 C.3        1 MOL1        -0.1760
      16    H10     19.680174   17.787498   21.702004 H          1 MOL1         0.0833
      17    H11     19.747285   16.611100   22.971185 H          1 MOL1         0.0833
      18    C7      18.876447   18.465171   23.617766 C.3        1 MOL1        -0.1684
      19    H12     18.865873   18.027679   24.625454 H          1 MOL1         0.0833
      20    H13     17.871656   18.293929   23.208348 H          1 MOL1         0.0833
      21    C8      19.112834   19.988665   23.772544 C.3        1 MOL1        -0.1684
      22    H14     20.066535   20.181434   24.276967 H          1 MOL1         0.0833
      23    H15     18.351452   20.367147   24.468152 H          1 MOL1         0.0833
      24    O1      22.142527   16.832458   23.078280 O.3        1 MOL1        -0.5508
      25    H16     21.775000   16.298397   23.813277 H          1 MOL1         0.3780
@<TRIPOS>BOND
    1     1     2    1
    2     1     3    1
    3     1     4    1
    4     4     5    1
    5     4     6    1
    6     4     7    1
    7     7     8    1
    8     7     9    1
    9     7    10    1
   10    10    11    1
   11    10    12    1
   12    10    13    1
   13    13    14    1
   14    13    15    1
   15    15    16    1
   16    15    17    1
   17    15    18    1
   18    18    19    1
   19    18    20    1
   20     1    21    1
   21    18    21    1
   22    21    22    1
   23    21    23    1
   24    13    24    1
   25    24    25    1
@<TRIPOS>SUBSTRUCTURE
       1 MOL1            1 RESIDUE      1      MOL     
@<SCITEGIC>MOL_PROPERTY
VConf Rank
SciTegic.value.IntegerValue
408

@<SCITEGIC>MOL_PROPERTY
Conf_Id
SciTegic.value.IntegerValue
60

@<SCITEGIC>MOL_PROPERTY
Delta U+W
SciTegic.value.DoubleValue
-1.838

@<SCITEGIC>MOL_PROPERTY
U+W
SciTegic.value.DoubleValue
9.075

@<SCITEGIC>MOL_PROPERTY
Grad RMS
SciTegic.value.DoubleValue
0.000000

@<SCITEGIC>MOL_PROPERTY
U
SciTegic.value.DoubleValue
11.150

@<SCITEGIC>MOL_PROPERTY
W
SciTegic.value.DoubleValue
-2.074

@<SCITEGIC>MOL_PROPERTY
W(PB)
SciTegic.value.DoubleValue
-4.196

@<SCITEGIC>MOL_PROPERTY
W(SA)
SciTegic.value.DoubleValue
2.121

@<SCITEGIC>MOL_PROPERTY
Valence
SciTegic.value.DoubleValue
16.582

@<SCITEGIC>MOL_PROPERTY
Coulomb
SciTegic.value.DoubleValue
-8.361

@<SCITEGIC>MOL_PROPERTY
VdW
SciTegic.value.DoubleValue
2.928

@<SCITEGIC>MOL_PROPERTY
VdW6
SciTegic.value.DoubleValue
-12.539

@<SCITEGIC>MOL_PROPERTY
VdW12
SciTegic.value.DoubleValue
15.467

@<SCITEGIC>MOL_PROPERTY
Bond
SciTegic.value.DoubleValue
0.441

@<SCITEGIC>MOL_PROPERTY
Angle
SciTegic.value.DoubleValue
5.093

@<SCITEGIC>MOL_PROPERTY
Pdih
SciTegic.value.DoubleValue
11.049

@<SCITEGIC>MOL_PROPERTY
Idih
SciTegic.value.DoubleValue
0.000

@<SCITEGIC>MOL_PROPERTY
Tether
SciTegic.value.DoubleValue
0.000

@<TRIPOS>MOLECULE
guest-s17_confgen4.mol2 : confsearch ligand conformer 409
          25          25           1
SMALL
USER_CHARGES
 
@<TRIPOS>ATOM
       1    C1      19.357583   17.425871   22.186409 C.3        1 MOL1        -0.1684
       2    H1      19.425388   16.545947   22.840352 H          1 MOL1         0.0833
       3    H2      18.743920   17.112086   21.330912 H          1 MOL1         0.0833
       4    C2      20.767321   17.768319   21.642322 C.3        1 MOL1        -0.1684
       5    H3      21.114644   16.898715   21.067885 H          1 MOL1         0.0833
       6    H4      20.704883   18.577519   20.905814 H          1 MOL1         0.0833
       7    C3      21.852045   18.080225   22.703905 C.3        1 MOL1        -0.1684
       8    H5      22.810235   18.186073   22.177016 H          1 MOL1         0.0833
       9    H6      21.971006   17.212293   23.366547 H          1 MOL1         0.0833
      10    C4      21.641568   19.349275   23.569914 C.3        1 MOL1        -0.1760
      11    H7      20.948250   19.136616   24.389890 H          1 MOL1         0.0833
      12    H8      22.596134   19.562052   24.069385 H          1 MOL1         0.0833
      13    C5      21.175060   20.605296   22.789206 C.3        1 MOL1         0.1219
      14    H9      21.401968   20.484959   21.721411 H          1 MOL1         0.0790
      15    C6      19.669244   20.929088   22.953773 C.3        1 MOL1        -0.1760
      16    H10     19.433480   21.017410   24.022350 H          1 MOL1         0.0833
      17    H11     19.495171   21.926553   22.528866 H          1 MOL1         0.0833
      18    C7      18.664476   19.953548   22.282199 C.3        1 MOL1        -0.1684
      19    H12     18.854844   19.880086   21.203713 H          1 MOL1         0.0833
      20    H13     17.669054   20.410527   22.367112 H          1 MOL1         0.0833
      21    C8      18.588745   18.547565   22.932062 C.3        1 MOL1        -0.1684
      22    H14     17.533203   18.244984   22.968247 H          1 MOL1         0.0833
      23    H15     18.894620   18.592812   23.983345 H          1 MOL1         0.0833
      24    O1      21.904510   21.726718   23.273437 O.3        1 MOL1        -0.5508
      25    H16     22.851361   21.541156   23.101519 H          1 MOL1         0.3780
@<TRIPOS>BOND
    1     1     2    1
    2     1     3    1
    3     1     4    1
    4     4     5    1
    5     4     6    1
    6     4     7    1
    7     7     8    1
    8     7     9    1
    9     7    10    1
   10    10    11    1
   11    10    12    1
   12    10    13    1
   13    13    14    1
   14    13    15    1
   15    15    16    1
   16    15    17    1
   17    15    18    1
   18    18    19    1
   19    18    20    1
   20     1    21    1
   21    18    21    1
   22    21    22    1
   23    21    23    1
   24    13    24    1
   25    24    25    1
@<TRIPOS>SUBSTRUCTURE
       1 MOL1            1 RESIDUE      1      MOL     
@<SCITEGIC>MOL_PROPERTY
VConf Rank
SciTegic.value.IntegerValue
409

@<SCITEGIC>MOL_PROPERTY
Conf_Id
SciTegic.value.IntegerValue
129

@<SCITEGIC>MOL_PROPERTY
Delta U+W
SciTegic.value.DoubleValue
-1.846

@<SCITEGIC>MOL_PROPERTY
U+W
SciTegic.value.DoubleValue
9.067

@<SCITEGIC>MOL_PROPERTY
Grad RMS
SciTegic.value.DoubleValue
0.000000

@<SCITEGIC>MOL_PROPERTY
U
SciTegic.value.DoubleValue
11.150

@<SCITEGIC>MOL_PROPERTY
W
SciTegic.value.DoubleValue
-2.083

@<SCITEGIC>MOL_PROPERTY
W(PB)
SciTegic.value.DoubleValue
-4.217

@<SCITEGIC>MOL_PROPERTY
W(SA)
SciTegic.value.DoubleValue
2.134

@<SCITEGIC>MOL_PROPERTY
Valence
SciTegic.value.DoubleValue
16.583

@<SCITEGIC>MOL_PROPERTY
Coulomb
SciTegic.value.DoubleValue
-8.361

@<SCITEGIC>MOL_PROPERTY
VdW
SciTegic.value.DoubleValue
2.928

@<SCITEGIC>MOL_PROPERTY
VdW6
SciTegic.value.DoubleValue
-12.539

@<SCITEGIC>MOL_PROPERTY
VdW12
SciTegic.value.DoubleValue
15.467

@<SCITEGIC>MOL_PROPERTY
Bond
SciTegic.value.DoubleValue
0.441

@<SCITEGIC>MOL_PROPERTY
Angle
SciTegic.value.DoubleValue
5.093

@<SCITEGIC>MOL_PROPERTY
Pdih
SciTegic.value.DoubleValue
11.049

@<SCITEGIC>MOL_PROPERTY
Idih
SciTegic.value.DoubleValue
0.000

@<SCITEGIC>MOL_PROPERTY
Tether
SciTegic.value.DoubleValue
0.000

@<TRIPOS>MOLECULE
guest-s17_confgen4.mol2 : confsearch ligand conformer 410
          25          25           1
SMALL
USER_CHARGES
 
@<TRIPOS>ATOM
       1    C1      18.411570   19.708656   23.409289 C.3        1 MOL1        -0.1684
       2    H1      18.180885   19.559117   24.472741 H          1 MOL1         0.0833
       3    H2      17.502385   20.138052   22.966659 H          1 MOL1         0.0833
       4    C2      18.646355   18.332087   22.738358 C.3        1 MOL1        -0.1684
       5    H3      17.717131   17.755690   22.843786 H          1 MOL1         0.0833
       6    H4      18.774685   18.452018   21.656532 H          1 MOL1         0.0833
       7    C3      19.790527   17.470826   23.329431 C.3        1 MOL1        -0.1684
       8    H5      19.756755   16.491186   22.833228 H          1 MOL1         0.0833
       9    H6      19.585931   17.274251   24.390560 H          1 MOL1         0.0833
      10    C4      21.232408   18.024379   23.188597 C.3        1 MOL1        -0.1760
      11    H7      21.433640   18.758464   23.975466 H          1 MOL1         0.0833
      12    H8      21.916548   17.192480   23.404263 H          1 MOL1         0.0833
      13    C5      21.574033   18.619655   21.798088 C.3        1 MOL1         0.1219
      14    H9      20.870945   18.234365   21.047695 H          1 MOL1         0.0790
      15    C6      21.573400   20.168417   21.750825 C.3        1 MOL1        -0.1760
      16    H10     22.252555   20.557896   22.520415 H          1 MOL1         0.0833
      17    H11     22.007194   20.472807   20.788846 H          1 MOL1         0.0833
      18    C7      20.196147   20.873299   21.882497 C.3        1 MOL1        -0.1684
      19    H12     19.508340   20.534319   21.097127 H          1 MOL1         0.0833
      20    H13     20.361063   21.940011   21.677820 H          1 MOL1         0.0833
      21    C8      19.541161   20.763507   23.283741 C.3        1 MOL1        -0.1684
      22    H14     19.100321   21.738753   23.531947 H          1 MOL1         0.0833
      23    H15     20.304246   20.605813   24.054218 H          1 MOL1         0.0833
      24    O1      22.879962   18.186942   21.438265 O.3        1 MOL1        -0.5508
      25    H16     23.487181   18.545422   22.117765 H          1 MOL1         0.3780
@<TRIPOS>BOND
    1     1     2    1
    2     1     3    1
    3     1     4    1
    4     4     5    1
    5     4     6    1
    6     4     7    1
    7     7     8    1
    8     7     9    1
    9     7    10    1
   10    10    11    1
   11    10    12    1
   12    10    13    1
   13    13    14    1
   14    13    15    1
   15    15    16    1
   16    15    17    1
   17    15    18    1
   18    18    19    1
   19    18    20    1
   20     1    21    1
   21    18    21    1
   22    21    22    1
   23    21    23    1
   24    13    24    1
   25    24    25    1
@<TRIPOS>SUBSTRUCTURE
       1 MOL1            1 RESIDUE      1      MOL     
@<SCITEGIC>MOL_PROPERTY
VConf Rank
SciTegic.value.IntegerValue
410

@<SCITEGIC>MOL_PROPERTY
Conf_Id
SciTegic.value.IntegerValue
140

@<SCITEGIC>MOL_PROPERTY
Delta U+W
SciTegic.value.DoubleValue
-1.702

@<SCITEGIC>MOL_PROPERTY
U+W
SciTegic.value.DoubleValue
9.211

@<SCITEGIC>MOL_PROPERTY
Grad RMS
SciTegic.value.DoubleValue
0.000000

@<SCITEGIC>MOL_PROPERTY
U
SciTegic.value.DoubleValue
11.181

@<SCITEGIC>MOL_PROPERTY
W
SciTegic.value.DoubleValue
-1.969

@<SCITEGIC>MOL_PROPERTY
W(PB)
SciTegic.value.DoubleValue
-4.093

@<SCITEGIC>MOL_PROPERTY
W(SA)
SciTegic.value.DoubleValue
2.124

@<SCITEGIC>MOL_PROPERTY
Valence
SciTegic.value.DoubleValue
16.954

@<SCITEGIC>MOL_PROPERTY
Coulomb
SciTegic.value.DoubleValue
-8.661

@<SCITEGIC>MOL_PROPERTY
VdW
SciTegic.value.DoubleValue
2.887

@<SCITEGIC>MOL_PROPERTY
VdW6
SciTegic.value.DoubleValue
-12.561

@<SCITEGIC>MOL_PROPERTY
VdW12
SciTegic.value.DoubleValue
15.448

@<SCITEGIC>MOL_PROPERTY
Bond
SciTegic.value.DoubleValue
0.433

@<SCITEGIC>MOL_PROPERTY
Angle
SciTegic.value.DoubleValue
5.120

@<SCITEGIC>MOL_PROPERTY
Pdih
SciTegic.value.DoubleValue
11.401

@<SCITEGIC>MOL_PROPERTY
Idih
SciTegic.value.DoubleValue
0.000

@<SCITEGIC>MOL_PROPERTY
Tether
SciTegic.value.DoubleValue
0.000

@<TRIPOS>MOLECULE
guest-s17_confgen4.mol2 : confsearch ligand conformer 411
          25          25           1
SMALL
USER_CHARGES
 
@<TRIPOS>ATOM
       1    C1      20.552506   20.202270   20.877653 C.3        1 MOL1        -0.1684
       2    H1      20.959750   21.222388   20.873095 H          1 MOL1         0.0833
       3    H2      20.362160   19.954773   19.824356 H          1 MOL1         0.0833
       4    C2      19.188321   20.209214   21.614809 C.3        1 MOL1        -0.1684
       5    H3      19.232606   20.849257   22.503170 H          1 MOL1         0.0833
       6    H4      18.467423   20.709550   20.953733 H          1 MOL1         0.0833
       7    C3      18.620878   18.812379   21.977313 C.3        1 MOL1        -0.1684
       8    H5      19.011732   18.039820   21.302643 H          1 MOL1         0.0833
       9    H6      17.538843   18.836489   21.788682 H          1 MOL1         0.0833
      10    C4      18.813041   18.396886   23.461042 C.3        1 MOL1        -0.1760
      11    H7      18.375115   19.166240   24.110296 H          1 MOL1         0.0833
      12    H8      18.215555   17.490602   23.628064 H          1 MOL1         0.0833
      13    C5      20.261747   18.096707   23.921513 C.3        1 MOL1         0.1219
      14    H9      20.706944   17.349214   23.251493 H          1 MOL1         0.0790
      15    C6      21.178744   19.345041   23.994664 C.3        1 MOL1        -0.1760
      16    H10     20.575904   20.253328   24.095348 H          1 MOL1         0.0833
      17    H11     21.773642   19.303680   24.917161 H          1 MOL1         0.0833
      18    C7      22.179143   19.494507   22.819023 C.3        1 MOL1        -0.1684
      19    H12     23.010144   18.797538   22.994305 H          1 MOL1         0.0833
      20    H13     22.621347   20.499412   22.852473 H          1 MOL1         0.0833
      21    C8      21.634983   19.221711   21.394333 C.3        1 MOL1        -0.1684
      22    H14     21.284570   18.186835   21.308053 H          1 MOL1         0.0833
      23    H15     22.486660   19.283191   20.703194 H          1 MOL1         0.0833
      24    O1      20.181800   17.527376   25.222140 O.3        1 MOL1        -0.5508
      25    H16     19.779184   18.209207   25.798291 H          1 MOL1         0.3780
@<TRIPOS>BOND
    1     1     2    1
    2     1     3    1
    3     1     4    1
    4     4     5    1
    5     4     6    1
    6     4     7    1
    7     7     8    1
    8     7     9    1
    9     7    10    1
   10    10    11    1
   11    10    12    1
   12    10    13    1
   13    13    14    1
   14    13    15    1
   15    15    16    1
   16    15    17    1
   17    15    18    1
   18    18    19    1
   19    18    20    1
   20     1    21    1
   21    18    21    1
   22    21    22    1
   23    21    23    1
   24    13    24    1
   25    24    25    1
@<TRIPOS>SUBSTRUCTURE
       1 MOL1            1 RESIDUE      1      MOL     
@<SCITEGIC>MOL_PROPERTY
VConf Rank
SciTegic.value.IntegerValue
411

@<SCITEGIC>MOL_PROPERTY
Conf_Id
SciTegic.value.IntegerValue
68

@<SCITEGIC>MOL_PROPERTY
Delta U+W
SciTegic.value.DoubleValue
-1.765

@<SCITEGIC>MOL_PROPERTY
U+W
SciTegic.value.DoubleValue
9.148

@<SCITEGIC>MOL_PROPERTY
Grad RMS
SciTegic.value.DoubleValue
0.000000

@<SCITEGIC>MOL_PROPERTY
U
SciTegic.value.DoubleValue
11.181

@<SCITEGIC>MOL_PROPERTY
W
SciTegic.value.DoubleValue
-2.032

@<SCITEGIC>MOL_PROPERTY
W(PB)
SciTegic.value.DoubleValue
-4.147

@<SCITEGIC>MOL_PROPERTY
W(SA)
SciTegic.value.DoubleValue
2.114

@<SCITEGIC>MOL_PROPERTY
Valence
SciTegic.value.DoubleValue
16.955

@<SCITEGIC>MOL_PROPERTY
Coulomb
SciTegic.value.DoubleValue
-8.661

@<SCITEGIC>MOL_PROPERTY
VdW
SciTegic.value.DoubleValue
2.887

@<SCITEGIC>MOL_PROPERTY
VdW6
SciTegic.value.DoubleValue
-12.561

@<SCITEGIC>MOL_PROPERTY
VdW12
SciTegic.value.DoubleValue
15.448

@<SCITEGIC>MOL_PROPERTY
Bond
SciTegic.value.DoubleValue
0.433

@<SCITEGIC>MOL_PROPERTY
Angle
SciTegic.value.DoubleValue
5.121

@<SCITEGIC>MOL_PROPERTY
Pdih
SciTegic.value.DoubleValue
11.402

@<SCITEGIC>MOL_PROPERTY
Idih
SciTegic.value.DoubleValue
0.000

@<SCITEGIC>MOL_PROPERTY
Tether
SciTegic.value.DoubleValue
0.000

@<TRIPOS>MOLECULE
guest-s17_confgen4.mol2 : confsearch ligand conformer 412
          25          25           1
SMALL
USER_CHARGES
 
@<TRIPOS>ATOM
       1    C1      21.084812   17.735913   23.468950 C.3        1 MOL1        -0.1684
       2    H1      21.550862   16.928429   24.050193 H          1 MOL1         0.0833
       3    H2      21.500971   17.620175   22.461821 H          1 MOL1         0.0833
       4    C2      21.522873   19.088752   24.088009 C.3        1 MOL1        -0.1684
       5    H3      20.777179   19.455866   24.804795 H          1 MOL1         0.0833
       6    H4      22.425412   18.901287   24.685754 H          1 MOL1         0.0833
       7    C3      21.884095   20.190052   23.056864 C.3        1 MOL1        -0.1684
       8    H5      22.665448   19.814879   22.381729 H          1 MOL1         0.0833
       9    H6      22.344550   21.022832   23.605764 H          1 MOL1         0.0833
      10    C4      20.714502   20.768057   22.216319 C.3        1 MOL1        -0.1760
      11    H7      19.936907   21.175106   22.873748 H          1 MOL1         0.0833
      12    H8      21.114442   21.634378   21.672125 H          1 MOL1         0.0833
      13    C5      20.108858   19.775903   21.189813 C.3        1 MOL1         0.1219
      14    H9      20.830757   18.973195   20.999905 H          1 MOL1         0.0790
      15    C6      18.755310   19.152477   21.610874 C.3        1 MOL1        -0.1760
      16    H10     17.964505   19.897813   21.453780 H          1 MOL1         0.0833
      17    H11     18.527752   18.324352   20.927125 H          1 MOL1         0.0833
      18    C7      18.631932   18.648112   23.071852 C.3        1 MOL1        -0.1684
      19    H12     17.595814   18.312630   23.215494 H          1 MOL1         0.0833
      20    H13     18.753398   19.479244   23.775965 H          1 MOL1         0.0833
      21    C8      19.557057   17.469469   23.465658 C.3        1 MOL1        -0.1684
      22    H14     19.346616   16.609363   22.815644 H          1 MOL1         0.0833
      23    H15     19.270791   17.152493   24.477871 H          1 MOL1         0.0833
      24    O1      19.898972   20.464920   19.963483 O.3        1 MOL1        -0.5508
      25    H16     19.266784   21.187439   20.156341 H          1 MOL1         0.3780
@<TRIPOS>BOND
    1     1     2    1
    2     1     3    1
    3     1     4    1
    4     4     5    1
    5     4     6    1
    6     4     7    1
    7     7     8    1
    8     7     9    1
    9     7    10    1
   10    10    11    1
   11    10    12    1
   12    10    13    1
   13    13    14    1
   14    13    15    1
   15    15    16    1
   16    15    17    1
   17    15    18    1
   18    18    19    1
   19    18    20    1
   20     1    21    1
   21    18    21    1
   22    21    22    1
   23    21    23    1
   24    13    24    1
   25    24    25    1
@<TRIPOS>SUBSTRUCTURE
       1 MOL1            1 RESIDUE      1      MOL     
@<SCITEGIC>MOL_PROPERTY
VConf Rank
SciTegic.value.IntegerValue
412

@<SCITEGIC>MOL_PROPERTY
Conf_Id
SciTegic.value.IntegerValue
165

@<SCITEGIC>MOL_PROPERTY
Delta U+W
SciTegic.value.DoubleValue
-1.999

@<SCITEGIC>MOL_PROPERTY
U+W
SciTegic.value.DoubleValue
8.915

@<SCITEGIC>MOL_PROPERTY
Grad RMS
SciTegic.value.DoubleValue
0.000000

@<SCITEGIC>MOL_PROPERTY
U
SciTegic.value.DoubleValue
10.935

@<SCITEGIC>MOL_PROPERTY
W
SciTegic.value.DoubleValue
-2.020

@<SCITEGIC>MOL_PROPERTY
W(PB)
SciTegic.value.DoubleValue
-4.135

@<SCITEGIC>MOL_PROPERTY
W(SA)
SciTegic.value.DoubleValue
2.115

@<SCITEGIC>MOL_PROPERTY
Valence
SciTegic.value.DoubleValue
16.757

@<SCITEGIC>MOL_PROPERTY
Coulomb
SciTegic.value.DoubleValue
-8.731

@<SCITEGIC>MOL_PROPERTY
VdW
SciTegic.value.DoubleValue
2.908

@<SCITEGIC>MOL_PROPERTY
VdW6
SciTegic.value.DoubleValue
-12.597

@<SCITEGIC>MOL_PROPERTY
VdW12
SciTegic.value.DoubleValue
15.506

@<SCITEGIC>MOL_PROPERTY
Bond
SciTegic.value.DoubleValue
0.434

@<SCITEGIC>MOL_PROPERTY
Angle
SciTegic.value.DoubleValue
5.069

@<SCITEGIC>MOL_PROPERTY
Pdih
SciTegic.value.DoubleValue
11.254

@<SCITEGIC>MOL_PROPERTY
Idih
SciTegic.value.DoubleValue
0.000

@<SCITEGIC>MOL_PROPERTY
Tether
SciTegic.value.DoubleValue
0.000

@<TRIPOS>MOLECULE
guest-s17_confgen4.mol2 : confsearch ligand conformer 413
          25          25           1
SMALL
USER_CHARGES
 
@<TRIPOS>ATOM
       1    C1      21.868534   19.824471   21.941837 C.3        1 MOL1        -0.1684
       2    H1      22.752326   20.255097   21.451370 H          1 MOL1         0.0833
       3    H2      22.265104   19.348849   22.845893 H          1 MOL1         0.0833
       4    C2      21.284329   18.763040   20.973580 C.3        1 MOL1        -0.1684
       5    H3      21.323773   19.179848   19.957843 H          1 MOL1         0.0833
       6    H4      21.948618   17.888334   20.960300 H          1 MOL1         0.0833
       7    C3      19.828158   18.297576   21.225071 C.3        1 MOL1        -0.1684
       8    H5      19.550748   17.629200   20.398623 H          1 MOL1         0.0833
       9    H6      19.137464   19.144255   21.139229 H          1 MOL1         0.0833
      10    C4      19.577986   17.525953   22.546450 C.3        1 MOL1        -0.1760
      11    H7      18.538183   17.172382   22.528796 H          1 MOL1         0.0833
      12    H8      20.204154   16.624529   22.554574 H          1 MOL1         0.0833
      13    C5      19.803694   18.298165   23.869517 C.3        1 MOL1         0.1219
      14    H9      20.878954   18.357329   24.074884 H          1 MOL1         0.0790
      15    C6      19.207334   19.729253   23.892370 C.3        1 MOL1        -0.1760
      16    H10     18.399907   19.827486   23.157163 H          1 MOL1         0.0833
      17    H11     18.726989   19.889272   24.867150 H          1 MOL1         0.0833
      18    C7      20.249272   20.865175   23.710606 C.3        1 MOL1        -0.1684
      19    H12     21.031121   20.766137   24.476040 H          1 MOL1         0.0833
      20    H13     19.745911   21.817630   23.925620 H          1 MOL1         0.0833
      21    C8      20.910420   20.986466   22.312379 C.3        1 MOL1        -0.1684
      22    H14     21.501194   21.912737   22.316792 H          1 MOL1         0.0833
      23    H15     20.150908   21.136262   21.534361 H          1 MOL1         0.0833
      24    O1      19.201032   17.540746   24.912891 O.3        1 MOL1        -0.5508
      25    H16     19.627426   16.658395   24.903683 H          1 MOL1         0.3780
@<TRIPOS>BOND
    1     1     2    1
    2     1     3    1
    3     1     4    1
    4     4     5    1
    5     4     6    1
    6     4     7    1
    7     7     8    1
    8     7     9    1
    9     7    10    1
   10    10    11    1
   11    10    12    1
   12    10    13    1
   13    13    14    1
   14    13    15    1
   15    15    16    1
   16    15    17    1
   17    15    18    1
   18    18    19    1
   19    18    20    1
   20     1    21    1
   21    18    21    1
   22    21    22    1
   23    21    23    1
   24    13    24    1
   25    24    25    1
@<TRIPOS>SUBSTRUCTURE
       1 MOL1            1 RESIDUE      1      MOL     
@<SCITEGIC>MOL_PROPERTY
VConf Rank
SciTegic.value.IntegerValue
413

@<SCITEGIC>MOL_PROPERTY
Conf_Id
SciTegic.value.IntegerValue
133

@<SCITEGIC>MOL_PROPERTY
Delta U+W
SciTegic.value.DoubleValue
-2.139

@<SCITEGIC>MOL_PROPERTY
U+W
SciTegic.value.DoubleValue
8.774

@<SCITEGIC>MOL_PROPERTY
Grad RMS
SciTegic.value.DoubleValue
0.000000

@<SCITEGIC>MOL_PROPERTY
U
SciTegic.value.DoubleValue
10.905

@<SCITEGIC>MOL_PROPERTY
W
SciTegic.value.DoubleValue
-2.131

@<SCITEGIC>MOL_PROPERTY
W(PB)
SciTegic.value.DoubleValue
-4.281

@<SCITEGIC>MOL_PROPERTY
W(SA)
SciTegic.value.DoubleValue
2.150

@<SCITEGIC>MOL_PROPERTY
Valence
SciTegic.value.DoubleValue
16.378

@<SCITEGIC>MOL_PROPERTY
Coulomb
SciTegic.value.DoubleValue
-8.448

@<SCITEGIC>MOL_PROPERTY
VdW
SciTegic.value.DoubleValue
2.976

@<SCITEGIC>MOL_PROPERTY
VdW6
SciTegic.value.DoubleValue
-12.570

@<SCITEGIC>MOL_PROPERTY
VdW12
SciTegic.value.DoubleValue
15.545

@<SCITEGIC>MOL_PROPERTY
Bond
SciTegic.value.DoubleValue
0.439

@<SCITEGIC>MOL_PROPERTY
Angle
SciTegic.value.DoubleValue
5.049

@<SCITEGIC>MOL_PROPERTY
Pdih
SciTegic.value.DoubleValue
10.889

@<SCITEGIC>MOL_PROPERTY
Idih
SciTegic.value.DoubleValue
0.000

@<SCITEGIC>MOL_PROPERTY
Tether
SciTegic.value.DoubleValue
0.000

@<TRIPOS>MOLECULE
guest-s17_confgen4.mol2 : confsearch ligand conformer 414
          25          25           1
SMALL
USER_CHARGES
 
@<TRIPOS>ATOM
       1    C1      19.592679   19.797735   24.261173 C.3        1 MOL1        -0.1684
       2    H1      19.241287   20.087554   25.260980 H          1 MOL1         0.0833
       3    H2      18.812976   20.163140   23.583422 H          1 MOL1         0.0833
       4    C2      19.677104   18.249863   24.211309 C.3        1 MOL1        -0.1684
       5    H3      20.691573   17.901371   24.443723 H          1 MOL1         0.0833
       6    H4      19.047955   17.858684   25.022580 H          1 MOL1         0.0833
       7    C3      19.164429   17.611441   22.893563 C.3        1 MOL1        -0.1684
       8    H5      18.131173   17.936094   22.709247 H          1 MOL1         0.0833
       9    H6      19.108430   16.525335   23.048519 H          1 MOL1         0.0833
      10    C4      20.015536   17.863160   21.620282 C.3        1 MOL1        -0.1760
      11    H7      21.044754   17.516871   21.771655 H          1 MOL1         0.0833
      12    H8      19.609485   17.215637   20.831379 H          1 MOL1         0.0833
      13    C5      19.995046   19.327404   21.110624 C.3        1 MOL1         0.1219
      14    H9      19.120584   19.838204   21.530453 H          1 MOL1         0.0790
      15    C6      21.269665   20.143000   21.439098 C.3        1 MOL1        -0.1760
      16    H10     22.062684   19.834583   20.744464 H          1 MOL1         0.0833
      17    H11     21.074330   21.201597   21.224777 H          1 MOL1         0.0833
      18    C7      21.838000   20.019638   22.876388 C.3        1 MOL1        -0.1684
      19    H12     22.771726   20.597359   22.909450 H          1 MOL1         0.0833
      20    H13     22.144698   18.987226   23.079747 H          1 MOL1         0.0833
      21    C8      20.929043   20.545551   24.015492 C.3        1 MOL1        -0.1684
      22    H14     20.716583   21.610319   23.849062 H          1 MOL1         0.0833
      23    H15     21.511998   20.502135   24.945699 H          1 MOL1         0.0833
      24    O1      19.852943   19.311092   19.694625 O.3        1 MOL1        -0.5508
      25    H16     19.797688   20.245921   19.405695 H          1 MOL1         0.3780
@<TRIPOS>BOND
    1     1     2    1
    2     1     3    1
    3     1     4    1
    4     4     5    1
    5     4     6    1
    6     4     7    1
    7     7     8    1
    8     7     9    1
    9     7    10    1
   10    10    11    1
   11    10    12    1
   12    10    13    1
   13    13    14    1
   14    13    15    1
   15    15    16    1
   16    15    17    1
   17    15    18    1
   18    18    19    1
   19    18    20    1
   20     1    21    1
   21    18    21    1
   22    21    22    1
   23    21    23    1
   24    13    24    1
   25    24    25    1
@<TRIPOS>SUBSTRUCTURE
       1 MOL1            1 RESIDUE      1      MOL     
@<SCITEGIC>MOL_PROPERTY
VConf Rank
SciTegic.value.IntegerValue
414

@<SCITEGIC>MOL_PROPERTY
Conf_Id
SciTegic.value.IntegerValue
95

@<SCITEGIC>MOL_PROPERTY
Delta U+W
SciTegic.value.DoubleValue
-2.190

@<SCITEGIC>MOL_PROPERTY
U+W
SciTegic.value.DoubleValue
8.723

@<SCITEGIC>MOL_PROPERTY
Grad RMS
SciTegic.value.DoubleValue
0.000000

@<SCITEGIC>MOL_PROPERTY
U
SciTegic.value.DoubleValue
10.905

@<SCITEGIC>MOL_PROPERTY
W
SciTegic.value.DoubleValue
-2.182

@<SCITEGIC>MOL_PROPERTY
W(PB)
SciTegic.value.DoubleValue
-4.296

@<SCITEGIC>MOL_PROPERTY
W(SA)
SciTegic.value.DoubleValue
2.114

@<SCITEGIC>MOL_PROPERTY
Valence
SciTegic.value.DoubleValue
16.377

@<SCITEGIC>MOL_PROPERTY
Coulomb
SciTegic.value.DoubleValue
-8.448

@<SCITEGIC>MOL_PROPERTY
VdW
SciTegic.value.DoubleValue
2.976

@<SCITEGIC>MOL_PROPERTY
VdW6
SciTegic.value.DoubleValue
-12.570

@<SCITEGIC>MOL_PROPERTY
VdW12
SciTegic.value.DoubleValue
15.546

@<SCITEGIC>MOL_PROPERTY
Bond
SciTegic.value.DoubleValue
0.439

@<SCITEGIC>MOL_PROPERTY
Angle
SciTegic.value.DoubleValue
5.049

@<SCITEGIC>MOL_PROPERTY
Pdih
SciTegic.value.DoubleValue
10.889

@<SCITEGIC>MOL_PROPERTY
Idih
SciTegic.value.DoubleValue
0.000

@<SCITEGIC>MOL_PROPERTY
Tether
SciTegic.value.DoubleValue
0.000

@<TRIPOS>MOLECULE
guest-s17_confgen4.mol2 : confsearch ligand conformer 415
          25          25           1
SMALL
USER_CHARGES
 
@<TRIPOS>ATOM
       1    C1      20.274669   20.549090   23.860697 C.3        1 MOL1        -0.1684
       2    H1      20.292568   21.295171   24.666889 H          1 MOL1         0.0833
       3    H2      19.691028   21.038671   23.074625 H          1 MOL1         0.0833
       4    C2      19.527708   19.299697   24.413225 C.3        1 MOL1        -0.1684
       5    H3      19.778614   19.212729   25.479256 H          1 MOL1         0.0833
       6    H4      18.446120   19.488634   24.382553 H          1 MOL1         0.0833
       7    C3      19.825674   17.921630   23.766199 C.3        1 MOL1        -0.1684
       8    H5      19.305100   17.156774   24.358497 H          1 MOL1         0.0833
       9    H6      20.883418   17.677625   23.906438 H          1 MOL1         0.0833
      10    C4      19.401709   17.719339   22.280987 C.3        1 MOL1        -0.1760
      11    H7      19.977696   16.885848   21.858017 H          1 MOL1         0.0833
      12    H8      18.356283   17.384236   22.288288 H          1 MOL1         0.0833
      13    C5      19.488229   18.933194   21.321423 C.3        1 MOL1         0.1219
      14    H9      18.871831   19.737704   21.735709 H          1 MOL1         0.0790
      15    C6      20.909661   19.478966   21.001648 C.3        1 MOL1        -0.1760
      16    H10     21.314681   18.896193   20.163406 H          1 MOL1         0.0833
      17    H11     20.808167   20.504958   20.625713 H          1 MOL1         0.0833
      18    C7      21.981545   19.457460   22.124866 C.3        1 MOL1        -0.1684
      19    H12     22.934009   19.776978   21.680531 H          1 MOL1         0.0833
      20    H13     22.172963   18.421596   22.422215 H          1 MOL1         0.0833
      21    C8      21.734601   20.355217   23.372487 C.3        1 MOL1        -0.1684
      22    H14     22.130313   21.353841   23.142203 H          1 MOL1         0.0833
      23    H15     22.347247   19.982972   24.204678 H          1 MOL1         0.0833
      24    O1      18.898062   18.542167   20.087157 O.3        1 MOL1        -0.5508
      25    H16     17.981187   18.261256   20.288370 H          1 MOL1         0.3780
@<TRIPOS>BOND
    1     1     2    1
    2     1     3    1
    3     1     4    1
    4     4     5    1
    5     4     6    1
    6     4     7    1
    7     7     8    1
    8     7     9    1
    9     7    10    1
   10    10    11    1
   11    10    12    1
   12    10    13    1
   13    13    14    1
   14    13    15    1
   15    15    16    1
   16    15    17    1
   17    15    18    1
   18    18    19    1
   19    18    20    1
   20     1    21    1
   21    18    21    1
   22    21    22    1
   23    21    23    1
   24    13    24    1
   25    24    25    1
@<TRIPOS>SUBSTRUCTURE
       1 MOL1            1 RESIDUE      1      MOL     
@<SCITEGIC>MOL_PROPERTY
VConf Rank
SciTegic.value.IntegerValue
415

@<SCITEGIC>MOL_PROPERTY
Conf_Id
SciTegic.value.IntegerValue
161

@<SCITEGIC>MOL_PROPERTY
Delta U+W
SciTegic.value.DoubleValue
2.120

@<SCITEGIC>MOL_PROPERTY
U+W
SciTegic.value.DoubleValue
13.033

@<SCITEGIC>MOL_PROPERTY
Grad RMS
SciTegic.value.DoubleValue
0.000000

@<SCITEGIC>MOL_PROPERTY
U
SciTegic.value.DoubleValue
15.076

@<SCITEGIC>MOL_PROPERTY
W
SciTegic.value.DoubleValue
-2.043

@<SCITEGIC>MOL_PROPERTY
W(PB)
SciTegic.value.DoubleValue
-4.186

@<SCITEGIC>MOL_PROPERTY
W(SA)
SciTegic.value.DoubleValue
2.143

@<SCITEGIC>MOL_PROPERTY
Valence
SciTegic.value.DoubleValue
18.884

@<SCITEGIC>MOL_PROPERTY
Coulomb
SciTegic.value.DoubleValue
-8.074

@<SCITEGIC>MOL_PROPERTY
VdW
SciTegic.value.DoubleValue
4.266

@<SCITEGIC>MOL_PROPERTY
VdW6
SciTegic.value.DoubleValue
-13.486

@<SCITEGIC>MOL_PROPERTY
VdW12
SciTegic.value.DoubleValue
17.752

@<SCITEGIC>MOL_PROPERTY
Bond
SciTegic.value.DoubleValue
0.713

@<SCITEGIC>MOL_PROPERTY
Angle
SciTegic.value.DoubleValue
8.955

@<SCITEGIC>MOL_PROPERTY
Pdih
SciTegic.value.DoubleValue
9.215

@<SCITEGIC>MOL_PROPERTY
Idih
SciTegic.value.DoubleValue
0.000

@<SCITEGIC>MOL_PROPERTY
Tether
SciTegic.value.DoubleValue
0.000

@<TRIPOS>MOLECULE
guest-s17_confgen4.mol2 : confsearch ligand conformer 416
          25          25           1
SMALL
USER_CHARGES
 
@<TRIPOS>ATOM
       1    C1      21.934603   19.762745   23.621446 C.3        1 MOL1        -0.1684
       2    H1      22.862111   19.810496   24.208332 H          1 MOL1         0.0833
       3    H2      21.578335   20.799729   23.577034 H          1 MOL1         0.0833
       4    C2      20.920289   18.888333   24.400065 C.3        1 MOL1        -0.1684
       5    H3      21.055702   17.825363   24.159348 H          1 MOL1         0.0833
       6    H4      21.173704   18.979197   25.465286 H          1 MOL1         0.0833
       7    C3      19.432360   19.312732   24.254172 C.3        1 MOL1        -0.1684
       8    H5      19.333761   20.405989   24.217376 H          1 MOL1         0.0833
       9    H6      18.923187   19.006474   25.178374 H          1 MOL1         0.0833
      10    C4      18.666597   18.650490   23.079644 C.3        1 MOL1        -0.1760
      11    H7      19.032543   17.627988   22.926214 H          1 MOL1         0.0833
      12    H8      17.619524   18.532741   23.388522 H          1 MOL1         0.0833
      13    C5      18.645719   19.437851   21.744932 C.3        1 MOL1         0.1219
      14    H9      18.009397   20.323356   21.885460 H          1 MOL1         0.0790
      15    C6      20.012427   19.929205   21.214306 C.3        1 MOL1        -0.1760
      16    H10     19.880095   20.257469   20.174683 H          1 MOL1         0.0833
      17    H11     20.297155   20.839207   21.753369 H          1 MOL1         0.0833
      18    C7      21.151020   18.875537   21.265506 C.3        1 MOL1        -0.1684
      19    H12     21.555740   18.743217   20.252875 H          1 MOL1         0.0833
      20    H13     20.766544   17.888388   21.546247 H          1 MOL1         0.0833
      21    C8      22.319348   19.255776   22.206308 C.3        1 MOL1        -0.1684
      22    H14     22.926771   20.030634   21.719027 H          1 MOL1         0.0833
      23    H15     22.976738   18.381656   22.308944 H          1 MOL1         0.0833
      24    O1      18.059018   18.605579   20.754239 O.3        1 MOL1        -0.5508
      25    H16     18.720253   17.909902   20.562897 H          1 MOL1         0.3780
@<TRIPOS>BOND
    1     1     2    1
    2     1     3    1
    3     1     4    1
    4     4     5    1
    5     4     6    1
    6     4     7    1
    7     7     8    1
    8     7     9    1
    9     7    10    1
   10    10    11    1
   11    10    12    1
   12    10    13    1
   13    13    14    1
   14    13    15    1
   15    15    16    1
   16    15    17    1
   17    15    18    1
   18    18    19    1
   19    18    20    1
   20     1    21    1
   21    18    21    1
   22    21    22    1
   23    21    23    1
   24    13    24    1
   25    24    25    1
@<TRIPOS>SUBSTRUCTURE
       1 MOL1            1 RESIDUE      1      MOL     
@<SCITEGIC>MOL_PROPERTY
VConf Rank
SciTegic.value.IntegerValue
416

@<SCITEGIC>MOL_PROPERTY
Conf_Id
SciTegic.value.IntegerValue
164

@<SCITEGIC>MOL_PROPERTY
Delta U+W
SciTegic.value.DoubleValue
0.008

@<SCITEGIC>MOL_PROPERTY
U+W
SciTegic.value.DoubleValue
10.922

@<SCITEGIC>MOL_PROPERTY
Grad RMS
SciTegic.value.DoubleValue
0.000000

@<SCITEGIC>MOL_PROPERTY
U
SciTegic.value.DoubleValue
12.433

@<SCITEGIC>MOL_PROPERTY
W
SciTegic.value.DoubleValue
-1.511

@<SCITEGIC>MOL_PROPERTY
W(PB)
SciTegic.value.DoubleValue
-3.669

@<SCITEGIC>MOL_PROPERTY
W(SA)
SciTegic.value.DoubleValue
2.157

@<SCITEGIC>MOL_PROPERTY
Valence
SciTegic.value.DoubleValue
19.007

@<SCITEGIC>MOL_PROPERTY
Coulomb
SciTegic.value.DoubleValue
-9.373

@<SCITEGIC>MOL_PROPERTY
VdW
SciTegic.value.DoubleValue
2.799

@<SCITEGIC>MOL_PROPERTY
VdW6
SciTegic.value.DoubleValue
-12.597

@<SCITEGIC>MOL_PROPERTY
VdW12
SciTegic.value.DoubleValue
15.396

@<SCITEGIC>MOL_PROPERTY
Bond
SciTegic.value.DoubleValue
0.425

@<SCITEGIC>MOL_PROPERTY
Angle
SciTegic.value.DoubleValue
4.784

@<SCITEGIC>MOL_PROPERTY
Pdih
SciTegic.value.DoubleValue
13.799

@<SCITEGIC>MOL_PROPERTY
Idih
SciTegic.value.DoubleValue
0.000

@<SCITEGIC>MOL_PROPERTY
Tether
SciTegic.value.DoubleValue
0.000

@<TRIPOS>MOLECULE
guest-s17_confgen4.mol2 : confsearch ligand conformer 417
          25          25           1
SMALL
USER_CHARGES
 
@<TRIPOS>ATOM
       1    C1      22.079098   18.815553   22.469003 C.3        1 MOL1        -0.1684
       2    H1      21.739685   18.244298   23.340432 H          1 MOL1         0.0833
       3    H2      23.145758   18.570042   22.376092 H          1 MOL1         0.0833
       4    C2      21.979918   20.336211   22.747360 C.3        1 MOL1        -0.1684
       5    H3      22.618448   20.554115   23.614366 H          1 MOL1         0.0833
       6    H4      22.421889   20.888505   21.907039 H          1 MOL1         0.0833
       7    C3      20.570423   20.910580   23.040933 C.3        1 MOL1        -0.1684
       8    H5      20.035525   21.114601   22.106415 H          1 MOL1         0.0833
       9    H6      20.712406   21.899667   23.497607 H          1 MOL1         0.0833
      10    C4      19.692836   20.057590   23.995411 C.3        1 MOL1        -0.1760
      11    H7      20.314901   19.428739   24.643764 H          1 MOL1         0.0833
      12    H8      19.177476   20.752018   24.672473 H          1 MOL1         0.0833
      13    C5      18.598706   19.213356   23.294969 C.3        1 MOL1         0.1219
      14    H9      18.006746   19.883080   22.654928 H          1 MOL1         0.0790
      15    C6      19.088762   18.026148   22.428446 C.3        1 MOL1        -0.1760
      16    H10     19.690948   17.330475   23.025264 H          1 MOL1         0.0833
      17    H11     18.197702   17.457160   22.130950 H          1 MOL1         0.0833
      18    C7      19.832924   18.430388   21.127833 C.3        1 MOL1        -0.1684
      19    H12     19.536788   19.437387   20.812681 H          1 MOL1         0.0833
      20    H13     19.486139   17.775691   20.316590 H          1 MOL1         0.0833
      21    C8      21.377267   18.309511   21.184062 C.3        1 MOL1        -0.1684
      22    H14     21.806687   18.819587   20.311177 H          1 MOL1         0.0833
      23    H15     21.635481   17.248411   21.064509 H          1 MOL1         0.0833
      24    O1      17.748158   18.687530   24.304560 O.3        1 MOL1        -0.5508
      25    H16     18.303973   18.098161   24.854560 H          1 MOL1         0.3780
@<TRIPOS>BOND
    1     1     2    1
    2     1     3    1
    3     1     4    1
    4     4     5    1
    5     4     6    1
    6     4     7    1
    7     7     8    1
    8     7     9    1
    9     7    10    1
   10    10    11    1
   11    10    12    1
   12    10    13    1
   13    13    14    1
   14    13    15    1
   15    15    16    1
   16    15    17    1
   17    15    18    1
   18    18    19    1
   19    18    20    1
   20     1    21    1
   21    18    21    1
   22    21    22    1
   23    21    23    1
   24    13    24    1
   25    24    25    1
@<TRIPOS>SUBSTRUCTURE
       1 MOL1            1 RESIDUE      1      MOL     
@<SCITEGIC>MOL_PROPERTY
VConf Rank
SciTegic.value.IntegerValue
417

@<SCITEGIC>MOL_PROPERTY
Conf_Id
SciTegic.value.IntegerValue
15

@<SCITEGIC>MOL_PROPERTY
Delta U+W
SciTegic.value.DoubleValue
-1.271

@<SCITEGIC>MOL_PROPERTY
U+W
SciTegic.value.DoubleValue
9.643

@<SCITEGIC>MOL_PROPERTY
Grad RMS
SciTegic.value.DoubleValue
0.000000

@<SCITEGIC>MOL_PROPERTY
U
SciTegic.value.DoubleValue
11.413

@<SCITEGIC>MOL_PROPERTY
W
SciTegic.value.DoubleValue
-1.770

@<SCITEGIC>MOL_PROPERTY
W(PB)
SciTegic.value.DoubleValue
-3.908

@<SCITEGIC>MOL_PROPERTY
W(SA)
SciTegic.value.DoubleValue
2.138

@<SCITEGIC>MOL_PROPERTY
Valence
SciTegic.value.DoubleValue
17.496

@<SCITEGIC>MOL_PROPERTY
Coulomb
SciTegic.value.DoubleValue
-8.736

@<SCITEGIC>MOL_PROPERTY
VdW
SciTegic.value.DoubleValue
2.653

@<SCITEGIC>MOL_PROPERTY
VdW6
SciTegic.value.DoubleValue
-12.485

@<SCITEGIC>MOL_PROPERTY
VdW12
SciTegic.value.DoubleValue
15.138

@<SCITEGIC>MOL_PROPERTY
Bond
SciTegic.value.DoubleValue
0.414

@<SCITEGIC>MOL_PROPERTY
Angle
SciTegic.value.DoubleValue
5.295

@<SCITEGIC>MOL_PROPERTY
Pdih
SciTegic.value.DoubleValue
11.787

@<SCITEGIC>MOL_PROPERTY
Idih
SciTegic.value.DoubleValue
0.000

@<SCITEGIC>MOL_PROPERTY
Tether
SciTegic.value.DoubleValue
0.000

@<TRIPOS>MOLECULE
guest-s17_confgen4.mol2 : confsearch ligand conformer 418
          25          25           1
SMALL
USER_CHARGES
 
@<TRIPOS>ATOM
       1    C1      19.652925   17.509721   23.162449 C.3        1 MOL1        -0.1684
       2    H1      19.106121   16.633898   23.537843 H          1 MOL1         0.0833
       3    H2      20.707445   17.206315   23.172304 H          1 MOL1         0.0833
       4    C2      19.168602   17.757613   21.709588 C.3        1 MOL1        -0.1684
       5    H3      19.502194   16.913698   21.090436 H          1 MOL1         0.0833
       6    H4      18.070688   17.725940   21.690691 H          1 MOL1         0.0833
       7    C3      19.627543   19.075387   21.040129 C.3        1 MOL1        -0.1684
       8    H5      19.012450   19.906007   21.405510 H          1 MOL1         0.0833
       9    H6      19.401006   19.009508   19.967223 H          1 MOL1         0.0833
      10    C4      21.138169   19.381533   21.212580 C.3        1 MOL1        -0.1760
      11    H7      21.663470   18.524874   21.649139 H          1 MOL1         0.0833
      12    H8      21.582571   19.507261   20.216641 H          1 MOL1         0.0833
      13    C5      21.444402   20.661205   22.024325 C.3        1 MOL1         0.1219
      14    H9      21.208371   21.524362   21.385516 H          1 MOL1         0.0790
      15    C6      20.659791   20.846110   23.348967 C.3        1 MOL1        -0.1760
      16    H10     21.112961   21.698008   23.873601 H          1 MOL1         0.0833
      17    H11     19.634385   21.170832   23.135400 H          1 MOL1         0.0833
      18    C7      20.634521   19.640120   24.325692 C.3        1 MOL1        -0.1684
      19    H12     20.567129   20.056227   25.340313 H          1 MOL1         0.0833
      20    H13     21.584255   19.090340   24.302055 H          1 MOL1         0.0833
      21    C8      19.428217   18.675732   24.156682 C.3        1 MOL1        -0.1684
      22    H14     18.510267   19.226569   23.911464 H          1 MOL1         0.0833
      23    H15     19.241756   18.224030   25.140741 H          1 MOL1         0.0833
      24    O1      22.834337   20.678161   22.317928 O.3        1 MOL1        -0.5508
      25    H16     22.981060   19.955095   22.960417 H          1 MOL1         0.3780
@<TRIPOS>BOND
    1     1     2    1
    2     1     3    1
    3     1     4    1
    4     4     5    1
    5     4     6    1
    6     4     7    1
    7     7     8    1
    8     7     9    1
    9     7    10    1
   10    10    11    1
   11    10    12    1
   12    10    13    1
   13    13    14    1
   14    13    15    1
   15    15    16    1
   16    15    17    1
   17    15    18    1
   18    18    19    1
   19    18    20    1
   20     1    21    1
   21    18    21    1
   22    21    22    1
   23    21    23    1
   24    13    24    1
   25    24    25    1
@<TRIPOS>SUBSTRUCTURE
       1 MOL1            1 RESIDUE      1      MOL     
@<SCITEGIC>MOL_PROPERTY
VConf Rank
SciTegic.value.IntegerValue
418

@<SCITEGIC>MOL_PROPERTY
Conf_Id
SciTegic.value.IntegerValue
115

@<SCITEGIC>MOL_PROPERTY
Delta U+W
SciTegic.value.DoubleValue
0.038

@<SCITEGIC>MOL_PROPERTY
U+W
SciTegic.value.DoubleValue
10.952

@<SCITEGIC>MOL_PROPERTY
Grad RMS
SciTegic.value.DoubleValue
0.000000

@<SCITEGIC>MOL_PROPERTY
U
SciTegic.value.DoubleValue
12.526

@<SCITEGIC>MOL_PROPERTY
W
SciTegic.value.DoubleValue
-1.575

@<SCITEGIC>MOL_PROPERTY
W(PB)
SciTegic.value.DoubleValue
-3.698

@<SCITEGIC>MOL_PROPERTY
W(SA)
SciTegic.value.DoubleValue
2.123

@<SCITEGIC>MOL_PROPERTY
Valence
SciTegic.value.DoubleValue
19.016

@<SCITEGIC>MOL_PROPERTY
Coulomb
SciTegic.value.DoubleValue
-9.226

@<SCITEGIC>MOL_PROPERTY
VdW
SciTegic.value.DoubleValue
2.737

@<SCITEGIC>MOL_PROPERTY
VdW6
SciTegic.value.DoubleValue
-12.612

@<SCITEGIC>MOL_PROPERTY
VdW12
SciTegic.value.DoubleValue
15.349

@<SCITEGIC>MOL_PROPERTY
Bond
SciTegic.value.DoubleValue
0.421

@<SCITEGIC>MOL_PROPERTY
Angle
SciTegic.value.DoubleValue
4.883

@<SCITEGIC>MOL_PROPERTY
Pdih
SciTegic.value.DoubleValue
13.711

@<SCITEGIC>MOL_PROPERTY
Idih
SciTegic.value.DoubleValue
0.000

@<SCITEGIC>MOL_PROPERTY
Tether
SciTegic.value.DoubleValue
0.000

@<TRIPOS>MOLECULE
guest-s17_confgen4.mol2 : confsearch ligand conformer 419
          25          25           1
SMALL
USER_CHARGES
 
@<TRIPOS>ATOM
       1    C1      18.759346   19.878124   23.970337 C.3        1 MOL1        -0.1684
       2    H1      18.318491   20.068767   24.958410 H          1 MOL1         0.0833
       3    H2      18.085733   20.361078   23.249589 H          1 MOL1         0.0833
       4    C2      18.759270   18.346922   23.753644 C.3        1 MOL1        -0.1684
       5    H3      19.334740   17.853490   24.548599 H          1 MOL1         0.0833
       6    H4      17.725059   17.997740   23.878063 H          1 MOL1         0.0833
       7    C3      19.255762   17.879292   22.365944 C.3        1 MOL1        -0.1684
       8    H5      18.856000   18.531679   21.578188 H          1 MOL1         0.0833
       9    H6      18.816484   16.890307   22.175928 H          1 MOL1         0.0833
      10    C4      20.797300   17.733644   22.254647 C.3        1 MOL1        -0.1760
      11    H7      21.272460   17.757033   23.243326 H          1 MOL1         0.0833
      12    H8      21.003358   16.731425   21.855076 H          1 MOL1         0.0833
      13    C5      21.470631   18.764210   21.320563 C.3        1 MOL1         0.1219
      14    H9      20.802051   18.964681   20.471161 H          1 MOL1         0.0790
      15    C6      21.837956   20.103522   21.997136 C.3        1 MOL1        -0.1760
      16    H10     22.554700   19.928164   22.810227 H          1 MOL1         0.0833
      17    H11     22.370619   20.713659   21.255911 H          1 MOL1         0.0833
      18    C7      20.640137   20.937269   22.513626 C.3        1 MOL1        -0.1684
      19    H12     19.816876   20.915133   21.787140 H          1 MOL1         0.0833
      20    H13     20.964863   21.986194   22.552861 H          1 MOL1         0.0833
      21    C8      20.152114   20.550006   23.934142 C.3        1 MOL1        -0.1684
      22    H14     20.082918   21.476138   24.521250 H          1 MOL1         0.0833
      23    H15     20.890876   19.929065   24.458059 H          1 MOL1         0.0833
      24    O1      22.675186   18.190204   20.827399 O.3        1 MOL1        -0.5508
      25    H16     23.058913   18.835013   20.197074 H          1 MOL1         0.3780
@<TRIPOS>BOND
    1     1     2    1
    2     1     3    1
    3     1     4    1
    4     4     5    1
    5     4     6    1
    6     4     7    1
    7     7     8    1
    8     7     9    1
    9     7    10    1
   10    10    11    1
   11    10    12    1
   12    10    13    1
   13    13    14    1
   14    13    15    1
   15    15    16    1
   16    15    17    1
   17    15    18    1
   18    18    19    1
   19    18    20    1
   20     1    21    1
   21    18    21    1
   22    21    22    1
   23    21    23    1
   24    13    24    1
   25    24    25    1
@<TRIPOS>SUBSTRUCTURE
       1 MOL1            1 RESIDUE      1      MOL     
@<SCITEGIC>MOL_PROPERTY
VConf Rank
SciTegic.value.IntegerValue
419

@<SCITEGIC>MOL_PROPERTY
Conf_Id
SciTegic.value.IntegerValue
30

@<SCITEGIC>MOL_PROPERTY
Delta U+W
SciTegic.value.DoubleValue
0.000

@<SCITEGIC>MOL_PROPERTY
U+W
SciTegic.value.DoubleValue
10.913

@<SCITEGIC>MOL_PROPERTY
Grad RMS
SciTegic.value.DoubleValue
0.000000

@<SCITEGIC>MOL_PROPERTY
U
SciTegic.value.DoubleValue
13.140

@<SCITEGIC>MOL_PROPERTY
W
SciTegic.value.DoubleValue
-2.227

@<SCITEGIC>MOL_PROPERTY
W(PB)
SciTegic.value.DoubleValue
-4.367

@<SCITEGIC>MOL_PROPERTY
W(SA)
SciTegic.value.DoubleValue
2.140

@<SCITEGIC>MOL_PROPERTY
Valence
SciTegic.value.DoubleValue
19.155

@<SCITEGIC>MOL_PROPERTY
Coulomb
SciTegic.value.DoubleValue
-8.157

@<SCITEGIC>MOL_PROPERTY
VdW
SciTegic.value.DoubleValue
2.142

@<SCITEGIC>MOL_PROPERTY
VdW6
SciTegic.value.DoubleValue
-11.576

@<SCITEGIC>MOL_PROPERTY
VdW12
SciTegic.value.DoubleValue
13.718

@<SCITEGIC>MOL_PROPERTY
Bond
SciTegic.value.DoubleValue
0.294

@<SCITEGIC>MOL_PROPERTY
Angle
SciTegic.value.DoubleValue
3.547

@<SCITEGIC>MOL_PROPERTY
Pdih
SciTegic.value.DoubleValue
15.314

@<SCITEGIC>MOL_PROPERTY
Idih
SciTegic.value.DoubleValue
0.000

@<SCITEGIC>MOL_PROPERTY
Tether
SciTegic.value.DoubleValue
0.000

@<TRIPOS>MOLECULE
guest-s17_confgen4.mol2 : confsearch ligand conformer 420
          25          25           1
SMALL
USER_CHARGES
 
@<TRIPOS>ATOM
       1    C1      18.914271   17.975892   23.676147 C.3        1 MOL1        -0.1684
       2    H1      18.721474   17.779848   24.739751 H          1 MOL1         0.0833
       3    H2      18.250832   17.296241   23.124155 H          1 MOL1         0.0833
       4    C2      20.379286   17.584339   23.362298 C.3        1 MOL1        -0.1684
       5    H3      20.584698   16.622586   23.851897 H          1 MOL1         0.0833
       6    H4      20.483640   17.377254   22.290952 H          1 MOL1         0.0833
       7    C3      21.433865   18.616151   23.836667 C.3        1 MOL1        -0.1684
       8    H5      22.156056   18.107641   24.489771 H          1 MOL1         0.0833
       9    H6      20.975684   19.383931   24.470875 H          1 MOL1         0.0833
      10    C4      22.220537   19.291230   22.684724 C.3        1 MOL1        -0.1760
      11    H7      22.796895   20.127540   23.102045 H          1 MOL1         0.0833
      12    H8      22.960747   18.575644   22.303686 H          1 MOL1         0.0833
      13    C5      21.394153   19.800046   21.477093 C.3        1 MOL1         0.1219
      14    H9      21.024858   18.939494   20.903457 H          1 MOL1         0.0790
      15    C6      20.192004   20.706531   21.838229 C.3        1 MOL1        -0.1760
      16    H10     20.408397   21.283071   22.746704 H          1 MOL1         0.0833
      17    H11     20.076286   21.453415   21.041505 H          1 MOL1         0.0833
      18    C7      18.828570   19.969185   21.961188 C.3        1 MOL1        -0.1684
      19    H12     18.740784   19.168122   21.214855 H          1 MOL1         0.0833
      20    H13     18.047836   20.696987   21.700431 H          1 MOL1         0.0833
      21    C8      18.493864   19.439689   23.377665 C.3        1 MOL1        -0.1684
      22    H14     17.404259   19.491977   23.508402 H          1 MOL1         0.0833
      23    H15     18.898604   20.120266   24.137488 H          1 MOL1         0.0833
      24    O1      22.279551   20.538861   20.643762 O.3        1 MOL1        -0.5508
      25    H16     21.771485   20.789358   19.844028 H          1 MOL1         0.3780
@<TRIPOS>BOND
    1     1     2    1
    2     1     3    1
    3     1     4    1
    4     4     5    1
    5     4     6    1
    6     4     7    1
    7     7     8    1
    8     7     9    1
    9     7    10    1
   10    10    11    1
   11    10    12    1
   12    10    13    1
   13    13    14    1
   14    13    15    1
   15    15    16    1
   16    15    17    1
   17    15    18    1
   18    18    19    1
   19    18    20    1
   20     1    21    1
   21    18    21    1
   22    21    22    1
   23    21    23    1
   24    13    24    1
   25    24    25    1
@<TRIPOS>SUBSTRUCTURE
       1 MOL1            1 RESIDUE      1      MOL     
@<SCITEGIC>MOL_PROPERTY
VConf Rank
SciTegic.value.IntegerValue
420

@<SCITEGIC>MOL_PROPERTY
Conf_Id
SciTegic.value.IntegerValue
162

@<SCITEGIC>MOL_PROPERTY
Delta U+W
SciTegic.value.DoubleValue
0.219

@<SCITEGIC>MOL_PROPERTY
U+W
SciTegic.value.DoubleValue
11.132

@<SCITEGIC>MOL_PROPERTY
Grad RMS
SciTegic.value.DoubleValue
0.000000

@<SCITEGIC>MOL_PROPERTY
U
SciTegic.value.DoubleValue
13.296

@<SCITEGIC>MOL_PROPERTY
W
SciTegic.value.DoubleValue
-2.164

@<SCITEGIC>MOL_PROPERTY
W(PB)
SciTegic.value.DoubleValue
-4.311

@<SCITEGIC>MOL_PROPERTY
W(SA)
SciTegic.value.DoubleValue
2.148

@<SCITEGIC>MOL_PROPERTY
Valence
SciTegic.value.DoubleValue
18.607

@<SCITEGIC>MOL_PROPERTY
Coulomb
SciTegic.value.DoubleValue
-8.339

@<SCITEGIC>MOL_PROPERTY
VdW
SciTegic.value.DoubleValue
3.028

@<SCITEGIC>MOL_PROPERTY
VdW6
SciTegic.value.DoubleValue
-12.271

@<SCITEGIC>MOL_PROPERTY
VdW12
SciTegic.value.DoubleValue
15.299

@<SCITEGIC>MOL_PROPERTY
Bond
SciTegic.value.DoubleValue
0.423

@<SCITEGIC>MOL_PROPERTY
Angle
SciTegic.value.DoubleValue
4.488

@<SCITEGIC>MOL_PROPERTY
Pdih
SciTegic.value.DoubleValue
13.696

@<SCITEGIC>MOL_PROPERTY
Idih
SciTegic.value.DoubleValue
0.000

@<SCITEGIC>MOL_PROPERTY
Tether
SciTegic.value.DoubleValue
0.000

@<TRIPOS>MOLECULE
guest-s17_confgen4.mol2 : confsearch ligand conformer 421
          25          25           1
SMALL
USER_CHARGES
 
@<TRIPOS>ATOM
       1    C1      19.723604   17.501238   21.886833 C.3        1 MOL1        -0.1684
       2    H1      20.550162   17.579998   21.169343 H          1 MOL1         0.0833
       3    H2      19.240462   16.542724   21.652760 H          1 MOL1         0.0833
       4    C2      20.282054   17.415459   23.329220 C.3        1 MOL1        -0.1684
       5    H3      19.511927   17.690378   24.062402 H          1 MOL1         0.0833
       6    H4      20.502694   16.356692   23.522788 H          1 MOL1         0.0833
       7    C3      21.599388   18.202166   23.576776 C.3        1 MOL1        -0.1684
       8    H5      22.261981   18.151874   22.702358 H          1 MOL1         0.0833
       9    H6      22.136532   17.677005   24.378533 H          1 MOL1         0.0833
      10    C4      21.415738   19.668835   24.046185 C.3        1 MOL1        -0.1760
      11    H7      20.518770   19.751936   24.672154 H          1 MOL1         0.0833
      12    H8      22.250896   19.913779   24.715311 H          1 MOL1         0.0833
      13    C5      21.407723   20.750539   22.936601 C.3        1 MOL1         0.1219
      14    H9      22.429780   20.832846   22.539466 H          1 MOL1         0.0790
      15    C6      20.467078   20.492872   21.735415 C.3        1 MOL1        -0.1760
      16    H10     20.397549   21.413821   21.142104 H          1 MOL1         0.0833
      17    H11     20.940085   19.770088   21.062048 H          1 MOL1         0.0833
      18    C7      19.034145   20.037179   22.118197 C.3        1 MOL1        -0.1684
      19    H12     18.311860   20.742533   21.685599 H          1 MOL1         0.0833
      20    H13     18.877438   20.106622   23.201124 H          1 MOL1         0.0833
      21    C8      18.671160   18.612959   21.632790 C.3        1 MOL1        -0.1684
      22    H14     18.467148   18.649887   20.554016 H          1 MOL1         0.0833
      23    H15     17.724040   18.319921   22.105871 H          1 MOL1         0.0833
      24    O1      21.045581   21.987764   23.538455 O.3        1 MOL1        -0.5508
      25    H16     21.042913   22.658203   22.824577 H          1 MOL1         0.3780
@<TRIPOS>BOND
    1     1     2    1
    2     1     3    1
    3     1     4    1
    4     4     5    1
    5     4     6    1
    6     4     7    1
    7     7     8    1
    8     7     9    1
    9     7    10    1
   10    10    11    1
   11    10    12    1
   12    10    13    1
   13    13    14    1
   14    13    15    1
   15    15    16    1
   16    15    17    1
   17    15    18    1
   18    18    19    1
   19    18    20    1
   20     1    21    1
   21    18    21    1
   22    21    22    1
   23    21    23    1
   24    13    24    1
   25    24    25    1
@<TRIPOS>SUBSTRUCTURE
       1 MOL1            1 RESIDUE      1      MOL     
@<SCITEGIC>MOL_PROPERTY
VConf Rank
SciTegic.value.IntegerValue
421

@<SCITEGIC>MOL_PROPERTY
Conf_Id
SciTegic.value.IntegerValue
155

@<SCITEGIC>MOL_PROPERTY
Delta U+W
SciTegic.value.DoubleValue
0.339

@<SCITEGIC>MOL_PROPERTY
U+W
SciTegic.value.DoubleValue
11.252

@<SCITEGIC>MOL_PROPERTY
Grad RMS
SciTegic.value.DoubleValue
0.000000

@<SCITEGIC>MOL_PROPERTY
U
SciTegic.value.DoubleValue
13.420

@<SCITEGIC>MOL_PROPERTY
W
SciTegic.value.DoubleValue
-2.167

@<SCITEGIC>MOL_PROPERTY
W(PB)
SciTegic.value.DoubleValue
-4.325

@<SCITEGIC>MOL_PROPERTY
W(SA)
SciTegic.value.DoubleValue
2.157

@<SCITEGIC>MOL_PROPERTY
Valence
SciTegic.value.DoubleValue
18.609

@<SCITEGIC>MOL_PROPERTY
Coulomb
SciTegic.value.DoubleValue
-8.052

@<SCITEGIC>MOL_PROPERTY
VdW
SciTegic.value.DoubleValue
2.863

@<SCITEGIC>MOL_PROPERTY
VdW6
SciTegic.value.DoubleValue
-12.524

@<SCITEGIC>MOL_PROPERTY
VdW12
SciTegic.value.DoubleValue
15.387

@<SCITEGIC>MOL_PROPERTY
Bond
SciTegic.value.DoubleValue
0.430

@<SCITEGIC>MOL_PROPERTY
Angle
SciTegic.value.DoubleValue
4.724

@<SCITEGIC>MOL_PROPERTY
Pdih
SciTegic.value.DoubleValue
13.455

@<SCITEGIC>MOL_PROPERTY
Idih
SciTegic.value.DoubleValue
0.000

@<SCITEGIC>MOL_PROPERTY
Tether
SciTegic.value.DoubleValue
0.000

@<TRIPOS>MOLECULE
guest-s17_confgen4.mol2 : confsearch ligand conformer 422
          25          25           1
SMALL
USER_CHARGES
 
@<TRIPOS>ATOM
       1    C1      19.691396   17.326457   22.618303 C.3        1 MOL1        -0.1684
       2    H1      19.674814   16.820948   23.593252 H          1 MOL1         0.0833
       3    H2      19.305140   16.589926   21.900590 H          1 MOL1         0.0833
       4    C2      18.685461   18.507361   22.637763 C.3        1 MOL1        -0.1684
       5    H3      18.614482   18.938377   21.634106 H          1 MOL1         0.0833
       6    H4      17.684640   18.087916   22.808465 H          1 MOL1         0.0833
       7    C3      18.902470   19.620469   23.704119 C.3        1 MOL1        -0.1684
       8    H5      18.400381   19.295690   24.625519 H          1 MOL1         0.0833
       9    H6      18.371928   20.527781   23.384701 H          1 MOL1         0.0833
      10    C4      20.360316   19.992780   24.088791 C.3        1 MOL1        -0.1760
      11    H7      20.308606   20.681054   24.942549 H          1 MOL1         0.0833
      12    H8      20.856862   19.113570   24.508535 H          1 MOL1         0.0833
      13    C5      21.257344   20.651348   22.999784 C.3        1 MOL1         0.1219
      14    H9      22.306082   20.464510   23.271827 H          1 MOL1         0.0790
      15    C6      21.058285   20.197310   21.531872 C.3        1 MOL1        -0.1760
      16    H10     20.036427   20.432736   21.220583 H          1 MOL1         0.0833
      17    H11     21.677708   20.846441   20.898968 H          1 MOL1         0.0833
      18    C7      21.423793   18.726813   21.168075 C.3        1 MOL1        -0.1684
      19    H12     22.496563   18.703324   20.932597 H          1 MOL1         0.0833
      20    H13     20.913358   18.454738   20.234397 H          1 MOL1         0.0833
      21    C8      21.169184   17.623862   22.228905 C.3        1 MOL1        -0.1684
      22    H14     21.772599   17.829233   23.118675 H          1 MOL1         0.0833
      23    H15     21.594534   16.687828   21.841870 H          1 MOL1         0.0833
      24    O1      21.024864   22.055262   23.033906 O.3        1 MOL1        -0.5508
      25    H16     21.201487   22.349138   23.951339 H          1 MOL1         0.3780
@<TRIPOS>BOND
    1     1     2    1
    2     1     3    1
    3     1     4    1
    4     4     5    1
    5     4     6    1
    6     4     7    1
    7     7     8    1
    8     7     9    1
    9     7    10    1
   10    10    11    1
   11    10    12    1
   12    10    13    1
   13    13    14    1
   14    13    15    1
   15    15    16    1
   16    15    17    1
   17    15    18    1
   18    18    19    1
   19    18    20    1
   20     1    21    1
   21    18    21    1
   22    21    22    1
   23    21    23    1
   24    13    24    1
   25    24    25    1
@<TRIPOS>SUBSTRUCTURE
       1 MOL1            1 RESIDUE      1      MOL     
@<SCITEGIC>MOL_PROPERTY
VConf Rank
SciTegic.value.IntegerValue
422

@<SCITEGIC>MOL_PROPERTY
Conf_Id
SciTegic.value.IntegerValue
146

@<SCITEGIC>MOL_PROPERTY
Delta U+W
SciTegic.value.DoubleValue
2.553

@<SCITEGIC>MOL_PROPERTY
U+W
SciTegic.value.DoubleValue
13.466

@<SCITEGIC>MOL_PROPERTY
Grad RMS
SciTegic.value.DoubleValue
0.000000

@<SCITEGIC>MOL_PROPERTY
U
SciTegic.value.DoubleValue
15.643

@<SCITEGIC>MOL_PROPERTY
W
SciTegic.value.DoubleValue
-2.176

@<SCITEGIC>MOL_PROPERTY
W(PB)
SciTegic.value.DoubleValue
-4.307

@<SCITEGIC>MOL_PROPERTY
W(SA)
SciTegic.value.DoubleValue
2.131

@<SCITEGIC>MOL_PROPERTY
Valence
SciTegic.value.DoubleValue
18.916

@<SCITEGIC>MOL_PROPERTY
Coulomb
SciTegic.value.DoubleValue
-7.506

@<SCITEGIC>MOL_PROPERTY
VdW
SciTegic.value.DoubleValue
4.232

@<SCITEGIC>MOL_PROPERTY
VdW6
SciTegic.value.DoubleValue
-13.632

@<SCITEGIC>MOL_PROPERTY
VdW12
SciTegic.value.DoubleValue
17.864

@<SCITEGIC>MOL_PROPERTY
Bond
SciTegic.value.DoubleValue
0.735

@<SCITEGIC>MOL_PROPERTY
Angle
SciTegic.value.DoubleValue
9.140

@<SCITEGIC>MOL_PROPERTY
Pdih
SciTegic.value.DoubleValue
9.042

@<SCITEGIC>MOL_PROPERTY
Idih
SciTegic.value.DoubleValue
0.000

@<SCITEGIC>MOL_PROPERTY
Tether
SciTegic.value.DoubleValue
0.000

@<TRIPOS>MOLECULE
guest-s17_confgen4.mol2 : confsearch ligand conformer 423
          25          25           1
SMALL
USER_CHARGES
 
@<TRIPOS>ATOM
       1    C1      20.110256   20.014334   24.578061 C.3        1 MOL1        -0.1684
       2    H1      19.130879   20.195693   25.041132 H          1 MOL1         0.0833
       3    H2      20.853270   20.317920   25.328180 H          1 MOL1         0.0833
       4    C2      20.278837   20.950391   23.355147 C.3        1 MOL1        -0.1684
       5    H3      20.222253   21.983188   23.725187 H          1 MOL1         0.0833
       6    H4      21.290322   20.860520   22.942875 H          1 MOL1         0.0833
       7    C3      19.219620   20.805449   22.233794 C.3        1 MOL1        -0.1684
       8    H5      19.401187   21.604652   21.502159 H          1 MOL1         0.0833
       9    H6      18.221975   21.002703   22.648810 H          1 MOL1         0.0833
      10    C4      19.188256   19.458057   21.466164 C.3        1 MOL1        -0.1760
      11    H7      18.626362   18.709810   22.034029 H          1 MOL1         0.0833
      12    H8      18.591462   19.617927   20.557972 H          1 MOL1         0.0833
      13    C5      20.576830   18.895398   21.066973 C.3        1 MOL1         0.1219
      14    H9      21.319331   19.704594   21.078777 H          1 MOL1         0.0790
      15    C6      21.071119   17.732243   21.963918 C.3        1 MOL1        -0.1760
      16    H10     20.311956   16.939000   21.976480 H          1 MOL1         0.0833
      17    H11     21.955296   17.288950   21.487406 H          1 MOL1         0.0833
      18    C7      21.464016   18.089321   23.423278 C.3        1 MOL1        -0.1684
      19    H12     22.251432   18.853866   23.439000 H          1 MOL1         0.0833
      20    H13     21.926416   17.193061   23.859036 H          1 MOL1         0.0833
      21    C8      20.277528   18.491739   24.336948 C.3        1 MOL1        -0.1684
      22    H14     20.429581   18.024671   25.319682 H          1 MOL1         0.0833
      23    H15     19.342745   18.053831   23.969198 H          1 MOL1         0.0833
      24    O1      20.485567   18.395277   19.737725 O.3        1 MOL1        -0.5508
      25    H16     21.384603   18.099302   19.484044 H          1 MOL1         0.3780
@<TRIPOS>BOND
    1     1     2    1
    2     1     3    1
    3     1     4    1
    4     4     5    1
    5     4     6    1
    6     4     7    1
    7     7     8    1
    8     7     9    1
    9     7    10    1
   10    10    11    1
   11    10    12    1
   12    10    13    1
   13    13    14    1
   14    13    15    1
   15    15    16    1
   16    15    17    1
   17    15    18    1
   18    18    19    1
   19    18    20    1
   20     1    21    1
   21    18    21    1
   22    21    22    1
   23    21    23    1
   24    13    24    1
   25    24    25    1
@<TRIPOS>SUBSTRUCTURE
       1 MOL1            1 RESIDUE      1      MOL     
@<SCITEGIC>MOL_PROPERTY
VConf Rank
SciTegic.value.IntegerValue
423

@<SCITEGIC>MOL_PROPERTY
Conf_Id
SciTegic.value.IntegerValue
62

@<SCITEGIC>MOL_PROPERTY
Delta U+W
SciTegic.value.DoubleValue
-1.779

@<SCITEGIC>MOL_PROPERTY
U+W
SciTegic.value.DoubleValue
9.134

@<SCITEGIC>MOL_PROPERTY
Grad RMS
SciTegic.value.DoubleValue
0.000000

@<SCITEGIC>MOL_PROPERTY
U
SciTegic.value.DoubleValue
11.364

@<SCITEGIC>MOL_PROPERTY
W
SciTegic.value.DoubleValue
-2.230

@<SCITEGIC>MOL_PROPERTY
W(PB)
SciTegic.value.DoubleValue
-4.359

@<SCITEGIC>MOL_PROPERTY
W(SA)
SciTegic.value.DoubleValue
2.129

@<SCITEGIC>MOL_PROPERTY
Valence
SciTegic.value.DoubleValue
16.582

@<SCITEGIC>MOL_PROPERTY
Coulomb
SciTegic.value.DoubleValue
-8.150

@<SCITEGIC>MOL_PROPERTY
VdW
SciTegic.value.DoubleValue
2.933

@<SCITEGIC>MOL_PROPERTY
VdW6
SciTegic.value.DoubleValue
-12.531

@<SCITEGIC>MOL_PROPERTY
VdW12
SciTegic.value.DoubleValue
15.464

@<SCITEGIC>MOL_PROPERTY
Bond
SciTegic.value.DoubleValue
0.439

@<SCITEGIC>MOL_PROPERTY
Angle
SciTegic.value.DoubleValue
5.099

@<SCITEGIC>MOL_PROPERTY
Pdih
SciTegic.value.DoubleValue
11.044

@<SCITEGIC>MOL_PROPERTY
Idih
SciTegic.value.DoubleValue
0.000

@<SCITEGIC>MOL_PROPERTY
Tether
SciTegic.value.DoubleValue
0.000

@<TRIPOS>MOLECULE
guest-s17_confgen4.mol2 : confsearch ligand conformer 424
          25          25           1
SMALL
USER_CHARGES
 
@<TRIPOS>ATOM
       1    C1      18.508206   19.075032   22.542137 C.3        1 MOL1        -0.1684
       2    H1      18.811594   19.545656   21.600015 H          1 MOL1         0.0833
       3    H2      17.412930   19.016801   22.481978 H          1 MOL1         0.0833
       4    C2      18.854998   19.993011   23.740763 C.3        1 MOL1        -0.1684
       5    H3      18.313944   20.938438   23.598232 H          1 MOL1         0.0833
       6    H4      18.449281   19.554823   24.662653 H          1 MOL1         0.0833
       7    C3      20.351369   20.332131   23.961201 C.3        1 MOL1        -0.1684
       8    H5      20.850219   19.529158   24.515616 H          1 MOL1         0.0833
       9    H6      20.390861   21.197650   24.636733 H          1 MOL1         0.0833
      10    C4      21.148016   20.683265   22.676145 C.3        1 MOL1        -0.1760
      11    H7      20.480612   21.046698   21.885107 H          1 MOL1         0.0833
      12    H8      21.797728   21.534033   22.919891 H          1 MOL1         0.0833
      13    C5      22.056340   19.547607   22.140776 C.3        1 MOL1         0.1219
      14    H9      22.702273   19.206543   22.962620 H          1 MOL1         0.0790
      15    C6      21.335717   18.310121   21.549809 C.3        1 MOL1        -0.1760
      16    H10     20.675889   18.606641   20.725496 H          1 MOL1         0.0833
      17    H11     22.108073   17.680473   21.088486 H          1 MOL1         0.0833
      18    C7      20.580964   17.433722   22.585107 C.3        1 MOL1        -0.1684
      19    H12     21.006455   17.569049   23.585902 H          1 MOL1         0.0833
      20    H13     20.772561   16.378780   22.345656 H          1 MOL1         0.0833
      21    C8      19.042762   17.623016   22.617095 C.3        1 MOL1        -0.1684
      22    H14     18.641997   17.134537   23.515572 H          1 MOL1         0.0833
      23    H15     18.619243   17.072566   21.765909 H          1 MOL1         0.0833
      24    O1      22.874156   20.096554   21.114978 O.3        1 MOL1        -0.5508
      25    H16     23.376003   20.835427   21.517923 H          1 MOL1         0.3780
@<TRIPOS>BOND
    1     1     2    1
    2     1     3    1
    3     1     4    1
    4     4     5    1
    5     4     6    1
    6     4     7    1
    7     7     8    1
    8     7     9    1
    9     7    10    1
   10    10    11    1
   11    10    12    1
   12    10    13    1
   13    13    14    1
   14    13    15    1
   15    15    16    1
   16    15    17    1
   17    15    18    1
   18    18    19    1
   19    18    20    1
   20     1    21    1
   21    18    21    1
   22    21    22    1
   23    21    23    1
   24    13    24    1
   25    24    25    1
@<TRIPOS>SUBSTRUCTURE
       1 MOL1            1 RESIDUE      1      MOL     
@<SCITEGIC>MOL_PROPERTY
VConf Rank
SciTegic.value.IntegerValue
424

@<SCITEGIC>MOL_PROPERTY
Conf_Id
SciTegic.value.IntegerValue
121

@<SCITEGIC>MOL_PROPERTY
Delta U+W
SciTegic.value.DoubleValue
-1.283

@<SCITEGIC>MOL_PROPERTY
U+W
SciTegic.value.DoubleValue
9.630

@<SCITEGIC>MOL_PROPERTY
Grad RMS
SciTegic.value.DoubleValue
0.000000

@<SCITEGIC>MOL_PROPERTY
U
SciTegic.value.DoubleValue
11.876

@<SCITEGIC>MOL_PROPERTY
W
SciTegic.value.DoubleValue
-2.246

@<SCITEGIC>MOL_PROPERTY
W(PB)
SciTegic.value.DoubleValue
-4.376

@<SCITEGIC>MOL_PROPERTY
W(SA)
SciTegic.value.DoubleValue
2.130

@<SCITEGIC>MOL_PROPERTY
Valence
SciTegic.value.DoubleValue
17.153

@<SCITEGIC>MOL_PROPERTY
Coulomb
SciTegic.value.DoubleValue
-7.966

@<SCITEGIC>MOL_PROPERTY
VdW
SciTegic.value.DoubleValue
2.689

@<SCITEGIC>MOL_PROPERTY
VdW6
SciTegic.value.DoubleValue
-12.458

@<SCITEGIC>MOL_PROPERTY
VdW12
SciTegic.value.DoubleValue
15.147

@<SCITEGIC>MOL_PROPERTY
Bond
SciTegic.value.DoubleValue
0.421

@<SCITEGIC>MOL_PROPERTY
Angle
SciTegic.value.DoubleValue
5.258

@<SCITEGIC>MOL_PROPERTY
Pdih
SciTegic.value.DoubleValue
11.475

@<SCITEGIC>MOL_PROPERTY
Idih
SciTegic.value.DoubleValue
0.000

@<SCITEGIC>MOL_PROPERTY
Tether
SciTegic.value.DoubleValue
0.000

@<TRIPOS>MOLECULE
guest-s17_confgen4.mol2 : confsearch ligand conformer 425
          25          25           1
SMALL
USER_CHARGES
 
@<TRIPOS>ATOM
       1    C1      21.194855   20.256038   21.341587 C.3        1 MOL1        -0.1684
       2    H1      20.877522   21.003380   22.077728 H          1 MOL1         0.0833
       3    H2      21.713382   20.835212   20.565490 H          1 MOL1         0.0833
       4    C2      19.961494   19.595905   20.676180 C.3        1 MOL1        -0.1684
       5    H3      19.388305   20.392823   20.182966 H          1 MOL1         0.0833
       6    H4      20.297093   18.929259   19.870303 H          1 MOL1         0.0833
       7    C3      18.991076   18.818011   21.601435 C.3        1 MOL1        -0.1684
       8    H5      19.357063   17.799595   21.774143 H          1 MOL1         0.0833
       9    H6      18.053016   18.682141   21.045981 H          1 MOL1         0.0833
      10    C4      18.659500   19.513020   22.949246 C.3        1 MOL1        -0.1760
      11    H7      18.800644   20.598457   22.880748 H          1 MOL1         0.0833
      12    H8      17.586280   19.373112   23.134809 H          1 MOL1         0.0833
      13    C5      19.407969   18.944609   24.180756 C.3        1 MOL1         0.1219
      14    H9      19.242854   17.857912   24.209174 H          1 MOL1         0.0790
      15    C6      20.934301   19.205696   24.240177 C.3        1 MOL1        -0.1760
      16    H10     21.141585   20.282324   24.206183 H          1 MOL1         0.0833
      17    H11     21.284359   18.874793   25.226740 H          1 MOL1         0.0833
      18    C7      21.769778   18.442429   23.177770 C.3        1 MOL1        -0.1684
      19    H12     21.236268   17.546843   22.839708 H          1 MOL1         0.0833
      20    H13     22.674451   18.054992   23.666118 H          1 MOL1         0.0833
      21    C8      22.232848   19.290105   21.965447 C.3        1 MOL1        -0.1684
      22    H14     22.616959   18.617810   21.186363 H          1 MOL1         0.0833
      23    H15     23.092463   19.894008   22.286776 H          1 MOL1         0.0833
      24    O1      18.825413   19.525423   25.340803 O.3        1 MOL1        -0.5508
      25    H16     19.259087   19.108676   26.114365 H          1 MOL1         0.3780
@<TRIPOS>BOND
    1     1     2    1
    2     1     3    1
    3     1     4    1
    4     4     5    1
    5     4     6    1
    6     4     7    1
    7     7     8    1
    8     7     9    1
    9     7    10    1
   10    10    11    1
   11    10    12    1
   12    10    13    1
   13    13    14    1
   14    13    15    1
   15    15    16    1
   16    15    17    1
   17    15    18    1
   18    18    19    1
   19    18    20    1
   20     1    21    1
   21    18    21    1
   22    21    22    1
   23    21    23    1
   24    13    24    1
   25    24    25    1
@<TRIPOS>SUBSTRUCTURE
       1 MOL1            1 RESIDUE      1      MOL     
@<SCITEGIC>MOL_PROPERTY
VConf Rank
SciTegic.value.IntegerValue
425

@<SCITEGIC>MOL_PROPERTY
Conf_Id
SciTegic.value.IntegerValue
24

@<SCITEGIC>MOL_PROPERTY
Delta U+W
SciTegic.value.DoubleValue
-1.236

@<SCITEGIC>MOL_PROPERTY
U+W
SciTegic.value.DoubleValue
9.678

@<SCITEGIC>MOL_PROPERTY
Grad RMS
SciTegic.value.DoubleValue
0.000000

@<SCITEGIC>MOL_PROPERTY
U
SciTegic.value.DoubleValue
11.876

@<SCITEGIC>MOL_PROPERTY
W
SciTegic.value.DoubleValue
-2.199

@<SCITEGIC>MOL_PROPERTY
W(PB)
SciTegic.value.DoubleValue
-4.335

@<SCITEGIC>MOL_PROPERTY
W(SA)
SciTegic.value.DoubleValue
2.137

@<SCITEGIC>MOL_PROPERTY
Valence
SciTegic.value.DoubleValue
17.153

@<SCITEGIC>MOL_PROPERTY
Coulomb
SciTegic.value.DoubleValue
-7.966

@<SCITEGIC>MOL_PROPERTY
VdW
SciTegic.value.DoubleValue
2.689

@<SCITEGIC>MOL_PROPERTY
VdW6
SciTegic.value.DoubleValue
-12.458

@<SCITEGIC>MOL_PROPERTY
VdW12
SciTegic.value.DoubleValue
15.147

@<SCITEGIC>MOL_PROPERTY
Bond
SciTegic.value.DoubleValue
0.421

@<SCITEGIC>MOL_PROPERTY
Angle
SciTegic.value.DoubleValue
5.258

@<SCITEGIC>MOL_PROPERTY
Pdih
SciTegic.value.DoubleValue
11.475

@<SCITEGIC>MOL_PROPERTY
Idih
SciTegic.value.DoubleValue
0.000

@<SCITEGIC>MOL_PROPERTY
Tether
SciTegic.value.DoubleValue
0.000

@<TRIPOS>MOLECULE
guest-s17_confgen4.mol2 : confsearch ligand conformer 426
          25          25           1
SMALL
USER_CHARGES
 
@<TRIPOS>ATOM
       1    C1      21.137592   18.050487   24.244241 C.3        1 MOL1        -0.1684
       2    H1      21.520709   18.509956   25.165591 H          1 MOL1         0.0833
       3    H2      21.366878   16.979451   24.328879 H          1 MOL1         0.0833
       4    C2      19.594048   18.206951   24.209756 C.3        1 MOL1        -0.1684
       5    H3      19.149422   17.497673   23.500159 H          1 MOL1         0.0833
       6    H4      19.218753   17.890598   25.192681 H          1 MOL1         0.0833
       7    C3      19.061600   19.634992   23.934333 C.3        1 MOL1        -0.1684
       8    H5      19.722226   20.390474   24.380738 H          1 MOL1         0.0833
       9    H6      18.107767   19.728645   24.471580 H          1 MOL1         0.0833
      10    C4      18.771036   19.954937   22.440634 C.3        1 MOL1        -0.1760
      11    H7      18.371299   19.073544   21.923108 H          1 MOL1         0.0833
      12    H8      17.959403   20.695282   22.431091 H          1 MOL1         0.0833
      13    C5      19.964469   20.551532   21.655223 C.3        1 MOL1         0.1219
      14    H9      20.605583   21.099688   22.358196 H          1 MOL1         0.0790
      15    C6      20.822987   19.526276   20.871894 C.3        1 MOL1        -0.1760
      16    H10     20.258609   19.168537   20.000761 H          1 MOL1         0.0833
      17    H11     21.693409   20.060684   20.468910 H          1 MOL1         0.0833
      18    C7      21.330241   18.292053   21.659311 C.3        1 MOL1        -0.1684
      19    H12     22.100336   17.794785   21.053970 H          1 MOL1         0.0833
      20    H13     20.524898   17.553670   21.748219 H          1 MOL1         0.0833
      21    C8      21.930561   18.630234   23.047332 C.3        1 MOL1        -0.1684
      22    H14     22.048551   19.712729   23.173581 H          1 MOL1         0.0833
      23    H15     22.953387   18.232075   23.093900 H          1 MOL1         0.0833
      24    O1      19.456245   21.484652   20.710393 O.3        1 MOL1        -0.5508
      25    H16     18.872856   20.979016   20.107930 H          1 MOL1         0.3780
@<TRIPOS>BOND
    1     1     2    1
    2     1     3    1
    3     1     4    1
    4     4     5    1
    5     4     6    1
    6     4     7    1
    7     7     8    1
    8     7     9    1
    9     7    10    1
   10    10    11    1
   11    10    12    1
   12    10    13    1
   13    13    14    1
   14    13    15    1
   15    15    16    1
   16    15    17    1
   17    15    18    1
   18    18    19    1
   19    18    20    1
   20     1    21    1
   21    18    21    1
   22    21    22    1
   23    21    23    1
   24    13    24    1
   25    24    25    1
@<TRIPOS>SUBSTRUCTURE
       1 MOL1            1 RESIDUE      1      MOL     
@<SCITEGIC>MOL_PROPERTY
VConf Rank
SciTegic.value.IntegerValue
426

@<SCITEGIC>MOL_PROPERTY
Conf_Id
SciTegic.value.IntegerValue
167

@<SCITEGIC>MOL_PROPERTY
Delta U+W
SciTegic.value.DoubleValue
0.388

@<SCITEGIC>MOL_PROPERTY
U+W
SciTegic.value.DoubleValue
11.301

@<SCITEGIC>MOL_PROPERTY
Grad RMS
SciTegic.value.DoubleValue
0.000000

@<SCITEGIC>MOL_PROPERTY
U
SciTegic.value.DoubleValue
13.202

@<SCITEGIC>MOL_PROPERTY
W
SciTegic.value.DoubleValue
-1.901

@<SCITEGIC>MOL_PROPERTY
W(PB)
SciTegic.value.DoubleValue
-4.065

@<SCITEGIC>MOL_PROPERTY
W(SA)
SciTegic.value.DoubleValue
2.163

@<SCITEGIC>MOL_PROPERTY
Valence
SciTegic.value.DoubleValue
18.957

@<SCITEGIC>MOL_PROPERTY
Coulomb
SciTegic.value.DoubleValue
-8.753

@<SCITEGIC>MOL_PROPERTY
VdW
SciTegic.value.DoubleValue
2.998

@<SCITEGIC>MOL_PROPERTY
VdW6
SciTegic.value.DoubleValue
-12.294

@<SCITEGIC>MOL_PROPERTY
VdW12
SciTegic.value.DoubleValue
15.292

@<SCITEGIC>MOL_PROPERTY
Bond
SciTegic.value.DoubleValue
0.419

@<SCITEGIC>MOL_PROPERTY
Angle
SciTegic.value.DoubleValue
4.543

@<SCITEGIC>MOL_PROPERTY
Pdih
SciTegic.value.DoubleValue
13.996

@<SCITEGIC>MOL_PROPERTY
Idih
SciTegic.value.DoubleValue
0.000

@<SCITEGIC>MOL_PROPERTY
Tether
SciTegic.value.DoubleValue
0.000

@<TRIPOS>MOLECULE
guest-s17_confgen4.mol2 : confsearch ligand conformer 427
          25          25           1
SMALL
USER_CHARGES
 
@<TRIPOS>ATOM
       1    C1      20.856493   18.205258   20.954590 C.3        1 MOL1        -0.1684
       2    H1      21.912579   18.033013   20.706566 H          1 MOL1         0.0833
       3    H2      20.281455   17.708665   20.161089 H          1 MOL1         0.0833
       4    C2      20.562190   19.725591   20.869291 C.3        1 MOL1        -0.1684
       5    H3      21.389546   20.303977   21.295622 H          1 MOL1         0.0833
       6    H4      20.562561   19.994192   19.803980 H          1 MOL1         0.0833
       7    C3      19.210346   20.178430   21.479454 C.3        1 MOL1        -0.1684
       8    H5      18.481475   19.357754   21.476688 H          1 MOL1         0.0833
       9    H6      18.785929   20.941019   20.812195 H          1 MOL1         0.0833
      10    C4      19.313740   20.818643   22.890724 C.3        1 MOL1        -0.1760
      11    H7      20.016593   21.661383   22.858620 H          1 MOL1         0.0833
      12    H8      18.335394   21.258032   23.126441 H          1 MOL1         0.0833
      13    C5      19.699282   19.877747   24.059262 C.3        1 MOL1         0.1219
      14    H9      19.015174   19.018649   24.069362 H          1 MOL1         0.0790
      15    C6      21.167082   19.379589   24.013129 C.3        1 MOL1        -0.1760
      16    H10     21.776660   20.059602   23.409581 H          1 MOL1         0.0833
      17    H11     21.606202   19.440182   25.017841 H          1 MOL1         0.0833
      18    C7      21.348417   17.919697   23.522622 C.3        1 MOL1        -0.1684
      19    H12     21.080702   17.249465   24.350910 H          1 MOL1         0.0833
      20    H13     22.414039   17.739450   23.326376 H          1 MOL1         0.0833
      21    C8      20.520476   17.487823   22.286148 C.3        1 MOL1        -0.1684
      22    H14     19.447316   17.559280   22.496791 H          1 MOL1         0.0833
      23    H15     20.700553   16.415090   22.132399 H          1 MOL1         0.0833
      24    O1      19.514106   20.605699   25.267549 O.3        1 MOL1        -0.5508
      25    H16     19.693699   19.981613   26.001565 H          1 MOL1         0.3780
@<TRIPOS>BOND
    1     1     2    1
    2     1     3    1
    3     1     4    1
    4     4     5    1
    5     4     6    1
    6     4     7    1
    7     7     8    1
    8     7     9    1
    9     7    10    1
   10    10    11    1
   11    10    12    1
   12    10    13    1
   13    13    14    1
   14    13    15    1
   15    15    16    1
   16    15    17    1
   17    15    18    1
   18    18    19    1
   19    18    20    1
   20     1    21    1
   21    18    21    1
   22    21    22    1
   23    21    23    1
   24    13    24    1
   25    24    25    1
@<TRIPOS>SUBSTRUCTURE
       1 MOL1            1 RESIDUE      1      MOL     
@<SCITEGIC>MOL_PROPERTY
VConf Rank
SciTegic.value.IntegerValue
427

@<SCITEGIC>MOL_PROPERTY
Conf_Id
SciTegic.value.IntegerValue
60

@<SCITEGIC>MOL_PROPERTY
Delta U+W
SciTegic.value.DoubleValue
-1.838

@<SCITEGIC>MOL_PROPERTY
U+W
SciTegic.value.DoubleValue
9.075

@<SCITEGIC>MOL_PROPERTY
Grad RMS
SciTegic.value.DoubleValue
0.000000

@<SCITEGIC>MOL_PROPERTY
U
SciTegic.value.DoubleValue
11.150

@<SCITEGIC>MOL_PROPERTY
W
SciTegic.value.DoubleValue
-2.074

@<SCITEGIC>MOL_PROPERTY
W(PB)
SciTegic.value.DoubleValue
-4.196

@<SCITEGIC>MOL_PROPERTY
W(SA)
SciTegic.value.DoubleValue
2.121

@<SCITEGIC>MOL_PROPERTY
Valence
SciTegic.value.DoubleValue
16.582

@<SCITEGIC>MOL_PROPERTY
Coulomb
SciTegic.value.DoubleValue
-8.361

@<SCITEGIC>MOL_PROPERTY
VdW
SciTegic.value.DoubleValue
2.928

@<SCITEGIC>MOL_PROPERTY
VdW6
SciTegic.value.DoubleValue
-12.539

@<SCITEGIC>MOL_PROPERTY
VdW12
SciTegic.value.DoubleValue
15.467

@<SCITEGIC>MOL_PROPERTY
Bond
SciTegic.value.DoubleValue
0.441

@<SCITEGIC>MOL_PROPERTY
Angle
SciTegic.value.DoubleValue
5.093

@<SCITEGIC>MOL_PROPERTY
Pdih
SciTegic.value.DoubleValue
11.049

@<SCITEGIC>MOL_PROPERTY
Idih
SciTegic.value.DoubleValue
0.000

@<SCITEGIC>MOL_PROPERTY
Tether
SciTegic.value.DoubleValue
0.000

@<TRIPOS>MOLECULE
guest-s17_confgen4.mol2 : confsearch ligand conformer 428
          25          25           1
SMALL
USER_CHARGES
 
@<TRIPOS>ATOM
       1    C1      18.482582   20.039266   22.269443 C.3        1 MOL1        -0.1684
       2    H1      18.166680   20.966973   22.765497 H          1 MOL1         0.0833
       3    H2      17.636932   19.740209   21.635126 H          1 MOL1         0.0833
       4    C2      18.675702   18.930381   23.334216 C.3        1 MOL1        -0.1684
       5    H3      17.706000   18.781195   23.828427 H          1 MOL1         0.0833
       6    H4      18.888295   17.970480   22.849921 H          1 MOL1         0.0833
       7    C3      19.716448   19.223004   24.444211 C.3        1 MOL1        -0.1684
       8    H5      19.655593   18.407965   25.178344 H          1 MOL1         0.0833
       9    H6      19.423603   20.133165   24.984951 H          1 MOL1         0.0833
      10    C4      21.196490   19.355507   24.000725 C.3        1 MOL1        -0.1760
      11    H7      21.384586   20.359304   23.606660 H          1 MOL1         0.0833
      12    H8      21.812340   19.299988   24.908242 H          1 MOL1         0.0833
      13    C5      21.674430   18.285600   22.985051 C.3        1 MOL1         0.1219
      14    H9      20.999975   17.419280   23.012517 H          1 MOL1         0.0790
      15    C6      21.779770   18.799605   21.527619 C.3        1 MOL1        -0.1760
      16    H10     22.427595   19.685585   21.503036 H          1 MOL1         0.0833
      17    H11     22.304233   18.033143   20.941735 H          1 MOL1         0.0833
      18    C7      20.446036   19.114688   20.796781 C.3        1 MOL1        -0.1684
      19    H12     19.796893   18.229929   20.772614 H          1 MOL1         0.0833
      20    H13     20.696306   19.315394   19.746073 H          1 MOL1         0.0833
      21    C8      19.683121   20.351348   21.338520 C.3        1 MOL1        -0.1684
      22    H14     19.287563   20.911118   20.479902 H          1 MOL1         0.0833
      23    H15     20.375942   21.049240   21.821997 H          1 MOL1         0.0833
      24    O1      22.971430   17.849770   23.374934 O.3        1 MOL1        -0.5508
      25    H16     22.880168   17.463554   24.271050 H          1 MOL1         0.3780
@<TRIPOS>BOND
    1     1     2    1
    2     1     3    1
    3     1     4    1
    4     4     5    1
    5     4     6    1
    6     4     7    1
    7     7     8    1
    8     7     9    1
    9     7    10    1
   10    10    11    1
   11    10    12    1
   12    10    13    1
   13    13    14    1
   14    13    15    1
   15    15    16    1
   16    15    17    1
   17    15    18    1
   18    18    19    1
   19    18    20    1
   20     1    21    1
   21    18    21    1
   22    21    22    1
   23    21    23    1
   24    13    24    1
   25    24    25    1
@<TRIPOS>SUBSTRUCTURE
       1 MOL1            1 RESIDUE      1      MOL     
@<SCITEGIC>MOL_PROPERTY
VConf Rank
SciTegic.value.IntegerValue
428

@<SCITEGIC>MOL_PROPERTY
Conf_Id
SciTegic.value.IntegerValue
129

@<SCITEGIC>MOL_PROPERTY
Delta U+W
SciTegic.value.DoubleValue
-1.846

@<SCITEGIC>MOL_PROPERTY
U+W
SciTegic.value.DoubleValue
9.067

@<SCITEGIC>MOL_PROPERTY
Grad RMS
SciTegic.value.DoubleValue
0.000000

@<SCITEGIC>MOL_PROPERTY
U
SciTegic.value.DoubleValue
11.150

@<SCITEGIC>MOL_PROPERTY
W
SciTegic.value.DoubleValue
-2.083

@<SCITEGIC>MOL_PROPERTY
W(PB)
SciTegic.value.DoubleValue
-4.217

@<SCITEGIC>MOL_PROPERTY
W(SA)
SciTegic.value.DoubleValue
2.134

@<SCITEGIC>MOL_PROPERTY
Valence
SciTegic.value.DoubleValue
16.583

@<SCITEGIC>MOL_PROPERTY
Coulomb
SciTegic.value.DoubleValue
-8.361

@<SCITEGIC>MOL_PROPERTY
VdW
SciTegic.value.DoubleValue
2.928

@<SCITEGIC>MOL_PROPERTY
VdW6
SciTegic.value.DoubleValue
-12.539

@<SCITEGIC>MOL_PROPERTY
VdW12
SciTegic.value.DoubleValue
15.467

@<SCITEGIC>MOL_PROPERTY
Bond
SciTegic.value.DoubleValue
0.441

@<SCITEGIC>MOL_PROPERTY
Angle
SciTegic.value.DoubleValue
5.093

@<SCITEGIC>MOL_PROPERTY
Pdih
SciTegic.value.DoubleValue
11.049

@<SCITEGIC>MOL_PROPERTY
Idih
SciTegic.value.DoubleValue
0.000

@<SCITEGIC>MOL_PROPERTY
Tether
SciTegic.value.DoubleValue
0.000

@<TRIPOS>MOLECULE
guest-s17_confgen4.mol2 : confsearch ligand conformer 429
          25          25           1
SMALL
USER_CHARGES
 
@<TRIPOS>ATOM
       1    C1      21.327889   19.164458   20.881380 C.3        1 MOL1        -0.1684
       2    H1      22.353825   18.773184   20.851964 H          1 MOL1         0.0833
       3    H2      21.092611   19.456296   19.848716 H          1 MOL1         0.0833
       4    C2      21.295694   20.451057   21.743843 C.3        1 MOL1        -0.1684
       5    H3      21.962564   21.180939   21.264925 H          1 MOL1         0.0833
       6    H4      20.303532   20.914652   21.700322 H          1 MOL1         0.0833
       7    C3      21.760942   20.299367   23.213810 C.3        1 MOL1        -0.1684
       8    H5      21.793098   21.304794   23.655551 H          1 MOL1         0.0833
       9    H6      22.796465   19.933450   23.230907 H          1 MOL1         0.0833
      10    C4      20.894763   19.403248   24.136837 C.3        1 MOL1        -0.1760
      11    H7      21.152000   18.349357   23.989595 H          1 MOL1         0.0833
      12    H8      21.198339   19.620823   25.169851 H          1 MOL1         0.0833
      13    C5      19.363583   19.606893   24.000485 C.3        1 MOL1         0.1219
      14    H9      19.159501   20.583934   23.542652 H          1 MOL1         0.0790
      15    C6      18.644102   18.501527   23.187213 C.3        1 MOL1        -0.1760
      16    H10     18.870621   17.520201   23.624139 H          1 MOL1         0.0833
      17    H11     17.562659   18.642884   23.316575 H          1 MOL1         0.0833
      18    C7      18.926965   18.457470   21.661084 C.3        1 MOL1        -0.1684
      19    H12     18.668247   19.414089   21.189132 H          1 MOL1         0.0833
      20    H13     18.231039   17.726568   21.226995 H          1 MOL1         0.0833
      21    C8      20.363739   18.016895   21.278826 C.3        1 MOL1        -0.1684
      22    H14     20.295202   17.340271   20.415962 H          1 MOL1         0.0833
      23    H15     20.801973   17.401805   22.072813 H          1 MOL1         0.0833
      24    O1      18.797544   19.607178   25.305002 O.3        1 MOL1        -0.5508
      25    H16     18.988474   18.727072   25.689582 H          1 MOL1         0.3780
@<TRIPOS>BOND
    1     1     2    1
    2     1     3    1
    3     1     4    1
    4     4     5    1
    5     4     6    1
    6     4     7    1
    7     7     8    1
    8     7     9    1
    9     7    10    1
   10    10    11    1
   11    10    12    1
   12    10    13    1
   13    13    14    1
   14    13    15    1
   15    15    16    1
   16    15    17    1
   17    15    18    1
   18    18    19    1
   19    18    20    1
   20     1    21    1
   21    18    21    1
   22    21    22    1
   23    21    23    1
   24    13    24    1
   25    24    25    1
@<TRIPOS>SUBSTRUCTURE
       1 MOL1            1 RESIDUE      1      MOL     
@<SCITEGIC>MOL_PROPERTY
VConf Rank
SciTegic.value.IntegerValue
429

@<SCITEGIC>MOL_PROPERTY
Conf_Id
SciTegic.value.IntegerValue
140

@<SCITEGIC>MOL_PROPERTY
Delta U+W
SciTegic.value.DoubleValue
-1.702

@<SCITEGIC>MOL_PROPERTY
U+W
SciTegic.value.DoubleValue
9.211

@<SCITEGIC>MOL_PROPERTY
Grad RMS
SciTegic.value.DoubleValue
0.000000

@<SCITEGIC>MOL_PROPERTY
U
SciTegic.value.DoubleValue
11.181

@<SCITEGIC>MOL_PROPERTY
W
SciTegic.value.DoubleValue
-1.969

@<SCITEGIC>MOL_PROPERTY
W(PB)
SciTegic.value.DoubleValue
-4.093

@<SCITEGIC>MOL_PROPERTY
W(SA)
SciTegic.value.DoubleValue
2.124

@<SCITEGIC>MOL_PROPERTY
Valence
SciTegic.value.DoubleValue
16.954

@<SCITEGIC>MOL_PROPERTY
Coulomb
SciTegic.value.DoubleValue
-8.661

@<SCITEGIC>MOL_PROPERTY
VdW
SciTegic.value.DoubleValue
2.887

@<SCITEGIC>MOL_PROPERTY
VdW6
SciTegic.value.DoubleValue
-12.561

@<SCITEGIC>MOL_PROPERTY
VdW12
SciTegic.value.DoubleValue
15.448

@<SCITEGIC>MOL_PROPERTY
Bond
SciTegic.value.DoubleValue
0.433

@<SCITEGIC>MOL_PROPERTY
Angle
SciTegic.value.DoubleValue
5.120

@<SCITEGIC>MOL_PROPERTY
Pdih
SciTegic.value.DoubleValue
11.401

@<SCITEGIC>MOL_PROPERTY
Idih
SciTegic.value.DoubleValue
0.000

@<SCITEGIC>MOL_PROPERTY
Tether
SciTegic.value.DoubleValue
0.000

@<TRIPOS>MOLECULE
guest-s17_confgen4.mol2 : confsearch ligand conformer 430
          25          25           1
SMALL
USER_CHARGES
 
@<TRIPOS>ATOM
       1    C1      19.482564   20.990512   22.069598 C.3        1 MOL1        -0.1684
       2    H1      18.945142   21.092105   21.117042 H          1 MOL1         0.0833
       3    H2      19.468046   21.989826   22.525759 H          1 MOL1         0.0833
       4    C2      20.961150   20.627181   21.775962 C.3        1 MOL1        -0.1684
       5    H3      21.024954   19.896400   20.961903 H          1 MOL1         0.0833
       6    H4      21.440269   21.529153   21.371063 H          1 MOL1         0.0833
       7    C3      21.785313   20.152111   23.000548 C.3        1 MOL1        -0.1684
       8    H5      21.367483   20.547285   23.935455 H          1 MOL1         0.0833
       9    H6      22.784403   20.602014   22.920732 H          1 MOL1         0.0833
      10    C4      21.986500   18.615236   23.093036 C.3        1 MOL1        -0.1760
      11    H7      22.444584   18.255158   22.162596 H          1 MOL1         0.0833
      12    H8      22.727451   18.428149   23.881849 H          1 MOL1         0.0833
      13    C5      20.732502   17.763556   23.414006 C.3        1 MOL1         0.1219
      14    H9      20.259735   18.145801   24.328475 H          1 MOL1         0.0790
      15    C6      19.688255   17.710155   22.268900 C.3        1 MOL1        -0.1760
      16    H10     20.164605   17.938536   21.310009 H          1 MOL1         0.0833
      17    H11     19.324038   16.679693   22.158859 H          1 MOL1         0.0833
      18    C7      18.441750   18.609676   22.474712 C.3        1 MOL1        -0.1684
      19    H12     17.776556   18.103975   23.188039 H          1 MOL1         0.0833
      20    H13     17.881136   18.663629   21.531686 H          1 MOL1         0.0833
      21    C8      18.690075   20.043840   23.005538 C.3        1 MOL1        -0.1684
      22    H14     19.154634   20.011692   23.997683 H          1 MOL1         0.0833
      23    H15     17.706641   20.502735   23.176062 H          1 MOL1         0.0833
      24    O1      21.177408   16.437733   23.671706 O.3        1 MOL1        -0.5508
      25    H16     21.597549   16.121466   22.845631 H          1 MOL1         0.3780
@<TRIPOS>BOND
    1     1     2    1
    2     1     3    1
    3     1     4    1
    4     4     5    1
    5     4     6    1
    6     4     7    1
    7     7     8    1
    8     7     9    1
    9     7    10    1
   10    10    11    1
   11    10    12    1
   12    10    13    1
   13    13    14    1
   14    13    15    1
   15    15    16    1
   16    15    17    1
   17    15    18    1
   18    18    19    1
   19    18    20    1
   20     1    21    1
   21    18    21    1
   22    21    22    1
   23    21    23    1
   24    13    24    1
   25    24    25    1
@<TRIPOS>SUBSTRUCTURE
       1 MOL1            1 RESIDUE      1      MOL     
@<SCITEGIC>MOL_PROPERTY
VConf Rank
SciTegic.value.IntegerValue
430

@<SCITEGIC>MOL_PROPERTY
Conf_Id
SciTegic.value.IntegerValue
68

@<SCITEGIC>MOL_PROPERTY
Delta U+W
SciTegic.value.DoubleValue
-1.765

@<SCITEGIC>MOL_PROPERTY
U+W
SciTegic.value.DoubleValue
9.148

@<SCITEGIC>MOL_PROPERTY
Grad RMS
SciTegic.value.DoubleValue
0.000000

@<SCITEGIC>MOL_PROPERTY
U
SciTegic.value.DoubleValue
11.181

@<SCITEGIC>MOL_PROPERTY
W
SciTegic.value.DoubleValue
-2.032

@<SCITEGIC>MOL_PROPERTY
W(PB)
SciTegic.value.DoubleValue
-4.147

@<SCITEGIC>MOL_PROPERTY
W(SA)
SciTegic.value.DoubleValue
2.114

@<SCITEGIC>MOL_PROPERTY
Valence
SciTegic.value.DoubleValue
16.955

@<SCITEGIC>MOL_PROPERTY
Coulomb
SciTegic.value.DoubleValue
-8.661

@<SCITEGIC>MOL_PROPERTY
VdW
SciTegic.value.DoubleValue
2.887

@<SCITEGIC>MOL_PROPERTY
VdW6
SciTegic.value.DoubleValue
-12.561

@<SCITEGIC>MOL_PROPERTY
VdW12
SciTegic.value.DoubleValue
15.448

@<SCITEGIC>MOL_PROPERTY
Bond
SciTegic.value.DoubleValue
0.433

@<SCITEGIC>MOL_PROPERTY
Angle
SciTegic.value.DoubleValue
5.121

@<SCITEGIC>MOL_PROPERTY
Pdih
SciTegic.value.DoubleValue
11.402

@<SCITEGIC>MOL_PROPERTY
Idih
SciTegic.value.DoubleValue
0.000

@<SCITEGIC>MOL_PROPERTY
Tether
SciTegic.value.DoubleValue
0.000

@<TRIPOS>MOLECULE
guest-s17_confgen4.mol2 : confsearch ligand conformer 431
          25          25           1
SMALL
USER_CHARGES
 
@<TRIPOS>ATOM
       1    C1      19.134041   19.251606   24.161406 C.3        1 MOL1        -0.1684
       2    H1      18.582553   19.292042   25.110775 H          1 MOL1         0.0833
       3    H2      18.390706   18.914693   23.430082 H          1 MOL1         0.0833
       4    C2      20.268351   18.204202   24.308341 C.3        1 MOL1        -0.1684
       5    H3      21.213196   18.682048   24.597382 H          1 MOL1         0.0833
       6    H4      20.007966   17.552118   25.153330 H          1 MOL1         0.0833
       7    C3      20.470714   17.286160   23.074303 C.3        1 MOL1        -0.1684
       8    H5      19.523528   16.783608   22.834815 H          1 MOL1         0.0833
       9    H6      21.163720   16.484788   23.364780 H          1 MOL1         0.0833
      10    C4      21.034080   17.955875   21.792641 C.3        1 MOL1        -0.1760
      11    H7      21.995753   18.438074   22.005305 H          1 MOL1         0.0833
      12    H8      21.267405   17.145272   21.089012 H          1 MOL1         0.0833
      13    C5      20.059032   18.944554   21.102219 C.3        1 MOL1         0.1219
      14    H9      19.037563   18.732645   21.438729 H          1 MOL1         0.0790
      15    C6      20.373321   20.441387   21.344618 C.3        1 MOL1        -0.1760
      16    H10     21.218573   20.727960   20.705086 H          1 MOL1         0.0833
      17    H11     19.518362   21.035592   20.996696 H          1 MOL1         0.0833
      18    C7      20.725272   20.865398   22.793897 C.3        1 MOL1        -0.1684
      19    H12     20.990805   21.931002   22.767411 H          1 MOL1         0.0833
      20    H13     21.638702   20.361277   23.129777 H          1 MOL1         0.0833
      21    C8      19.599748   20.696616   23.845014 C.3        1 MOL1        -0.1684
      22    H14     18.728554   21.294001   23.543784 H          1 MOL1         0.0833
      23    H15     19.956720   21.145536   24.782052 H          1 MOL1         0.0833
      24    O1      20.104987   18.720063   19.698589 O.3        1 MOL1        -0.5508
      25    H16     21.026947   18.896618   19.419831 H          1 MOL1         0.3780
@<TRIPOS>BOND
    1     1     2    1
    2     1     3    1
    3     1     4    1
    4     4     5    1
    5     4     6    1
    6     4     7    1
    7     7     8    1
    8     7     9    1
    9     7    10    1
   10    10    11    1
   11    10    12    1
   12    10    13    1
   13    13    14    1
   14    13    15    1
   15    15    16    1
   16    15    17    1
   17    15    18    1
   18    18    19    1
   19    18    20    1
   20     1    21    1
   21    18    21    1
   22    21    22    1
   23    21    23    1
   24    13    24    1
   25    24    25    1
@<TRIPOS>SUBSTRUCTURE
       1 MOL1            1 RESIDUE      1      MOL     
@<SCITEGIC>MOL_PROPERTY
VConf Rank
SciTegic.value.IntegerValue
431

@<SCITEGIC>MOL_PROPERTY
Conf_Id
SciTegic.value.IntegerValue
165

@<SCITEGIC>MOL_PROPERTY
Delta U+W
SciTegic.value.DoubleValue
-1.999

@<SCITEGIC>MOL_PROPERTY
U+W
SciTegic.value.DoubleValue
8.915

@<SCITEGIC>MOL_PROPERTY
Grad RMS
SciTegic.value.DoubleValue
0.000000

@<SCITEGIC>MOL_PROPERTY
U
SciTegic.value.DoubleValue
10.935

@<SCITEGIC>MOL_PROPERTY
W
SciTegic.value.DoubleValue
-2.020

@<SCITEGIC>MOL_PROPERTY
W(PB)
SciTegic.value.DoubleValue
-4.135

@<SCITEGIC>MOL_PROPERTY
W(SA)
SciTegic.value.DoubleValue
2.115

@<SCITEGIC>MOL_PROPERTY
Valence
SciTegic.value.DoubleValue
16.757

@<SCITEGIC>MOL_PROPERTY
Coulomb
SciTegic.value.DoubleValue
-8.731

@<SCITEGIC>MOL_PROPERTY
VdW
SciTegic.value.DoubleValue
2.908

@<SCITEGIC>MOL_PROPERTY
VdW6
SciTegic.value.DoubleValue
-12.597

@<SCITEGIC>MOL_PROPERTY
VdW12
SciTegic.value.DoubleValue
15.506

@<SCITEGIC>MOL_PROPERTY
Bond
SciTegic.value.DoubleValue
0.434

@<SCITEGIC>MOL_PROPERTY
Angle
SciTegic.value.DoubleValue
5.069

@<SCITEGIC>MOL_PROPERTY
Pdih
SciTegic.value.DoubleValue
11.254

@<SCITEGIC>MOL_PROPERTY
Idih
SciTegic.value.DoubleValue
0.000

@<SCITEGIC>MOL_PROPERTY
Tether
SciTegic.value.DoubleValue
0.000

@<TRIPOS>MOLECULE
guest-s17_confgen4.mol2 : confsearch ligand conformer 432
          25          25           1
SMALL
USER_CHARGES
 
@<TRIPOS>ATOM
       1    C1      21.052973   19.574584   24.288409 C.3        1 MOL1        -0.1684
       2    H1      21.531401   19.887530   25.226628 H          1 MOL1         0.0833
       3    H2      20.448234   18.705047   24.569477 H          1 MOL1         0.0833
       4    C2      22.188418   19.162946   23.315389 C.3        1 MOL1        -0.1684
       5    H3      22.998084   19.898614   23.416582 H          1 MOL1         0.0833
       6    H4      22.614332   18.206758   23.648360 H          1 MOL1         0.0833
       7    C3      21.834601   19.070414   21.809869 C.3        1 MOL1        -0.1684
       8    H5      22.767146   18.866352   21.266345 H          1 MOL1         0.0833
       9    H6      21.504641   20.046252   21.435491 H          1 MOL1         0.0833
      10    C4      20.819421   17.967001   21.415000 C.3        1 MOL1        -0.1760
      11    H7      20.756217   17.955695   20.318464 H          1 MOL1         0.0833
      12    H8      21.227154   16.990027   21.704815 H          1 MOL1         0.0833
      13    C5      19.383487   18.092398   21.980799 C.3        1 MOL1         0.1219
      14    H9      19.376782   17.763548   23.026587 H          1 MOL1         0.0790
      15    C6      18.778110   19.517435   21.897307 C.3        1 MOL1        -0.1760
      16    H10     19.273578   20.106948   21.116856 H          1 MOL1         0.0833
      17    H11     17.733030   19.431656   21.570228 H          1 MOL1         0.0833
      18    C7      18.768284   20.293794   23.241242 C.3        1 MOL1        -0.1684
      19    H12     18.240296   19.699550   23.999589 H          1 MOL1         0.0833
      20    H13     18.160470   21.197921   23.100211 H          1 MOL1         0.0833
      21    C8      20.146446   20.734741   23.800800 C.3        1 MOL1        -0.1684
      22    H14     19.948423   21.384263   24.664466 H          1 MOL1         0.0833
      23    H15     20.673555   21.372199   23.079404 H          1 MOL1         0.0833
      24    O1      18.554325   17.204991   21.238833 O.3        1 MOL1        -0.5508
      25    H16     18.934129   16.307922   21.345868 H          1 MOL1         0.3780
@<TRIPOS>BOND
    1     1     2    1
    2     1     3    1
    3     1     4    1
    4     4     5    1
    5     4     6    1
    6     4     7    1
    7     7     8    1
    8     7     9    1
    9     7    10    1
   10    10    11    1
   11    10    12    1
   12    10    13    1
   13    13    14    1
   14    13    15    1
   15    15    16    1
   16    15    17    1
   17    15    18    1
   18    18    19    1
   19    18    20    1
   20     1    21    1
   21    18    21    1
   22    21    22    1
   23    21    23    1
   24    13    24    1
   25    24    25    1
@<TRIPOS>SUBSTRUCTURE
       1 MOL1            1 RESIDUE      1      MOL     
@<SCITEGIC>MOL_PROPERTY
VConf Rank
SciTegic.value.IntegerValue
432

@<SCITEGIC>MOL_PROPERTY
Conf_Id
SciTegic.value.IntegerValue
133

@<SCITEGIC>MOL_PROPERTY
Delta U+W
SciTegic.value.DoubleValue
-2.139

@<SCITEGIC>MOL_PROPERTY
U+W
SciTegic.value.DoubleValue
8.774

@<SCITEGIC>MOL_PROPERTY
Grad RMS
SciTegic.value.DoubleValue
0.000000

@<SCITEGIC>MOL_PROPERTY
U
SciTegic.value.DoubleValue
10.905

@<SCITEGIC>MOL_PROPERTY
W
SciTegic.value.DoubleValue
-2.131

@<SCITEGIC>MOL_PROPERTY
W(PB)
SciTegic.value.DoubleValue
-4.281

@<SCITEGIC>MOL_PROPERTY
W(SA)
SciTegic.value.DoubleValue
2.150

@<SCITEGIC>MOL_PROPERTY
Valence
SciTegic.value.DoubleValue
16.378

@<SCITEGIC>MOL_PROPERTY
Coulomb
SciTegic.value.DoubleValue
-8.448

@<SCITEGIC>MOL_PROPERTY
VdW
SciTegic.value.DoubleValue
2.976

@<SCITEGIC>MOL_PROPERTY
VdW6
SciTegic.value.DoubleValue
-12.570

@<SCITEGIC>MOL_PROPERTY
VdW12
SciTegic.value.DoubleValue
15.545

@<SCITEGIC>MOL_PROPERTY
Bond
SciTegic.value.DoubleValue
0.439

@<SCITEGIC>MOL_PROPERTY
Angle
SciTegic.value.DoubleValue
5.049

@<SCITEGIC>MOL_PROPERTY
Pdih
SciTegic.value.DoubleValue
10.889

@<SCITEGIC>MOL_PROPERTY
Idih
SciTegic.value.DoubleValue
0.000

@<SCITEGIC>MOL_PROPERTY
Tether
SciTegic.value.DoubleValue
0.000

@<TRIPOS>MOLECULE
guest-s17_confgen4.mol2 : confsearch ligand conformer 433
          25          25           1
SMALL
USER_CHARGES
 
@<TRIPOS>ATOM
       1    C1      18.720324   18.342335   22.988196 C.3        1 MOL1        -0.1684
       2    H1      17.748791   17.843764   23.109183 H          1 MOL1         0.0833
       3    H2      19.248119   18.138782   23.926706 H          1 MOL1         0.0833
       4    C2      18.463223   19.863212   22.825857 C.3        1 MOL1        -0.1684
       5    H3      18.417942   20.145830   21.766289 H          1 MOL1         0.0833
       6    H4      17.459343   20.072206   23.220264 H          1 MOL1         0.0833
       7    C3      19.451417   20.777107   23.597312 C.3        1 MOL1        -0.1684
       8    H5      19.441569   20.507387   24.662273 H          1 MOL1         0.0833
       9    H6      19.063037   21.803609   23.550114 H          1 MOL1         0.0833
      10    C4      20.917639   20.803505   23.088894 C.3        1 MOL1        -0.1760
      11    H7      20.953145   21.101552   22.034367 H          1 MOL1         0.0833
      12    H8      21.429328   21.610215   23.631042 H          1 MOL1         0.0833
      13    C5      21.702500   19.485860   23.316898 C.3        1 MOL1         0.1219
      14    H9      21.198595   18.901637   24.095757 H          1 MOL1         0.0790
      15    C6      21.874222   18.609756   22.051709 C.3        1 MOL1        -0.1760
      16    H10     22.660864   19.056959   21.429038 H          1 MOL1         0.0833
      17    H11     22.251611   17.624728   22.355049 H          1 MOL1         0.0833
      18    C7      20.626541   18.412837   21.152521 C.3        1 MOL1        -0.1684
      19    H12     20.944689   17.835590   20.273734 H          1 MOL1         0.0833
      20    H13     20.292241   19.373958   20.745358 H          1 MOL1         0.0833
      21    C8      19.436451   17.657203   21.795211 C.3        1 MOL1        -0.1684
      22    H14     19.765612   16.655821   22.104170 H          1 MOL1         0.0833
      23    H15     18.689175   17.492774   21.006828 H          1 MOL1         0.0833
      24    O1      23.004860   19.811595   23.789409 O.3        1 MOL1        -0.5508
      25    H16     23.461128   18.962691   23.967227 H          1 MOL1         0.3780
@<TRIPOS>BOND
    1     1     2    1
    2     1     3    1
    3     1     4    1
    4     4     5    1
    5     4     6    1
    6     4     7    1
    7     7     8    1
    8     7     9    1
    9     7    10    1
   10    10    11    1
   11    10    12    1
   12    10    13    1
   13    13    14    1
   14    13    15    1
   15    15    16    1
   16    15    17    1
   17    15    18    1
   18    18    19    1
   19    18    20    1
   20     1    21    1
   21    18    21    1
   22    21    22    1
   23    21    23    1
   24    13    24    1
   25    24    25    1
@<TRIPOS>SUBSTRUCTURE
       1 MOL1            1 RESIDUE      1      MOL     
@<SCITEGIC>MOL_PROPERTY
VConf Rank
SciTegic.value.IntegerValue
433

@<SCITEGIC>MOL_PROPERTY
Conf_Id
SciTegic.value.IntegerValue
95

@<SCITEGIC>MOL_PROPERTY
Delta U+W
SciTegic.value.DoubleValue
-2.190

@<SCITEGIC>MOL_PROPERTY
U+W
SciTegic.value.DoubleValue
8.723

@<SCITEGIC>MOL_PROPERTY
Grad RMS
SciTegic.value.DoubleValue
0.000000

@<SCITEGIC>MOL_PROPERTY
U
SciTegic.value.DoubleValue
10.905

@<SCITEGIC>MOL_PROPERTY
W
SciTegic.value.DoubleValue
-2.182

@<SCITEGIC>MOL_PROPERTY
W(PB)
SciTegic.value.DoubleValue
-4.296

@<SCITEGIC>MOL_PROPERTY
W(SA)
SciTegic.value.DoubleValue
2.114

@<SCITEGIC>MOL_PROPERTY
Valence
SciTegic.value.DoubleValue
16.377

@<SCITEGIC>MOL_PROPERTY
Coulomb
SciTegic.value.DoubleValue
-8.448

@<SCITEGIC>MOL_PROPERTY
VdW
SciTegic.value.DoubleValue
2.976

@<SCITEGIC>MOL_PROPERTY
VdW6
SciTegic.value.DoubleValue
-12.570

@<SCITEGIC>MOL_PROPERTY
VdW12
SciTegic.value.DoubleValue
15.546

@<SCITEGIC>MOL_PROPERTY
Bond
SciTegic.value.DoubleValue
0.439

@<SCITEGIC>MOL_PROPERTY
Angle
SciTegic.value.DoubleValue
5.049

@<SCITEGIC>MOL_PROPERTY
Pdih
SciTegic.value.DoubleValue
10.889

@<SCITEGIC>MOL_PROPERTY
Idih
SciTegic.value.DoubleValue
0.000

@<SCITEGIC>MOL_PROPERTY
Tether
SciTegic.value.DoubleValue
0.000

@<TRIPOS>MOLECULE
guest-s17_confgen4.mol2 : confsearch ligand conformer 434
          25          25           1
SMALL
USER_CHARGES
 
@<TRIPOS>ATOM
       1    C1      22.077039   19.397734   22.980048 C.3        1 MOL1        -0.1684
       2    H1      23.162897   19.415749   23.145846 H          1 MOL1         0.0833
       3    H2      21.725003   20.290616   23.506419 H          1 MOL1         0.0833
       4    C2      21.535015   18.103253   23.654397 C.3        1 MOL1        -0.1684
       5    H3      22.301983   17.325780   23.535087 H          1 MOL1         0.0833
       6    H4      21.456143   18.271559   24.736951 H          1 MOL1         0.0833
       7    C3      20.202624   17.506154   23.130275 C.3        1 MOL1        -0.1684
       8    H5      20.046660   16.544661   23.638235 H          1 MOL1         0.0833
       9    H6      20.321657   17.223895   22.079471 H          1 MOL1         0.0833
      10    C4      18.908661   18.348843   23.335347 C.3        1 MOL1        -0.1760
      11    H7      18.145728   18.006208   22.624075 H          1 MOL1         0.0833
      12    H8      18.518649   18.101158   24.331241 H          1 MOL1         0.0833
      13    C5      19.018205   19.892664   23.255904 C.3        1 MOL1         0.1219
      14    H9      19.748928   20.219764   24.002808 H          1 MOL1         0.0790
      15    C6      19.380465   20.503261   21.871516 C.3        1 MOL1        -0.1760
      16    H10     18.449299   20.625523   21.302046 H          1 MOL1         0.0833
      17    H11     19.763180   21.519072   22.032590 H          1 MOL1         0.0833
      18    C7      20.369714   19.731038   20.957143 C.3        1 MOL1        -0.1684
      19    H12     20.413212   20.259221   19.994936 H          1 MOL1         0.0833
      20    H13     19.937857   18.759700   20.696236 H          1 MOL1         0.0833
      21    C8      21.835117   19.569363   21.457105 C.3        1 MOL1        -0.1684
      22    H14     22.389795   20.464378   21.143821 H          1 MOL1         0.0833
      23    H15     22.303104   18.732949   20.920595 H          1 MOL1         0.0833
      24    O1      17.756345   20.428447   23.637035 O.3        1 MOL1        -0.5508
      25    H16     17.565802   20.090957   24.536952 H          1 MOL1         0.3780
@<TRIPOS>BOND
    1     1     2    1
    2     1     3    1
    3     1     4    1
    4     4     5    1
    5     4     6    1
    6     4     7    1
    7     7     8    1
    8     7     9    1
    9     7    10    1
   10    10    11    1
   11    10    12    1
   12    10    13    1
   13    13    14    1
   14    13    15    1
   15    15    16    1
   16    15    17    1
   17    15    18    1
   18    18    19    1
   19    18    20    1
   20     1    21    1
   21    18    21    1
   22    21    22    1
   23    21    23    1
   24    13    24    1
   25    24    25    1
@<TRIPOS>SUBSTRUCTURE
       1 MOL1            1 RESIDUE      1      MOL     
@<SCITEGIC>MOL_PROPERTY
VConf Rank
SciTegic.value.IntegerValue
434

@<SCITEGIC>MOL_PROPERTY
Conf_Id
SciTegic.value.IntegerValue
161

@<SCITEGIC>MOL_PROPERTY
Delta U+W
SciTegic.value.DoubleValue
2.120

@<SCITEGIC>MOL_PROPERTY
U+W
SciTegic.value.DoubleValue
13.033

@<SCITEGIC>MOL_PROPERTY
Grad RMS
SciTegic.value.DoubleValue
0.000000

@<SCITEGIC>MOL_PROPERTY
U
SciTegic.value.DoubleValue
15.076

@<SCITEGIC>MOL_PROPERTY
W
SciTegic.value.DoubleValue
-2.043

@<SCITEGIC>MOL_PROPERTY
W(PB)
SciTegic.value.DoubleValue
-4.186

@<SCITEGIC>MOL_PROPERTY
W(SA)
SciTegic.value.DoubleValue
2.143

@<SCITEGIC>MOL_PROPERTY
Valence
SciTegic.value.DoubleValue
18.884

@<SCITEGIC>MOL_PROPERTY
Coulomb
SciTegic.value.DoubleValue
-8.074

@<SCITEGIC>MOL_PROPERTY
VdW
SciTegic.value.DoubleValue
4.266

@<SCITEGIC>MOL_PROPERTY
VdW6
SciTegic.value.DoubleValue
-13.486

@<SCITEGIC>MOL_PROPERTY
VdW12
SciTegic.value.DoubleValue
17.752

@<SCITEGIC>MOL_PROPERTY
Bond
SciTegic.value.DoubleValue
0.713

@<SCITEGIC>MOL_PROPERTY
Angle
SciTegic.value.DoubleValue
8.955

@<SCITEGIC>MOL_PROPERTY
Pdih
SciTegic.value.DoubleValue
9.215

@<SCITEGIC>MOL_PROPERTY
Idih
SciTegic.value.DoubleValue
0.000

@<SCITEGIC>MOL_PROPERTY
Tether
SciTegic.value.DoubleValue
0.000

@<TRIPOS>MOLECULE
guest-s17_confgen4.mol2 : confsearch ligand conformer 435
          25          25           1
SMALL
USER_CHARGES
 
@<TRIPOS>ATOM
       1    C1      20.240502   21.026201   23.398922 C.3        1 MOL1        -0.1684
       2    H1      20.460981   21.997909   23.861696 H          1 MOL1         0.0833
       3    H2      19.144931   20.964353   23.387384 H          1 MOL1         0.0833
       4    C2      20.822796   19.918421   24.311849 C.3        1 MOL1        -0.1684
       5    H3      21.876589   19.726508   24.069203 H          1 MOL1         0.0833
       6    H4      20.828958   20.319624   25.334673 H          1 MOL1         0.0833
       7    C3      20.005483   18.597168   24.352148 C.3        1 MOL1        -0.1684
       8    H5      18.926230   18.797368   24.314492 H          1 MOL1         0.0833
       9    H6      20.182409   18.144801   25.337675 H          1 MOL1         0.0833
      10    C4      20.406657   17.537386   23.293662 C.3        1 MOL1        -0.1760
      11    H7      21.486398   17.587401   23.107579 H          1 MOL1         0.0833
      12    H8      20.241459   16.545815   23.735399 H          1 MOL1         0.0833
      13    C5      19.613026   17.563925   21.962769 C.3        1 MOL1         0.1219
      14    H9      18.591023   17.217007   22.172368 H          1 MOL1         0.0790
      15    C6      19.500959   18.934376   21.255529 C.3        1 MOL1        -0.1760
      16    H10     19.125277   18.766451   20.237321 H          1 MOL1         0.0833
      17    H11     18.715717   19.522830   21.742232 H          1 MOL1         0.0833
      18    C7      20.826077   19.738512   21.173939 C.3        1 MOL1        -0.1684
      19    H12     21.040472   19.960195   20.119605 H          1 MOL1         0.0833
      20    H13     21.677136   19.137533   21.513972 H          1 MOL1         0.0833
      21    C8      20.800558   21.075511   21.952697 C.3        1 MOL1        -0.1684
      22    H14     20.209744   21.804927   21.381995 H          1 MOL1         0.0833
      23    H15     21.822937   21.476383   21.981406 H          1 MOL1         0.0833
      24    O1      20.230789   16.651655   21.065831 O.3        1 MOL1        -0.5508
      25    H16     21.075838   17.067797   20.800261 H          1 MOL1         0.3780
@<TRIPOS>BOND
    1     1     2    1
    2     1     3    1
    3     1     4    1
    4     4     5    1
    5     4     6    1
    6     4     7    1
    7     7     8    1
    8     7     9    1
    9     7    10    1
   10    10    11    1
   11    10    12    1
   12    10    13    1
   13    13    14    1
   14    13    15    1
   15    15    16    1
   16    15    17    1
   17    15    18    1
   18    18    19    1
   19    18    20    1
   20     1    21    1
   21    18    21    1
   22    21    22    1
   23    21    23    1
   24    13    24    1
   25    24    25    1
@<TRIPOS>SUBSTRUCTURE
       1 MOL1            1 RESIDUE      1      MOL     
@<SCITEGIC>MOL_PROPERTY
VConf Rank
SciTegic.value.IntegerValue
435

@<SCITEGIC>MOL_PROPERTY
Conf_Id
SciTegic.value.IntegerValue
164

@<SCITEGIC>MOL_PROPERTY
Delta U+W
SciTegic.value.DoubleValue
0.008

@<SCITEGIC>MOL_PROPERTY
U+W
SciTegic.value.DoubleValue
10.922

@<SCITEGIC>MOL_PROPERTY
Grad RMS
SciTegic.value.DoubleValue
0.000000

@<SCITEGIC>MOL_PROPERTY
U
SciTegic.value.DoubleValue
12.433

@<SCITEGIC>MOL_PROPERTY
W
SciTegic.value.DoubleValue
-1.511

@<SCITEGIC>MOL_PROPERTY
W(PB)
SciTegic.value.DoubleValue
-3.669

@<SCITEGIC>MOL_PROPERTY
W(SA)
SciTegic.value.DoubleValue
2.157

@<SCITEGIC>MOL_PROPERTY
Valence
SciTegic.value.DoubleValue
19.007

@<SCITEGIC>MOL_PROPERTY
Coulomb
SciTegic.value.DoubleValue
-9.373

@<SCITEGIC>MOL_PROPERTY
VdW
SciTegic.value.DoubleValue
2.799

@<SCITEGIC>MOL_PROPERTY
VdW6
SciTegic.value.DoubleValue
-12.597

@<SCITEGIC>MOL_PROPERTY
VdW12
SciTegic.value.DoubleValue
15.396

@<SCITEGIC>MOL_PROPERTY
Bond
SciTegic.value.DoubleValue
0.425

@<SCITEGIC>MOL_PROPERTY
Angle
SciTegic.value.DoubleValue
4.784

@<SCITEGIC>MOL_PROPERTY
Pdih
SciTegic.value.DoubleValue
13.799

@<SCITEGIC>MOL_PROPERTY
Idih
SciTegic.value.DoubleValue
0.000

@<SCITEGIC>MOL_PROPERTY
Tether
SciTegic.value.DoubleValue
0.000

@<TRIPOS>MOLECULE
guest-s17_confgen4.mol2 : confsearch ligand conformer 436
          25          25           1
SMALL
USER_CHARGES
 
@<TRIPOS>ATOM
       1    C1      21.587959   20.110777   21.703582 C.3        1 MOL1        -0.1684
       2    H1      20.899746   20.883569   22.064244 H          1 MOL1         0.0833
       3    H2      22.353727   20.663024   21.142070 H          1 MOL1         0.0833
       4    C2      20.870175   19.172640   20.701382 C.3        1 MOL1        -0.1684
       5    H3      20.523229   19.791329   19.862480 H          1 MOL1         0.0833
       6    H4      21.600370   18.473260   20.272210 H          1 MOL1         0.0833
       7    C3      19.655285   18.368916   21.231316 C.3        1 MOL1        -0.1684
       8    H5      19.989098   17.458330   21.741674 H          1 MOL1         0.0833
       9    H6      19.100639   18.005183   20.355491 H          1 MOL1         0.0833
      10    C4      18.673238   19.167463   22.129473 C.3        1 MOL1        -0.1760
      11    H7      18.732233   20.241817   21.917194 H          1 MOL1         0.0833
      12    H8      17.655148   18.870641   21.843764 H          1 MOL1         0.0833
      13    C5      18.813278   18.897899   23.648748 C.3        1 MOL1         0.1219
      14    H9      18.753502   17.812199   23.810861 H          1 MOL1         0.0790
      15    C6      20.105461   19.416883   24.328010 C.3        1 MOL1        -0.1760
      16    H10     20.211556   20.499442   24.188053 H          1 MOL1         0.0833
      17    H11     19.978122   19.275170   25.409648 H          1 MOL1         0.0833
      18    C7      21.403891   18.673446   23.915500 C.3        1 MOL1        -0.1684
      19    H12     21.171587   17.664256   23.556845 H          1 MOL1         0.0833
      20    H13     22.008158   18.511564   24.818639 H          1 MOL1         0.0833
      21    C8      22.299056   19.421488   22.894775 C.3        1 MOL1        -0.1684
      22    H14     23.059018   18.727293   22.511293 H          1 MOL1         0.0833
      23    H15     22.853845   20.197222   23.440070 H          1 MOL1         0.0833
      24    O1      17.708666   19.511554   24.298716 O.3        1 MOL1        -0.5508
      25    H16     17.791657   20.473439   24.135385 H          1 MOL1         0.3780
@<TRIPOS>BOND
    1     1     2    1
    2     1     3    1
    3     1     4    1
    4     4     5    1
    5     4     6    1
    6     4     7    1
    7     7     8    1
    8     7     9    1
    9     7    10    1
   10    10    11    1
   11    10    12    1
   12    10    13    1
   13    13    14    1
   14    13    15    1
   15    15    16    1
   16    15    17    1
   17    15    18    1
   18    18    19    1
   19    18    20    1
   20     1    21    1
   21    18    21    1
   22    21    22    1
   23    21    23    1
   24    13    24    1
   25    24    25    1
@<TRIPOS>SUBSTRUCTURE
       1 MOL1            1 RESIDUE      1      MOL     
@<SCITEGIC>MOL_PROPERTY
VConf Rank
SciTegic.value.IntegerValue
436

@<SCITEGIC>MOL_PROPERTY
Conf_Id
SciTegic.value.IntegerValue
15

@<SCITEGIC>MOL_PROPERTY
Delta U+W
SciTegic.value.DoubleValue
-1.271

@<SCITEGIC>MOL_PROPERTY
U+W
SciTegic.value.DoubleValue
9.643

@<SCITEGIC>MOL_PROPERTY
Grad RMS
SciTegic.value.DoubleValue
0.000000

@<SCITEGIC>MOL_PROPERTY
U
SciTegic.value.DoubleValue
11.413

@<SCITEGIC>MOL_PROPERTY
W
SciTegic.value.DoubleValue
-1.770

@<SCITEGIC>MOL_PROPERTY
W(PB)
SciTegic.value.DoubleValue
-3.908

@<SCITEGIC>MOL_PROPERTY
W(SA)
SciTegic.value.DoubleValue
2.138

@<SCITEGIC>MOL_PROPERTY
Valence
SciTegic.value.DoubleValue
17.496

@<SCITEGIC>MOL_PROPERTY
Coulomb
SciTegic.value.DoubleValue
-8.736

@<SCITEGIC>MOL_PROPERTY
VdW
SciTegic.value.DoubleValue
2.653

@<SCITEGIC>MOL_PROPERTY
VdW6
SciTegic.value.DoubleValue
-12.485

@<SCITEGIC>MOL_PROPERTY
VdW12
SciTegic.value.DoubleValue
15.138

@<SCITEGIC>MOL_PROPERTY
Bond
SciTegic.value.DoubleValue
0.414

@<SCITEGIC>MOL_PROPERTY
Angle
SciTegic.value.DoubleValue
5.295

@<SCITEGIC>MOL_PROPERTY
Pdih
SciTegic.value.DoubleValue
11.787

@<SCITEGIC>MOL_PROPERTY
Idih
SciTegic.value.DoubleValue
0.000

@<SCITEGIC>MOL_PROPERTY
Tether
SciTegic.value.DoubleValue
0.000

@<TRIPOS>MOLECULE
guest-s17_confgen4.mol2 : confsearch ligand conformer 437
          25          25           1
SMALL
USER_CHARGES
 
@<TRIPOS>ATOM
       1    C1      21.812709   19.597087   21.473553 C.3        1 MOL1        -0.1684
       2    H1      22.546799   19.713295   20.664486 H          1 MOL1         0.0833
       3    H2      22.409487   19.595180   22.394432 H          1 MOL1         0.0833
       4    C2      20.885057   20.839654   21.425463 C.3        1 MOL1        -0.1684
       5    H3      21.482583   21.721669   21.693488 H          1 MOL1         0.0833
       6    H4      20.562007   21.002048   20.388139 H          1 MOL1         0.0833
       7    C3      19.626395   20.801581   22.325270 C.3        1 MOL1        -0.1684
       8    H5      18.854392   20.185085   21.850176 H          1 MOL1         0.0833
       9    H6      19.198373   21.812851   22.355556 H          1 MOL1         0.0833
      10    C4      19.899582   20.332394   23.778090 C.3        1 MOL1        -0.1760
      11    H7      20.975833   20.257171   23.968922 H          1 MOL1         0.0833
      12    H8      19.544761   21.110498   24.466459 H          1 MOL1         0.0833
      13    C5      19.198309   19.010729   24.167558 C.3        1 MOL1         0.1219
      14    H9      18.128740   19.228464   24.299636 H          1 MOL1         0.0790
      15    C6      19.304150   17.844301   23.151329 C.3        1 MOL1        -0.1760
      16    H10     18.909154   16.948581   23.649323 H          1 MOL1         0.0833
      17    H11     18.619299   18.014705   22.312011 H          1 MOL1         0.0833
      18    C7      20.720051   17.507708   22.611912 C.3        1 MOL1        -0.1684
      19    H12     20.729740   16.429683   22.399988 H          1 MOL1         0.0833
      20    H13     21.484942   17.656438   23.384978 H          1 MOL1         0.0833
      21    C8      21.114565   18.226570   21.292300 C.3        1 MOL1        -0.1684
      22    H14     20.254857   18.312913   20.614337 H          1 MOL1         0.0833
      23    H15     21.828323   17.571345   20.774224 H          1 MOL1         0.0833
      24    O1      19.731518   18.575227   25.410310 O.3        1 MOL1        -0.5508
      25    H16     20.653014   18.303369   25.225693 H          1 MOL1         0.3780
@<TRIPOS>BOND
    1     1     2    1
    2     1     3    1
    3     1     4    1
    4     4     5    1
    5     4     6    1
    6     4     7    1
    7     7     8    1
    8     7     9    1
    9     7    10    1
   10    10    11    1
   11    10    12    1
   12    10    13    1
   13    13    14    1
   14    13    15    1
   15    15    16    1
   16    15    17    1
   17    15    18    1
   18    18    19    1
   19    18    20    1
   20     1    21    1
   21    18    21    1
   22    21    22    1
   23    21    23    1
   24    13    24    1
   25    24    25    1
@<TRIPOS>SUBSTRUCTURE
       1 MOL1            1 RESIDUE      1      MOL     
@<SCITEGIC>MOL_PROPERTY
VConf Rank
SciTegic.value.IntegerValue
437

@<SCITEGIC>MOL_PROPERTY
Conf_Id
SciTegic.value.IntegerValue
115

@<SCITEGIC>MOL_PROPERTY
Delta U+W
SciTegic.value.DoubleValue
0.038

@<SCITEGIC>MOL_PROPERTY
U+W
SciTegic.value.DoubleValue
10.952

@<SCITEGIC>MOL_PROPERTY
Grad RMS
SciTegic.value.DoubleValue
0.000000

@<SCITEGIC>MOL_PROPERTY
U
SciTegic.value.DoubleValue
12.526

@<SCITEGIC>MOL_PROPERTY
W
SciTegic.value.DoubleValue
-1.575

@<SCITEGIC>MOL_PROPERTY
W(PB)
SciTegic.value.DoubleValue
-3.698

@<SCITEGIC>MOL_PROPERTY
W(SA)
SciTegic.value.DoubleValue
2.123

@<SCITEGIC>MOL_PROPERTY
Valence
SciTegic.value.DoubleValue
19.016

@<SCITEGIC>MOL_PROPERTY
Coulomb
SciTegic.value.DoubleValue
-9.226

@<SCITEGIC>MOL_PROPERTY
VdW
SciTegic.value.DoubleValue
2.737

@<SCITEGIC>MOL_PROPERTY
VdW6
SciTegic.value.DoubleValue
-12.612

@<SCITEGIC>MOL_PROPERTY
VdW12
SciTegic.value.DoubleValue
15.349

@<SCITEGIC>MOL_PROPERTY
Bond
SciTegic.value.DoubleValue
0.421

@<SCITEGIC>MOL_PROPERTY
Angle
SciTegic.value.DoubleValue
4.883

@<SCITEGIC>MOL_PROPERTY
Pdih
SciTegic.value.DoubleValue
13.711

@<SCITEGIC>MOL_PROPERTY
Idih
SciTegic.value.DoubleValue
0.000

@<SCITEGIC>MOL_PROPERTY
Tether
SciTegic.value.DoubleValue
0.000

@<TRIPOS>MOLECULE
guest-s17_confgen4.mol2 : confsearch ligand conformer 438
          25          25           1
SMALL
USER_CHARGES
 
@<TRIPOS>ATOM
       1    C1      22.057770   18.143897   22.046201 C.3        1 MOL1        -0.1684
       2    H1      22.714106   17.262874   22.048812 H          1 MOL1         0.0833
       3    H2      22.391952   18.757089   21.198383 H          1 MOL1         0.0833
       4    C2      22.295725   18.899419   23.374396 C.3        1 MOL1        -0.1684
       5    H3      22.076749   18.241999   24.226712 H          1 MOL1         0.0833
       6    H4      23.370295   19.118649   23.439488 H          1 MOL1         0.0833
       7    C3      21.528176   20.233987   23.518237 C.3        1 MOL1        -0.1684
       8    H5      21.553138   20.792049   22.572763 H          1 MOL1         0.0833
       9    H6      22.080139   20.854613   24.237488 H          1 MOL1         0.0833
      10    C4      20.077630   20.082656   24.050172 C.3        1 MOL1        -0.1760
      11    H7      19.906678   19.080420   24.462613 H          1 MOL1         0.0833
      12    H8      19.966903   20.770782   24.899162 H          1 MOL1         0.0833
      13    C5      18.979645   20.423137   23.017479 C.3        1 MOL1         0.1219
      14    H9      19.327890   21.255387   22.389182 H          1 MOL1         0.0790
      15    C6      18.564485   19.246372   22.106820 C.3        1 MOL1        -0.1760
      16    H10     18.155831   18.428448   22.714761 H          1 MOL1         0.0833
      17    H11     17.735321   19.592601   21.475929 H          1 MOL1         0.0833
      18    C7      19.672489   18.709983   21.168052 C.3        1 MOL1        -0.1684
      19    H12     20.244263   19.542257   20.736282 H          1 MOL1         0.0833
      20    H13     19.173706   18.227395   20.316258 H          1 MOL1         0.0833
      21    C8      20.608423   17.655624   21.814857 C.3        1 MOL1        -0.1684
      22    H14     20.658578   16.797486   21.130542 H          1 MOL1         0.0833
      23    H15     20.184328   17.258903   22.746835 H          1 MOL1         0.0833
      24    O1      17.821162   20.842252   23.728752 O.3        1 MOL1        -0.5508
      25    H16     17.156460   21.104478   23.058124 H          1 MOL1         0.3780
@<TRIPOS>BOND
    1     1     2    1
    2     1     3    1
    3     1     4    1
    4     4     5    1
    5     4     6    1
    6     4     7    1
    7     7     8    1
    8     7     9    1
    9     7    10    1
   10    10    11    1
   11    10    12    1
   12    10    13    1
   13    13    14    1
   14    13    15    1
   15    15    16    1
   16    15    17    1
   17    15    18    1
   18    18    19    1
   19    18    20    1
   20     1    21    1
   21    18    21    1
   22    21    22    1
   23    21    23    1
   24    13    24    1
   25    24    25    1
@<TRIPOS>SUBSTRUCTURE
       1 MOL1            1 RESIDUE      1      MOL     
@<SCITEGIC>MOL_PROPERTY
VConf Rank
SciTegic.value.IntegerValue
438

@<SCITEGIC>MOL_PROPERTY
Conf_Id
SciTegic.value.IntegerValue
30

@<SCITEGIC>MOL_PROPERTY
Delta U+W
SciTegic.value.DoubleValue
0.000

@<SCITEGIC>MOL_PROPERTY
U+W
SciTegic.value.DoubleValue
10.913

@<SCITEGIC>MOL_PROPERTY
Grad RMS
SciTegic.value.DoubleValue
0.000000

@<SCITEGIC>MOL_PROPERTY
U
SciTegic.value.DoubleValue
13.140

@<SCITEGIC>MOL_PROPERTY
W
SciTegic.value.DoubleValue
-2.227

@<SCITEGIC>MOL_PROPERTY
W(PB)
SciTegic.value.DoubleValue
-4.367

@<SCITEGIC>MOL_PROPERTY
W(SA)
SciTegic.value.DoubleValue
2.140

@<SCITEGIC>MOL_PROPERTY
Valence
SciTegic.value.DoubleValue
19.155

@<SCITEGIC>MOL_PROPERTY
Coulomb
SciTegic.value.DoubleValue
-8.157

@<SCITEGIC>MOL_PROPERTY
VdW
SciTegic.value.DoubleValue
2.142

@<SCITEGIC>MOL_PROPERTY
VdW6
SciTegic.value.DoubleValue
-11.576

@<SCITEGIC>MOL_PROPERTY
VdW12
SciTegic.value.DoubleValue
13.718

@<SCITEGIC>MOL_PROPERTY
Bond
SciTegic.value.DoubleValue
0.294

@<SCITEGIC>MOL_PROPERTY
Angle
SciTegic.value.DoubleValue
3.547

@<SCITEGIC>MOL_PROPERTY
Pdih
SciTegic.value.DoubleValue
15.314

@<SCITEGIC>MOL_PROPERTY
Idih
SciTegic.value.DoubleValue
0.000

@<SCITEGIC>MOL_PROPERTY
Tether
SciTegic.value.DoubleValue
0.000

@<TRIPOS>MOLECULE
guest-s17_confgen4.mol2 : confsearch ligand conformer 439
          25          25           1
SMALL
USER_CHARGES
 
@<TRIPOS>ATOM
       1    C1      20.571523   18.999295   20.546907 C.3        1 MOL1        -0.1684
       2    H1      19.981060   19.306209   19.672828 H          1 MOL1         0.0833
       3    H2      21.411745   18.415330   20.147176 H          1 MOL1         0.0833
       4    C2      19.702841   18.062430   21.421985 C.3        1 MOL1        -0.1684
       5    H3      19.189125   17.356640   20.755031 H          1 MOL1         0.0833
       6    H4      20.350749   17.433858   22.043810 H          1 MOL1         0.0833
       7    C3      18.640605   18.792312   22.282641 C.3        1 MOL1        -0.1684
       8    H5      17.651760   18.372263   22.053667 H          1 MOL1         0.0833
       9    H6      18.566695   19.849729   22.003278 H          1 MOL1         0.0833
      10    C4      18.872133   18.670437   23.810089 C.3        1 MOL1        -0.1760
      11    H7      18.192226   19.365514   24.320339 H          1 MOL1         0.0833
      12    H8      18.568917   17.664410   24.128105 H          1 MOL1         0.0833
      13    C5      20.315273   18.909355   24.320426 C.3        1 MOL1         0.1219
      14    H9      20.949707   18.065190   24.018988 H          1 MOL1         0.0790
      15    C6      20.975536   20.222753   23.834285 C.3        1 MOL1        -0.1760
      16    H10     20.215723   21.001986   23.692752 H          1 MOL1         0.0833
      17    H11     21.626496   20.594831   24.636660 H          1 MOL1         0.0833
      18    C7      21.865249   20.079324   22.567167 C.3        1 MOL1        -0.1684
      19    H12     22.413570   19.127618   22.571719 H          1 MOL1         0.0833
      20    H13     22.636110   20.859844   22.628820 H          1 MOL1         0.0833
      21    C8      21.127548   20.282113   21.220514 C.3        1 MOL1        -0.1684
      22    H14     21.836269   20.733082   20.512411 H          1 MOL1         0.0833
      23    H15     20.334682   21.031904   21.336734 H          1 MOL1         0.0833
      24    O1      20.259357   18.933974   25.741863 O.3        1 MOL1        -0.5508
      25    H16     21.183738   19.004898   26.059580 H          1 MOL1         0.3780
@<TRIPOS>BOND
    1     1     2    1
    2     1     3    1
    3     1     4    1
    4     4     5    1
    5     4     6    1
    6     4     7    1
    7     7     8    1
    8     7     9    1
    9     7    10    1
   10    10    11    1
   11    10    12    1
   12    10    13    1
   13    13    14    1
   14    13    15    1
   15    15    16    1
   16    15    17    1
   17    15    18    1
   18    18    19    1
   19    18    20    1
   20     1    21    1
   21    18    21    1
   22    21    22    1
   23    21    23    1
   24    13    24    1
   25    24    25    1
@<TRIPOS>SUBSTRUCTURE
       1 MOL1            1 RESIDUE      1      MOL     
@<SCITEGIC>MOL_PROPERTY
VConf Rank
SciTegic.value.IntegerValue
439

@<SCITEGIC>MOL_PROPERTY
Conf_Id
SciTegic.value.IntegerValue
162

@<SCITEGIC>MOL_PROPERTY
Delta U+W
SciTegic.value.DoubleValue
0.219

@<SCITEGIC>MOL_PROPERTY
U+W
SciTegic.value.DoubleValue
11.132

@<SCITEGIC>MOL_PROPERTY
Grad RMS
SciTegic.value.DoubleValue
0.000000

@<SCITEGIC>MOL_PROPERTY
U
SciTegic.value.DoubleValue
13.296

@<SCITEGIC>MOL_PROPERTY
W
SciTegic.value.DoubleValue
-2.164

@<SCITEGIC>MOL_PROPERTY
W(PB)
SciTegic.value.DoubleValue
-4.311

@<SCITEGIC>MOL_PROPERTY
W(SA)
SciTegic.value.DoubleValue
2.148

@<SCITEGIC>MOL_PROPERTY
Valence
SciTegic.value.DoubleValue
18.607

@<SCITEGIC>MOL_PROPERTY
Coulomb
SciTegic.value.DoubleValue
-8.339

@<SCITEGIC>MOL_PROPERTY
VdW
SciTegic.value.DoubleValue
3.028

@<SCITEGIC>MOL_PROPERTY
VdW6
SciTegic.value.DoubleValue
-12.271

@<SCITEGIC>MOL_PROPERTY
VdW12
SciTegic.value.DoubleValue
15.299

@<SCITEGIC>MOL_PROPERTY
Bond
SciTegic.value.DoubleValue
0.423

@<SCITEGIC>MOL_PROPERTY
Angle
SciTegic.value.DoubleValue
4.488

@<SCITEGIC>MOL_PROPERTY
Pdih
SciTegic.value.DoubleValue
13.696

@<SCITEGIC>MOL_PROPERTY
Idih
SciTegic.value.DoubleValue
0.000

@<SCITEGIC>MOL_PROPERTY
Tether
SciTegic.value.DoubleValue
0.000

@<TRIPOS>MOLECULE
guest-s17_confgen4.mol2 : confsearch ligand conformer 440
          25          25           1
SMALL
USER_CHARGES
 
@<TRIPOS>ATOM
       1    C1      20.134330   18.735532   20.744068 C.3        1 MOL1        -0.1684
       2    H1      20.363690   19.779789   20.496849 H          1 MOL1         0.0833
       3    H2      20.014128   18.237921   19.772008 H          1 MOL1         0.0833
       4    C2      21.340537   18.086396   21.467525 C.3        1 MOL1        -0.1684
       5    H3      21.025903   17.195445   22.027385 H          1 MOL1         0.0833
       6    H4      22.017811   17.714509   20.686412 H          1 MOL1         0.0833
       7    C3      22.171020   19.047875   22.362743 C.3        1 MOL1        -0.1684
       8    H5      22.243741   20.046581   21.911674 H          1 MOL1         0.0833
       9    H6      23.198890   18.660026   22.376383 H          1 MOL1         0.0833
      10    C4      21.707774   19.142037   23.839810 C.3        1 MOL1        -0.1760
      11    H7      21.314808   18.173028   24.171311 H          1 MOL1         0.0833
      12    H8      22.597362   19.313235   24.459921 H          1 MOL1         0.0833
      13    C5      20.709827   20.278629   24.176834 C.3        1 MOL1         0.1219
      14    H9      21.252937   21.232711   24.114787 H          1 MOL1         0.0790
      15    C6      19.469171   20.395326   23.259660 C.3        1 MOL1        -0.1760
      16    H10     18.753541   21.084944   23.725815 H          1 MOL1         0.0833
      17    H11     19.760720   20.893469   22.328838 H          1 MOL1         0.0833
      18    C7      18.748974   19.052577   22.966712 C.3        1 MOL1        -0.1684
      19    H12     17.701288   19.136875   23.285471 H          1 MOL1         0.0833
      20    H13     19.163099   18.244120   23.580721 H          1 MOL1         0.0833
      21    C8      18.770140   18.633968   21.476712 C.3        1 MOL1        -0.1684
      22    H14     18.041666   19.246669   20.928387 H          1 MOL1         0.0833
      23    H15     18.404890   17.600436   21.405176 H          1 MOL1         0.0833
      24    O1      20.267388   20.085792   25.515177 O.3        1 MOL1        -0.5508
      25    H16     19.637076   20.809433   25.710546 H          1 MOL1         0.3780
@<TRIPOS>BOND
    1     1     2    1
    2     1     3    1
    3     1     4    1
    4     4     5    1
    5     4     6    1
    6     4     7    1
    7     7     8    1
    8     7     9    1
    9     7    10    1
   10    10    11    1
   11    10    12    1
   12    10    13    1
   13    13    14    1
   14    13    15    1
   15    15    16    1
   16    15    17    1
   17    15    18    1
   18    18    19    1
   19    18    20    1
   20     1    21    1
   21    18    21    1
   22    21    22    1
   23    21    23    1
   24    13    24    1
   25    24    25    1
@<TRIPOS>SUBSTRUCTURE
       1 MOL1            1 RESIDUE      1      MOL     
@<SCITEGIC>MOL_PROPERTY
VConf Rank
SciTegic.value.IntegerValue
440

@<SCITEGIC>MOL_PROPERTY
Conf_Id
SciTegic.value.IntegerValue
155

@<SCITEGIC>MOL_PROPERTY
Delta U+W
SciTegic.value.DoubleValue
0.339

@<SCITEGIC>MOL_PROPERTY
U+W
SciTegic.value.DoubleValue
11.252

@<SCITEGIC>MOL_PROPERTY
Grad RMS
SciTegic.value.DoubleValue
0.000000

@<SCITEGIC>MOL_PROPERTY
U
SciTegic.value.DoubleValue
13.420

@<SCITEGIC>MOL_PROPERTY
W
SciTegic.value.DoubleValue
-2.167

@<SCITEGIC>MOL_PROPERTY
W(PB)
SciTegic.value.DoubleValue
-4.325

@<SCITEGIC>MOL_PROPERTY
W(SA)
SciTegic.value.DoubleValue
2.157

@<SCITEGIC>MOL_PROPERTY
Valence
SciTegic.value.DoubleValue
18.609

@<SCITEGIC>MOL_PROPERTY
Coulomb
SciTegic.value.DoubleValue
-8.052

@<SCITEGIC>MOL_PROPERTY
VdW
SciTegic.value.DoubleValue
2.863

@<SCITEGIC>MOL_PROPERTY
VdW6
SciTegic.value.DoubleValue
-12.524

@<SCITEGIC>MOL_PROPERTY
VdW12
SciTegic.value.DoubleValue
15.387

@<SCITEGIC>MOL_PROPERTY
Bond
SciTegic.value.DoubleValue
0.430

@<SCITEGIC>MOL_PROPERTY
Angle
SciTegic.value.DoubleValue
4.724

@<SCITEGIC>MOL_PROPERTY
Pdih
SciTegic.value.DoubleValue
13.455

@<SCITEGIC>MOL_PROPERTY
Idih
SciTegic.value.DoubleValue
0.000

@<SCITEGIC>MOL_PROPERTY
Tether
SciTegic.value.DoubleValue
0.000

@<TRIPOS>MOLECULE
guest-s17_confgen4.mol2 : confsearch ligand conformer 441
          25          25           1
SMALL
USER_CHARGES
 
@<TRIPOS>ATOM
       1    C1      19.861038   20.871486   21.643875 C.3        1 MOL1        -0.1684
       2    H1      19.923054   20.761468   20.552825 H          1 MOL1         0.0833
       3    H2      19.517396   21.900801   21.814766 H          1 MOL1         0.0833
       4    C2      18.755277   19.930502   22.190373 C.3        1 MOL1        -0.1684
       5    H3      18.611741   20.123332   23.258247 H          1 MOL1         0.0833
       6    H4      17.802218   20.243337   21.742569 H          1 MOL1         0.0833
       7    C3      18.908928   18.405384   21.919040 C.3        1 MOL1        -0.1684
       8    H5      18.469726   18.200761   20.933248 H          1 MOL1         0.0833
       9    H6      18.289080   17.851761   22.637377 H          1 MOL1         0.0833
      10    C4      20.340227   17.802690   21.912088 C.3        1 MOL1        -0.1760
      11    H7      20.256875   16.763708   21.567317 H          1 MOL1         0.0833
      12    H8      20.927184   18.279864   21.122443 H          1 MOL1         0.0833
      13    C5      21.137097   17.798128   23.249729 C.3        1 MOL1         0.1219
      14    H9      22.207036   17.746925   23.001985 H          1 MOL1         0.0790
      15    C6      20.928853   18.991320   24.215890 C.3        1 MOL1        -0.1760
      16    H10     19.879998   19.021901   24.524901 H          1 MOL1         0.0833
      17    H11     21.465915   18.760676   25.145401 H          1 MOL1         0.0833
      18    C7      21.411032   20.398250   23.750750 C.3        1 MOL1        -0.1684
      19    H12     22.472899   20.486825   24.018016 H          1 MOL1         0.0833
      20    H13     20.895019   21.164630   24.344647 H          1 MOL1         0.0833
      21    C8      21.292225   20.753599   22.245326 C.3        1 MOL1        -0.1684
      22    H14     21.905221   20.061767   21.659169 H          1 MOL1         0.0833
      23    H15     21.785615   21.723448   22.094202 H          1 MOL1         0.0833
      24    O1      20.781923   16.619700   23.964811 O.3        1 MOL1        -0.5508
      25    H16     20.963149   15.862612   23.370492 H          1 MOL1         0.3780
@<TRIPOS>BOND
    1     1     2    1
    2     1     3    1
    3     1     4    1
    4     4     5    1
    5     4     6    1
    6     4     7    1
    7     7     8    1
    8     7     9    1
    9     7    10    1
   10    10    11    1
   11    10    12    1
   12    10    13    1
   13    13    14    1
   14    13    15    1
   15    15    16    1
   16    15    17    1
   17    15    18    1
   18    18    19    1
   19    18    20    1
   20     1    21    1
   21    18    21    1
   22    21    22    1
   23    21    23    1
   24    13    24    1
   25    24    25    1
@<TRIPOS>SUBSTRUCTURE
       1 MOL1            1 RESIDUE      1      MOL     
@<SCITEGIC>MOL_PROPERTY
VConf Rank
SciTegic.value.IntegerValue
441

@<SCITEGIC>MOL_PROPERTY
Conf_Id
SciTegic.value.IntegerValue
146

@<SCITEGIC>MOL_PROPERTY
Delta U+W
SciTegic.value.DoubleValue
2.553

@<SCITEGIC>MOL_PROPERTY
U+W
SciTegic.value.DoubleValue
13.466

@<SCITEGIC>MOL_PROPERTY
Grad RMS
SciTegic.value.DoubleValue
0.000000

@<SCITEGIC>MOL_PROPERTY
U
SciTegic.value.DoubleValue
15.643

@<SCITEGIC>MOL_PROPERTY
W
SciTegic.value.DoubleValue
-2.176

@<SCITEGIC>MOL_PROPERTY
W(PB)
SciTegic.value.DoubleValue
-4.307

@<SCITEGIC>MOL_PROPERTY
W(SA)
SciTegic.value.DoubleValue
2.131

@<SCITEGIC>MOL_PROPERTY
Valence
SciTegic.value.DoubleValue
18.916

@<SCITEGIC>MOL_PROPERTY
Coulomb
SciTegic.value.DoubleValue
-7.506

@<SCITEGIC>MOL_PROPERTY
VdW
SciTegic.value.DoubleValue
4.232

@<SCITEGIC>MOL_PROPERTY
VdW6
SciTegic.value.DoubleValue
-13.632

@<SCITEGIC>MOL_PROPERTY
VdW12
SciTegic.value.DoubleValue
17.864

@<SCITEGIC>MOL_PROPERTY
Bond
SciTegic.value.DoubleValue
0.735

@<SCITEGIC>MOL_PROPERTY
Angle
SciTegic.value.DoubleValue
9.140

@<SCITEGIC>MOL_PROPERTY
Pdih
SciTegic.value.DoubleValue
9.042

@<SCITEGIC>MOL_PROPERTY
Idih
SciTegic.value.DoubleValue
0.000

@<SCITEGIC>MOL_PROPERTY
Tether
SciTegic.value.DoubleValue
0.000

@<TRIPOS>MOLECULE
guest-s17_confgen4.mol2 : confsearch ligand conformer 442
          25          25           1
SMALL
USER_CHARGES
 
@<TRIPOS>ATOM
       1    C1      18.410932   18.998195   21.889322 C.3        1 MOL1        -0.1684
       2    H1      18.203831   18.359280   21.020184 H          1 MOL1         0.0833
       3    H2      17.439144   19.412867   22.190302 H          1 MOL1         0.0833
       4    C2      19.304087   20.185376   21.449986 C.3        1 MOL1        -0.1684
       5    H3      18.745194   20.750268   20.691476 H          1 MOL1         0.0833
       6    H4      19.434697   20.891088   22.278272 H          1 MOL1         0.0833
       7    C3      20.674687   19.815100   20.829718 C.3        1 MOL1        -0.1684
       8    H5      21.134331   20.743926   20.465039 H          1 MOL1         0.0833
       9    H6      20.514065   19.192696   19.939068 H          1 MOL1         0.0833
      10    C4      21.699278   19.111538   21.757574 C.3        1 MOL1        -0.1760
      11    H7      21.485328   18.039727   21.816873 H          1 MOL1         0.0833
      12    H8      22.677139   19.168757   21.260532 H          1 MOL1         0.0833
      13    C5      21.819221   19.713037   23.181613 C.3        1 MOL1         0.1219
      14    H9      21.427631   20.739147   23.182152 H          1 MOL1         0.0790
      15    C6      21.100998   18.889086   24.280259 C.3        1 MOL1        -0.1760
      16    H10     21.470785   17.855473   24.255345 H          1 MOL1         0.0833
      17    H11     21.404354   19.289075   25.256643 H          1 MOL1         0.0833
      18    C7      19.548428   18.879287   24.248098 C.3        1 MOL1        -0.1684
      19    H12     19.150785   19.900387   24.311603 H          1 MOL1         0.0833
      20    H13     19.212007   18.383229   25.168821 H          1 MOL1         0.0833
      21    C8      18.926923   18.112040   23.052461 C.3        1 MOL1        -0.1684
      22    H14     18.068044   17.537072   23.424990 H          1 MOL1         0.0833
      23    H15     19.622390   17.351661   22.679671 H          1 MOL1         0.0833
      24    O1      23.199348   19.763821   23.525153 O.3        1 MOL1        -0.5508
      25    H16     23.257469   20.199766   24.400821 H          1 MOL1         0.3780
@<TRIPOS>BOND
    1     1     2    1
    2     1     3    1
    3     1     4    1
    4     4     5    1
    5     4     6    1
    6     4     7    1
    7     7     8    1
    8     7     9    1
    9     7    10    1
   10    10    11    1
   11    10    12    1
   12    10    13    1
   13    13    14    1
   14    13    15    1
   15    15    16    1
   16    15    17    1
   17    15    18    1
   18    18    19    1
   19    18    20    1
   20     1    21    1
   21    18    21    1
   22    21    22    1
   23    21    23    1
   24    13    24    1
   25    24    25    1
@<TRIPOS>SUBSTRUCTURE
       1 MOL1            1 RESIDUE      1      MOL     
@<SCITEGIC>MOL_PROPERTY
VConf Rank
SciTegic.value.IntegerValue
442

@<SCITEGIC>MOL_PROPERTY
Conf_Id
SciTegic.value.IntegerValue
62

@<SCITEGIC>MOL_PROPERTY
Delta U+W
SciTegic.value.DoubleValue
-1.779

@<SCITEGIC>MOL_PROPERTY
U+W
SciTegic.value.DoubleValue
9.134

@<SCITEGIC>MOL_PROPERTY
Grad RMS
SciTegic.value.DoubleValue
0.000000

@<SCITEGIC>MOL_PROPERTY
U
SciTegic.value.DoubleValue
11.364

@<SCITEGIC>MOL_PROPERTY
W
SciTegic.value.DoubleValue
-2.230

@<SCITEGIC>MOL_PROPERTY
W(PB)
SciTegic.value.DoubleValue
-4.359

@<SCITEGIC>MOL_PROPERTY
W(SA)
SciTegic.value.DoubleValue
2.129

@<SCITEGIC>MOL_PROPERTY
Valence
SciTegic.value.DoubleValue
16.582

@<SCITEGIC>MOL_PROPERTY
Coulomb
SciTegic.value.DoubleValue
-8.150

@<SCITEGIC>MOL_PROPERTY
VdW
SciTegic.value.DoubleValue
2.933

@<SCITEGIC>MOL_PROPERTY
VdW6
SciTegic.value.DoubleValue
-12.531

@<SCITEGIC>MOL_PROPERTY
VdW12
SciTegic.value.DoubleValue
15.464

@<SCITEGIC>MOL_PROPERTY
Bond
SciTegic.value.DoubleValue
0.439

@<SCITEGIC>MOL_PROPERTY
Angle
SciTegic.value.DoubleValue
5.099

@<SCITEGIC>MOL_PROPERTY
Pdih
SciTegic.value.DoubleValue
11.044

@<SCITEGIC>MOL_PROPERTY
Idih
SciTegic.value.DoubleValue
0.000

@<SCITEGIC>MOL_PROPERTY
Tether
SciTegic.value.DoubleValue
0.000

@<TRIPOS>MOLECULE
guest-s17_confgen4.mol2 : confsearch ligand conformer 443
          25          25           1
SMALL
USER_CHARGES
 
@<TRIPOS>ATOM
       1    C1      20.744712   20.229330   21.160434 C.3        1 MOL1        -0.1684
       2    H1      21.302302   19.300037   20.997243 H          1 MOL1         0.0833
       3    H2      20.977965   20.849249   20.284116 H          1 MOL1         0.0833
       4    C2      21.286351   20.972471   22.407038 C.3        1 MOL1        -0.1684
       5    H3      22.346443   21.194227   22.222877 H          1 MOL1         0.0833
       6    H4      20.789337   21.948294   22.492136 H          1 MOL1         0.0833
       7    C3      21.185741   20.236417   23.767488 C.3        1 MOL1        -0.1684
       8    H5      20.188714   20.367553   24.203070 H          1 MOL1         0.0833
       9    H6      21.859957   20.752106   24.465000 H          1 MOL1         0.0833
      10    C4      21.574404   18.733941   23.738880 C.3        1 MOL1        -0.1760
      11    H7      22.245203   18.515828   22.898816 H          1 MOL1         0.0833
      12    H8      22.167128   18.535238   24.641399 H          1 MOL1         0.0833
      13    C5      20.377251   17.749996   23.747236 C.3        1 MOL1         0.1219
      14    H9      19.726880   18.005731   24.596117 H          1 MOL1         0.0790
      15    C6      19.505810   17.714794   22.466900 C.3        1 MOL1        -0.1760
      16    H10     20.118011   17.465351   21.591813 H          1 MOL1         0.0833
      17    H11     18.807188   16.875009   22.578698 H          1 MOL1         0.0833
      18    C7      18.659294   18.991120   22.213969 C.3        1 MOL1        -0.1684
      19    H12     18.479727   19.525517   23.153714 H          1 MOL1         0.0833
      20    H13     17.660152   18.679168   21.880275 H          1 MOL1         0.0833
      21    C8      19.220188   19.955417   21.137655 C.3        1 MOL1        -0.1684
      22    H14     18.678999   20.909409   21.196792 H          1 MOL1         0.0833
      23    H15     18.976305   19.536286   20.151891 H          1 MOL1         0.0833
      24    O1      20.895950   16.441087   23.947574 O.3        1 MOL1        -0.5508
      25    H16     21.388180   16.458157   24.794667 H          1 MOL1         0.3780
@<TRIPOS>BOND
    1     1     2    1
    2     1     3    1
    3     1     4    1
    4     4     5    1
    5     4     6    1
    6     4     7    1
    7     7     8    1
    8     7     9    1
    9     7    10    1
   10    10    11    1
   11    10    12    1
   12    10    13    1
   13    13    14    1
   14    13    15    1
   15    15    16    1
   16    15    17    1
   17    15    18    1
   18    18    19    1
   19    18    20    1
   20     1    21    1
   21    18    21    1
   22    21    22    1
   23    21    23    1
   24    13    24    1
   25    24    25    1
@<TRIPOS>SUBSTRUCTURE
       1 MOL1            1 RESIDUE      1      MOL     
@<SCITEGIC>MOL_PROPERTY
VConf Rank
SciTegic.value.IntegerValue
443

@<SCITEGIC>MOL_PROPERTY
Conf_Id
SciTegic.value.IntegerValue
121

@<SCITEGIC>MOL_PROPERTY
Delta U+W
SciTegic.value.DoubleValue
-1.283

@<SCITEGIC>MOL_PROPERTY
U+W
SciTegic.value.DoubleValue
9.630

@<SCITEGIC>MOL_PROPERTY
Grad RMS
SciTegic.value.DoubleValue
0.000000

@<SCITEGIC>MOL_PROPERTY
U
SciTegic.value.DoubleValue
11.876

@<SCITEGIC>MOL_PROPERTY
W
SciTegic.value.DoubleValue
-2.246

@<SCITEGIC>MOL_PROPERTY
W(PB)
SciTegic.value.DoubleValue
-4.376

@<SCITEGIC>MOL_PROPERTY
W(SA)
SciTegic.value.DoubleValue
2.130

@<SCITEGIC>MOL_PROPERTY
Valence
SciTegic.value.DoubleValue
17.153

@<SCITEGIC>MOL_PROPERTY
Coulomb
SciTegic.value.DoubleValue
-7.966

@<SCITEGIC>MOL_PROPERTY
VdW
SciTegic.value.DoubleValue
2.689

@<SCITEGIC>MOL_PROPERTY
VdW6
SciTegic.value.DoubleValue
-12.458

@<SCITEGIC>MOL_PROPERTY
VdW12
SciTegic.value.DoubleValue
15.147

@<SCITEGIC>MOL_PROPERTY
Bond
SciTegic.value.DoubleValue
0.421

@<SCITEGIC>MOL_PROPERTY
Angle
SciTegic.value.DoubleValue
5.258

@<SCITEGIC>MOL_PROPERTY
Pdih
SciTegic.value.DoubleValue
11.475

@<SCITEGIC>MOL_PROPERTY
Idih
SciTegic.value.DoubleValue
0.000

@<SCITEGIC>MOL_PROPERTY
Tether
SciTegic.value.DoubleValue
0.000

@<TRIPOS>MOLECULE
guest-s17_confgen4.mol2 : confsearch ligand conformer 444
          25          25           1
SMALL
USER_CHARGES
 
@<TRIPOS>ATOM
       1    C1      21.931318   19.649868   21.769143 C.3        1 MOL1        -0.1684
       2    H1      21.250200   19.313727   20.979073 H          1 MOL1         0.0833
       3    H2      22.862596   19.900418   21.243228 H          1 MOL1         0.0833
       4    C2      22.249837   18.484883   22.739235 C.3        1 MOL1        -0.1684
       5    H3      22.719554   17.685570   22.149873 H          1 MOL1         0.0833
       6    H4      23.012772   18.810333   23.459302 H          1 MOL1         0.0833
       7    C3      21.058949   17.864563   23.513775 C.3        1 MOL1        -0.1684
       8    H5      20.831272   18.455886   24.407893 H          1 MOL1         0.0833
       9    H6      21.396592   16.894897   23.904533 H          1 MOL1         0.0833
      10    C4      19.773793   17.628101   22.675901 C.3        1 MOL1        -0.1760
      11    H7      20.008663   17.529415   21.609184 H          1 MOL1         0.0833
      12    H8      19.364150   16.653305   22.972171 H          1 MOL1         0.0833
      13    C5      18.650630   18.673297   22.890340 C.3        1 MOL1         0.1219
      14    H9      18.449832   18.742406   23.969175 H          1 MOL1         0.0790
      15    C6      18.927034   20.101131   22.355292 C.3        1 MOL1        -0.1760
      16    H10     19.140245   20.073814   21.279631 H          1 MOL1         0.0833
      17    H11     17.994275   20.672252   22.450824 H          1 MOL1         0.0833
      18    C7      20.025138   20.885350   23.122415 C.3        1 MOL1        -0.1684
      19    H12     20.132757   20.498470   24.142089 H          1 MOL1         0.0833
      20    H13     19.678394   21.919208   23.256315 H          1 MOL1         0.0833
      21    C8      21.404216   20.953998   22.418037 C.3        1 MOL1        -0.1684
      22    H14     22.149926   21.331877   23.130510 H          1 MOL1         0.0833
      23    H15     21.339267   21.712472   21.625959 H          1 MOL1         0.0833
      24    O1      17.483783   18.186841   22.238992 O.3        1 MOL1        -0.5508
      25    H16     16.763371   18.820490   22.438103 H          1 MOL1         0.3780
@<TRIPOS>BOND
    1     1     2    1
    2     1     3    1
    3     1     4    1
    4     4     5    1
    5     4     6    1
    6     4     7    1
    7     7     8    1
    8     7     9    1
    9     7    10    1
   10    10    11    1
   11    10    12    1
   12    10    13    1
   13    13    14    1
   14    13    15    1
   15    15    16    1
   16    15    17    1
   17    15    18    1
   18    18    19    1
   19    18    20    1
   20     1    21    1
   21    18    21    1
   22    21    22    1
   23    21    23    1
   24    13    24    1
   25    24    25    1
@<TRIPOS>SUBSTRUCTURE
       1 MOL1            1 RESIDUE      1      MOL     
@<SCITEGIC>MOL_PROPERTY
VConf Rank
SciTegic.value.IntegerValue
444

@<SCITEGIC>MOL_PROPERTY
Conf_Id
SciTegic.value.IntegerValue
24

@<SCITEGIC>MOL_PROPERTY
Delta U+W
SciTegic.value.DoubleValue
-1.236

@<SCITEGIC>MOL_PROPERTY
U+W
SciTegic.value.DoubleValue
9.678

@<SCITEGIC>MOL_PROPERTY
Grad RMS
SciTegic.value.DoubleValue
0.000000

@<SCITEGIC>MOL_PROPERTY
U
SciTegic.value.DoubleValue
11.876

@<SCITEGIC>MOL_PROPERTY
W
SciTegic.value.DoubleValue
-2.199

@<SCITEGIC>MOL_PROPERTY
W(PB)
SciTegic.value.DoubleValue
-4.335

@<SCITEGIC>MOL_PROPERTY
W(SA)
SciTegic.value.DoubleValue
2.137

@<SCITEGIC>MOL_PROPERTY
Valence
SciTegic.value.DoubleValue
17.153

@<SCITEGIC>MOL_PROPERTY
Coulomb
SciTegic.value.DoubleValue
-7.966

@<SCITEGIC>MOL_PROPERTY
VdW
SciTegic.value.DoubleValue
2.689

@<SCITEGIC>MOL_PROPERTY
VdW6
SciTegic.value.DoubleValue
-12.458

@<SCITEGIC>MOL_PROPERTY
VdW12
SciTegic.value.DoubleValue
15.147

@<SCITEGIC>MOL_PROPERTY
Bond
SciTegic.value.DoubleValue
0.421

@<SCITEGIC>MOL_PROPERTY
Angle
SciTegic.value.DoubleValue
5.258

@<SCITEGIC>MOL_PROPERTY
Pdih
SciTegic.value.DoubleValue
11.475

@<SCITEGIC>MOL_PROPERTY
Idih
SciTegic.value.DoubleValue
0.000

@<SCITEGIC>MOL_PROPERTY
Tether
SciTegic.value.DoubleValue
0.000

@<TRIPOS>MOLECULE
guest-s17_confgen4.mol2 : confsearch ligand conformer 445
          25          25           1
SMALL
USER_CHARGES
 
@<TRIPOS>ATOM
       1    C1      19.435578   21.079774   22.054416 C.3        1 MOL1        -0.1684
       2    H1      18.402717   21.196462   21.698948 H          1 MOL1         0.0833
       3    H2      19.894878   22.073616   21.963998 H          1 MOL1         0.0833
       4    C2      19.408657   20.701459   23.559193 C.3        1 MOL1        -0.1684
       5    H3      20.384007   20.894328   24.023724 H          1 MOL1         0.0833
       6    H4      18.721140   21.402133   24.052593 H          1 MOL1         0.0833
       7    C3      18.940168   19.262818   23.890085 C.3        1 MOL1        -0.1684
       8    H5      18.166563   18.932349   23.183840 H          1 MOL1         0.0833
       9    H6      18.441464   19.307043   24.868115 H          1 MOL1         0.0833
      10    C4      20.077376   18.209233   24.011097 C.3        1 MOL1        -0.1760
      11    H7      20.971909   18.650992   24.468413 H          1 MOL1         0.0833
      12    H8      19.726592   17.450271   24.723753 H          1 MOL1         0.0833
      13    C5      20.442313   17.486050   22.691663 C.3        1 MOL1         0.1219
      14    H9      19.550560   17.456986   22.051657 H          1 MOL1         0.0790
      15    C6      21.621417   18.105274   21.899148 C.3        1 MOL1        -0.1760
      16    H10     22.562436   17.899442   22.425919 H          1 MOL1         0.0833
      17    H11     21.690862   17.576439   20.939391 H          1 MOL1         0.0833
      18    C7      21.550029   19.626462   21.613612 C.3        1 MOL1        -0.1684
      19    H12     22.312148   19.867706   20.860130 H          1 MOL1         0.0833
      20    H13     21.853634   20.184915   22.506723 H          1 MOL1         0.0833
      21    C8      20.170783   20.109211   21.097873 C.3        1 MOL1        -0.1684
      22    H14     19.518334   19.260630   20.861492 H          1 MOL1         0.0833
      23    H15     20.315397   20.624097   20.138263 H          1 MOL1         0.0833
      24    O1      20.800621   16.145288   23.000987 O.3        1 MOL1        -0.5508
      25    H16     21.583280   16.195945   23.587375 H          1 MOL1         0.3780
@<TRIPOS>BOND
    1     1     2    1
    2     1     3    1
    3     1     4    1
    4     4     5    1
    5     4     6    1
    6     4     7    1
    7     7     8    1
    8     7     9    1
    9     7    10    1
   10    10    11    1
   11    10    12    1
   12    10    13    1
   13    13    14    1
   14    13    15    1
   15    15    16    1
   16    15    17    1
   17    15    18    1
   18    18    19    1
   19    18    20    1
   20     1    21    1
   21    18    21    1
   22    21    22    1
   23    21    23    1
   24    13    24    1
   25    24    25    1
@<TRIPOS>SUBSTRUCTURE
       1 MOL1            1 RESIDUE      1      MOL     
@<SCITEGIC>MOL_PROPERTY
VConf Rank
SciTegic.value.IntegerValue
445

@<SCITEGIC>MOL_PROPERTY
Conf_Id
SciTegic.value.IntegerValue
167

@<SCITEGIC>MOL_PROPERTY
Delta U+W
SciTegic.value.DoubleValue
0.388

@<SCITEGIC>MOL_PROPERTY
U+W
SciTegic.value.DoubleValue
11.301

@<SCITEGIC>MOL_PROPERTY
Grad RMS
SciTegic.value.DoubleValue
0.000000

@<SCITEGIC>MOL_PROPERTY
U
SciTegic.value.DoubleValue
13.202

@<SCITEGIC>MOL_PROPERTY
W
SciTegic.value.DoubleValue
-1.901

@<SCITEGIC>MOL_PROPERTY
W(PB)
SciTegic.value.DoubleValue
-4.065

@<SCITEGIC>MOL_PROPERTY
W(SA)
SciTegic.value.DoubleValue
2.163

@<SCITEGIC>MOL_PROPERTY
Valence
SciTegic.value.DoubleValue
18.957

@<SCITEGIC>MOL_PROPERTY
Coulomb
SciTegic.value.DoubleValue
-8.753

@<SCITEGIC>MOL_PROPERTY
VdW
SciTegic.value.DoubleValue
2.998

@<SCITEGIC>MOL_PROPERTY
VdW6
SciTegic.value.DoubleValue
-12.294

@<SCITEGIC>MOL_PROPERTY
VdW12
SciTegic.value.DoubleValue
15.292

@<SCITEGIC>MOL_PROPERTY
Bond
SciTegic.value.DoubleValue
0.419

@<SCITEGIC>MOL_PROPERTY
Angle
SciTegic.value.DoubleValue
4.543

@<SCITEGIC>MOL_PROPERTY
Pdih
SciTegic.value.DoubleValue
13.996

@<SCITEGIC>MOL_PROPERTY
Idih
SciTegic.value.DoubleValue
0.000

@<SCITEGIC>MOL_PROPERTY
Tether
SciTegic.value.DoubleValue
0.000

@<TRIPOS>MOLECULE
guest-s17_confgen4.mol2 : confsearch ligand conformer 446
          25          25           1
SMALL
USER_CHARGES
 
@<TRIPOS>ATOM
       1    C1      20.018438   18.041415   20.998464 C.3        1 MOL1        -0.1684
       2    H1      20.467861   17.041516   20.929739 H          1 MOL1         0.0833
       3    H2      19.436543   18.168302   20.075308 H          1 MOL1         0.0833
       4    C2      21.149981   19.102017   20.992185 C.3        1 MOL1        -0.1684
       5    H3      21.993868   18.770553   21.607644 H          1 MOL1         0.0833
       6    H4      21.554074   19.135454   19.971095 H          1 MOL1         0.0833
       7    C3      20.719656   20.538636   21.386886 C.3        1 MOL1        -0.1684
       8    H5      19.653356   20.701119   21.183483 H          1 MOL1         0.0833
       9    H6      21.247786   21.235822   20.722120 H          1 MOL1         0.0833
      10    C4      21.071232   20.947697   22.843359 C.3        1 MOL1        -0.1760
      11    H7      22.148256   20.815204   23.009814 H          1 MOL1         0.0833
      12    H8      20.887807   22.026313   22.936788 H          1 MOL1         0.0833
      13    C5      20.289342   20.238896   23.977227 C.3        1 MOL1         0.1219
      14    H9      19.212139   20.344582   23.791163 H          1 MOL1         0.0790
      15    C6      20.647387   18.740262   24.152226 C.3        1 MOL1        -0.1760
      16    H10     21.635872   18.537312   23.727983 H          1 MOL1         0.0833
      17    H11     20.758253   18.512510   25.220768 H          1 MOL1         0.0833
      18    C7      19.604308   17.746146   23.579090 C.3        1 MOL1        -0.1684
      19    H12     18.764733   17.692980   24.285654 H          1 MOL1         0.0833
      20    H13     20.043304   16.739395   23.562137 H          1 MOL1         0.0833
      21    C8      19.018992   18.072452   22.182022 C.3        1 MOL1        -0.1684
      22    H14     18.482692   19.028022   22.202432 H          1 MOL1         0.0833
      23    H15     18.242200   17.324631   21.971834 H          1 MOL1         0.0833
      24    O1      20.597703   20.914793   25.190586 O.3        1 MOL1        -0.5508
      25    H16     20.046228   20.503815   25.888790 H          1 MOL1         0.3780
@<TRIPOS>BOND
    1     1     2    1
    2     1     3    1
    3     1     4    1
    4     4     5    1
    5     4     6    1
    6     4     7    1
    7     7     8    1
    8     7     9    1
    9     7    10    1
   10    10    11    1
   11    10    12    1
   12    10    13    1
   13    13    14    1
   14    13    15    1
   15    15    16    1
   16    15    17    1
   17    15    18    1
   18    18    19    1
   19    18    20    1
   20     1    21    1
   21    18    21    1
   22    21    22    1
   23    21    23    1
   24    13    24    1
   25    24    25    1
@<TRIPOS>SUBSTRUCTURE
       1 MOL1            1 RESIDUE      1      MOL     
@<SCITEGIC>MOL_PROPERTY
VConf Rank
SciTegic.value.IntegerValue
446

@<SCITEGIC>MOL_PROPERTY
Conf_Id
SciTegic.value.IntegerValue
60

@<SCITEGIC>MOL_PROPERTY
Delta U+W
SciTegic.value.DoubleValue
-1.838

@<SCITEGIC>MOL_PROPERTY
U+W
SciTegic.value.DoubleValue
9.075

@<SCITEGIC>MOL_PROPERTY
Grad RMS
SciTegic.value.DoubleValue
0.000000

@<SCITEGIC>MOL_PROPERTY
U
SciTegic.value.DoubleValue
11.150

@<SCITEGIC>MOL_PROPERTY
W
SciTegic.value.DoubleValue
-2.074

@<SCITEGIC>MOL_PROPERTY
W(PB)
SciTegic.value.DoubleValue
-4.196

@<SCITEGIC>MOL_PROPERTY
W(SA)
SciTegic.value.DoubleValue
2.121

@<SCITEGIC>MOL_PROPERTY
Valence
SciTegic.value.DoubleValue
16.582

@<SCITEGIC>MOL_PROPERTY
Coulomb
SciTegic.value.DoubleValue
-8.361

@<SCITEGIC>MOL_PROPERTY
VdW
SciTegic.value.DoubleValue
2.928

@<SCITEGIC>MOL_PROPERTY
VdW6
SciTegic.value.DoubleValue
-12.539

@<SCITEGIC>MOL_PROPERTY
VdW12
SciTegic.value.DoubleValue
15.467

@<SCITEGIC>MOL_PROPERTY
Bond
SciTegic.value.DoubleValue
0.441

@<SCITEGIC>MOL_PROPERTY
Angle
SciTegic.value.DoubleValue
5.093

@<SCITEGIC>MOL_PROPERTY
Pdih
SciTegic.value.DoubleValue
11.049

@<SCITEGIC>MOL_PROPERTY
Idih
SciTegic.value.DoubleValue
0.000

@<SCITEGIC>MOL_PROPERTY
Tether
SciTegic.value.DoubleValue
0.000

@<TRIPOS>MOLECULE
guest-s17_confgen4.mol2 : confsearch ligand conformer 447
          25          25           1
SMALL
USER_CHARGES
 
@<TRIPOS>ATOM
       1    C1      22.282279   19.381797   22.037480 C.3        1 MOL1        -0.1684
       2    H1      22.710032   18.714768   21.276819 H          1 MOL1         0.0833
       3    H2      23.100511   20.050116   22.338750 H          1 MOL1         0.0833
       4    C2      21.884359   18.549162   23.282085 C.3        1 MOL1        -0.1684
       5    H3      22.800254   18.079472   23.665946 H          1 MOL1         0.0833
       6    H4      21.553490   19.209389   24.091885 H          1 MOL1         0.0833
       7    C3      20.852586   17.417619   23.045601 C.3        1 MOL1        -0.1684
       8    H5      20.762554   16.850557   23.982232 H          1 MOL1         0.0833
       9    H6      21.253118   16.710348   22.306755 H          1 MOL1         0.0833
      10    C4      19.427768   17.847388   22.609767 C.3        1 MOL1        -0.1760
      11    H7      19.405613   18.046472   21.533594 H          1 MOL1         0.0833
      12    H8      18.773233   16.975034   22.738316 H          1 MOL1         0.0833
      13    C5      18.840611   19.053658   23.387510 C.3        1 MOL1         0.1219
      14    H9      19.378858   19.182033   24.336174 H          1 MOL1         0.0790
      15    C6      18.872572   20.388490   22.602267 C.3        1 MOL1        -0.1760
      16    H10     18.363410   20.253208   21.639098 H          1 MOL1         0.0833
      17    H11     18.266106   21.115891   23.158028 H          1 MOL1         0.0833
      18    C7      20.267340   21.028732   22.363602 C.3        1 MOL1        -0.1684
      19    H12     20.780012   21.211629   23.316747 H          1 MOL1         0.0833
      20    H13     20.093163   22.025547   21.935900 H          1 MOL1         0.0833
      21    C8      21.180324   20.252404   21.379416 C.3        1 MOL1        -0.1684
      22    H14     21.689132   20.984064   20.736905 H          1 MOL1         0.0833
      23    H15     20.577952   19.654563   20.686208 H          1 MOL1         0.0833
      24    O1      17.478604   18.770564   23.685769 O.3        1 MOL1        -0.5508
      25    H16     17.474833   17.962782   24.240738 H          1 MOL1         0.3780
@<TRIPOS>BOND
    1     1     2    1
    2     1     3    1
    3     1     4    1
    4     4     5    1
    5     4     6    1
    6     4     7    1
    7     7     8    1
    8     7     9    1
    9     7    10    1
   10    10    11    1
   11    10    12    1
   12    10    13    1
   13    13    14    1
   14    13    15    1
   15    15    16    1
   16    15    17    1
   17    15    18    1
   18    18    19    1
   19    18    20    1
   20     1    21    1
   21    18    21    1
   22    21    22    1
   23    21    23    1
   24    13    24    1
   25    24    25    1
@<TRIPOS>SUBSTRUCTURE
       1 MOL1            1 RESIDUE      1      MOL     
@<SCITEGIC>MOL_PROPERTY
VConf Rank
SciTegic.value.IntegerValue
447

@<SCITEGIC>MOL_PROPERTY
Conf_Id
SciTegic.value.IntegerValue
129

@<SCITEGIC>MOL_PROPERTY
Delta U+W
SciTegic.value.DoubleValue
-1.846

@<SCITEGIC>MOL_PROPERTY
U+W
SciTegic.value.DoubleValue
9.067

@<SCITEGIC>MOL_PROPERTY
Grad RMS
SciTegic.value.DoubleValue
0.000000

@<SCITEGIC>MOL_PROPERTY
U
SciTegic.value.DoubleValue
11.150

@<SCITEGIC>MOL_PROPERTY
W
SciTegic.value.DoubleValue
-2.083

@<SCITEGIC>MOL_PROPERTY
W(PB)
SciTegic.value.DoubleValue
-4.217

@<SCITEGIC>MOL_PROPERTY
W(SA)
SciTegic.value.DoubleValue
2.134

@<SCITEGIC>MOL_PROPERTY
Valence
SciTegic.value.DoubleValue
16.583

@<SCITEGIC>MOL_PROPERTY
Coulomb
SciTegic.value.DoubleValue
-8.361

@<SCITEGIC>MOL_PROPERTY
VdW
SciTegic.value.DoubleValue
2.928

@<SCITEGIC>MOL_PROPERTY
VdW6
SciTegic.value.DoubleValue
-12.539

@<SCITEGIC>MOL_PROPERTY
VdW12
SciTegic.value.DoubleValue
15.467

@<SCITEGIC>MOL_PROPERTY
Bond
SciTegic.value.DoubleValue
0.441

@<SCITEGIC>MOL_PROPERTY
Angle
SciTegic.value.DoubleValue
5.093

@<SCITEGIC>MOL_PROPERTY
Pdih
SciTegic.value.DoubleValue
11.049

@<SCITEGIC>MOL_PROPERTY
Idih
SciTegic.value.DoubleValue
0.000

@<SCITEGIC>MOL_PROPERTY
Tether
SciTegic.value.DoubleValue
0.000

@<TRIPOS>MOLECULE
guest-s17_confgen4.mol2 : confsearch ligand conformer 448
          25          25           1
SMALL
USER_CHARGES
 
@<TRIPOS>ATOM
       1    C1      18.253249   18.991105   22.247667 C.3        1 MOL1        -0.1684
       2    H1      17.782223   17.998965   22.264941 H          1 MOL1         0.0833
       3    H2      17.447859   19.696973   22.002686 H          1 MOL1         0.0833
       4    C2      19.284388   19.047719   21.092780 C.3        1 MOL1        -0.1684
       5    H3      18.735050   18.876291   20.157021 H          1 MOL1         0.0833
       6    H4      19.689467   20.061157   20.992511 H          1 MOL1         0.0833
       7    C3      20.430771   18.007117   21.149510 C.3        1 MOL1        -0.1684
       8    H5      21.003476   18.095329   20.216086 H          1 MOL1         0.0833
       9    H6      20.003313   16.995327   21.142003 H          1 MOL1         0.0833
      10    C4      21.428637   18.123589   22.331023 C.3        1 MOL1        -0.1760
      11    H7      21.010875   17.651516   23.226098 H          1 MOL1         0.0833
      12    H8      22.301060   17.507447   22.074384 H          1 MOL1         0.0833
      13    C5      21.898540   19.565721   22.653543 C.3        1 MOL1         0.1219
      14    H9      21.730235   20.213244   21.782763 H          1 MOL1         0.0790
      15    C6      21.218805   20.194015   23.896164 C.3        1 MOL1        -0.1760
      16    H10     21.359062   19.534218   24.762311 H          1 MOL1         0.0833
      17    H11     21.756442   21.120831   24.137394 H          1 MOL1         0.0833
      18    C7      19.713338   20.551364   23.766199 C.3        1 MOL1        -0.1684
      19    H12     19.548365   21.245973   22.932475 H          1 MOL1         0.0833
      20    H13     19.438827   21.115901   24.667813 H          1 MOL1         0.0833
      21    C8      18.761354   19.330898   23.672736 C.3        1 MOL1        -0.1684
      22    H14     17.876229   19.540293   24.288981 H          1 MOL1         0.0833
      23    H15     19.216585   18.450721   24.140552 H          1 MOL1         0.0833
      24    O1      23.296815   19.530454   22.909958 O.3        1 MOL1        -0.5508
      25    H16     23.420407   18.952246   23.690563 H          1 MOL1         0.3780
@<TRIPOS>BOND
    1     1     2    1
    2     1     3    1
    3     1     4    1
    4     4     5    1
    5     4     6    1
    6     4     7    1
    7     7     8    1
    8     7     9    1
    9     7    10    1
   10    10    11    1
   11    10    12    1
   12    10    13    1
   13    13    14    1
   14    13    15    1
   15    15    16    1
   16    15    17    1
   17    15    18    1
   18    18    19    1
   19    18    20    1
   20     1    21    1
   21    18    21    1
   22    21    22    1
   23    21    23    1
   24    13    24    1
   25    24    25    1
@<TRIPOS>SUBSTRUCTURE
       1 MOL1            1 RESIDUE      1      MOL     
@<SCITEGIC>MOL_PROPERTY
VConf Rank
SciTegic.value.IntegerValue
448

@<SCITEGIC>MOL_PROPERTY
Conf_Id
SciTegic.value.IntegerValue
140

@<SCITEGIC>MOL_PROPERTY
Delta U+W
SciTegic.value.DoubleValue
-1.702

@<SCITEGIC>MOL_PROPERTY
U+W
SciTegic.value.DoubleValue
9.211

@<SCITEGIC>MOL_PROPERTY
Grad RMS
SciTegic.value.DoubleValue
0.000000

@<SCITEGIC>MOL_PROPERTY
U
SciTegic.value.DoubleValue
11.181

@<SCITEGIC>MOL_PROPERTY
W
SciTegic.value.DoubleValue
-1.969

@<SCITEGIC>MOL_PROPERTY
W(PB)
SciTegic.value.DoubleValue
-4.093

@<SCITEGIC>MOL_PROPERTY
W(SA)
SciTegic.value.DoubleValue
2.124

@<SCITEGIC>MOL_PROPERTY
Valence
SciTegic.value.DoubleValue
16.954

@<SCITEGIC>MOL_PROPERTY
Coulomb
SciTegic.value.DoubleValue
-8.661

@<SCITEGIC>MOL_PROPERTY
VdW
SciTegic.value.DoubleValue
2.887

@<SCITEGIC>MOL_PROPERTY
VdW6
SciTegic.value.DoubleValue
-12.561

@<SCITEGIC>MOL_PROPERTY
VdW12
SciTegic.value.DoubleValue
15.448

@<SCITEGIC>MOL_PROPERTY
Bond
SciTegic.value.DoubleValue
0.433

@<SCITEGIC>MOL_PROPERTY
Angle
SciTegic.value.DoubleValue
5.120

@<SCITEGIC>MOL_PROPERTY
Pdih
SciTegic.value.DoubleValue
11.401

@<SCITEGIC>MOL_PROPERTY
Idih
SciTegic.value.DoubleValue
0.000

@<SCITEGIC>MOL_PROPERTY
Tether
SciTegic.value.DoubleValue
0.000

@<TRIPOS>MOLECULE
guest-s17_confgen4.mol2 : confsearch ligand conformer 449
          25          25           1
SMALL
USER_CHARGES
 
@<TRIPOS>ATOM
       1    C1      19.990258   20.353557   20.977357 C.3        1 MOL1        -0.1684
       2    H1      20.833296   20.867103   20.495626 H          1 MOL1         0.0833
       3    H2      19.102311   20.628859   20.391969 H          1 MOL1         0.0833
       4    C2      19.807061   20.922066   22.408331 C.3        1 MOL1        -0.1684
       5    H3      20.779175   21.076611   22.889905 H          1 MOL1         0.0833
       6    H4      19.391205   21.933450   22.302412 H          1 MOL1         0.0833
       7    C3      18.864630   20.107803   23.332098 C.3        1 MOL1        -0.1684
       8    H5      18.139902   19.528587   22.745519 H          1 MOL1         0.0833
       9    H6      18.261339   20.826115   23.903964 H          1 MOL1         0.0833
      10    C4      19.588614   19.201229   24.364078 C.3        1 MOL1        -0.1760
      11    H7      20.273902   19.814201   24.963962 H          1 MOL1         0.0833
      12    H8      18.828872   18.830641   25.065286 H          1 MOL1         0.0833
      13    C5      20.350404   17.973702   23.803947 C.3        1 MOL1         0.1219
      14    H9      19.669943   17.379375   23.179751 H          1 MOL1         0.0790
      15    C6      21.624951   18.329212   22.995421 C.3        1 MOL1        -0.1760
      16    H10     21.989384   19.321938   23.278655 H          1 MOL1         0.0833
      17    H11     22.436139   17.644978   23.278994 H          1 MOL1         0.0833
      18    C7      21.472767   18.234619   21.454913 C.3        1 MOL1        -0.1684
      19    H12     21.518251   17.172566   21.177375 H          1 MOL1         0.0833
      20    H13     22.345409   18.703842   20.980757 H          1 MOL1         0.0833
      21    C8      20.177999   18.821919   20.839346 C.3        1 MOL1        -0.1684
      22    H14     19.296747   18.293741   21.220956 H          1 MOL1         0.0833
      23    H15     20.194366   18.591283   19.765407 H          1 MOL1         0.0833
      24    O1      20.737395   17.174331   24.914533 O.3        1 MOL1        -0.5508
      25    H16     21.338423   17.725885   25.456285 H          1 MOL1         0.3780
@<TRIPOS>BOND
    1     1     2    1
    2     1     3    1
    3     1     4    1
    4     4     5    1
    5     4     6    1
    6     4     7    1
    7     7     8    1
    8     7     9    1
    9     7    10    1
   10    10    11    1
   11    10    12    1
   12    10    13    1
   13    13    14    1
   14    13    15    1
   15    15    16    1
   16    15    17    1
   17    15    18    1
   18    18    19    1
   19    18    20    1
   20     1    21    1
   21    18    21    1
   22    21    22    1
   23    21    23    1
   24    13    24    1
   25    24    25    1
@<TRIPOS>SUBSTRUCTURE
       1 MOL1            1 RESIDUE      1      MOL     
@<SCITEGIC>MOL_PROPERTY
VConf Rank
SciTegic.value.IntegerValue
449

@<SCITEGIC>MOL_PROPERTY
Conf_Id
SciTegic.value.IntegerValue
68

@<SCITEGIC>MOL_PROPERTY
Delta U+W
SciTegic.value.DoubleValue
-1.765

@<SCITEGIC>MOL_PROPERTY
U+W
SciTegic.value.DoubleValue
9.148

@<SCITEGIC>MOL_PROPERTY
Grad RMS
SciTegic.value.DoubleValue
0.000000

@<SCITEGIC>MOL_PROPERTY
U
SciTegic.value.DoubleValue
11.181

@<SCITEGIC>MOL_PROPERTY
W
SciTegic.value.DoubleValue
-2.032

@<SCITEGIC>MOL_PROPERTY
W(PB)
SciTegic.value.DoubleValue
-4.147

@<SCITEGIC>MOL_PROPERTY
W(SA)
SciTegic.value.DoubleValue
2.114

@<SCITEGIC>MOL_PROPERTY
Valence
SciTegic.value.DoubleValue
16.955

@<SCITEGIC>MOL_PROPERTY
Coulomb
SciTegic.value.DoubleValue
-8.661

@<SCITEGIC>MOL_PROPERTY
VdW
SciTegic.value.DoubleValue
2.887

@<SCITEGIC>MOL_PROPERTY
VdW6
SciTegic.value.DoubleValue
-12.561

@<SCITEGIC>MOL_PROPERTY
VdW12
SciTegic.value.DoubleValue
15.448

@<SCITEGIC>MOL_PROPERTY
Bond
SciTegic.value.DoubleValue
0.433

@<SCITEGIC>MOL_PROPERTY
Angle
SciTegic.value.DoubleValue
5.121

@<SCITEGIC>MOL_PROPERTY
Pdih
SciTegic.value.DoubleValue
11.402

@<SCITEGIC>MOL_PROPERTY
Idih
SciTegic.value.DoubleValue
0.000

@<SCITEGIC>MOL_PROPERTY
Tether
SciTegic.value.DoubleValue
0.000

@<TRIPOS>MOLECULE
guest-s17_confgen4.mol2 : confsearch ligand conformer 450
          25          25           1
SMALL
USER_CHARGES
 
@<TRIPOS>ATOM
       1    C1      19.760276   20.444539   21.362264 C.3        1 MOL1        -0.1684
       2    H1      19.566439   21.137799   20.532268 H          1 MOL1         0.0833
       3    H2      19.216582   20.877224   22.209655 H          1 MOL1         0.0833
       4    C2      21.286376   20.439728   21.638488 C.3        1 MOL1        -0.1684
       5    H3      21.781821   19.616036   21.108695 H          1 MOL1         0.0833
       6    H4      21.704407   21.355140   21.197705 H          1 MOL1         0.0833
       7    C3      21.676281   20.441971   23.140011 C.3        1 MOL1        -0.1684
       8    H5      21.206866   21.302012   23.637055 H          1 MOL1         0.0833
       9    H6      22.758440   20.620160   23.203369 H          1 MOL1         0.0833
      10    C4      21.362524   19.151631   23.943214 C.3        1 MOL1        -0.1760
      11    H7      21.848242   18.285275   23.478388 H          1 MOL1         0.0833
      12    H8      21.847658   19.263143   24.922408 H          1 MOL1         0.0833
      13    C5      19.851318   18.885529   24.167565 C.3        1 MOL1         0.1219
      14    H9      19.298679   19.821377   24.025006 H          1 MOL1         0.0790
      15    C6      19.242630   17.792289   23.255223 C.3        1 MOL1        -0.1760
      16    H10     19.539157   16.809181   23.644000 H          1 MOL1         0.0833
      17    H11     18.149465   17.834172   23.346442 H          1 MOL1         0.0833
      18    C7      19.624771   17.830086   21.753024 C.3        1 MOL1        -0.1684
      19    H12     19.171416   16.949383   21.278099 H          1 MOL1         0.0833
      20    H13     20.704165   17.686408   21.628232 H          1 MOL1         0.0833
      21    C8      19.152442   19.075259   20.961452 C.3        1 MOL1        -0.1684
      22    H14     18.057209   19.143312   21.010663 H          1 MOL1         0.0833
      23    H15     19.390852   18.900515   19.903329 H          1 MOL1         0.0833
      24    O1      19.659202   18.473312   25.515100 O.3        1 MOL1        -0.5508
      25    H16     20.173379   17.647652   25.628224 H          1 MOL1         0.3780
@<TRIPOS>BOND
    1     1     2    1
    2     1     3    1
    3     1     4    1
    4     4     5    1
    5     4     6    1
    6     4     7    1
    7     7     8    1
    8     7     9    1
    9     7    10    1
   10    10    11    1
   11    10    12    1
   12    10    13    1
   13    13    14    1
   14    13    15    1
   15    15    16    1
   16    15    17    1
   17    15    18    1
   18    18    19    1
   19    18    20    1
   20     1    21    1
   21    18    21    1
   22    21    22    1
   23    21    23    1
   24    13    24    1
   25    24    25    1
@<TRIPOS>SUBSTRUCTURE
       1 MOL1            1 RESIDUE      1      MOL     
@<SCITEGIC>MOL_PROPERTY
VConf Rank
SciTegic.value.IntegerValue
450

@<SCITEGIC>MOL_PROPERTY
Conf_Id
SciTegic.value.IntegerValue
165

@<SCITEGIC>MOL_PROPERTY
Delta U+W
SciTegic.value.DoubleValue
-1.999

@<SCITEGIC>MOL_PROPERTY
U+W
SciTegic.value.DoubleValue
8.915

@<SCITEGIC>MOL_PROPERTY
Grad RMS
SciTegic.value.DoubleValue
0.000000

@<SCITEGIC>MOL_PROPERTY
U
SciTegic.value.DoubleValue
10.935

@<SCITEGIC>MOL_PROPERTY
W
SciTegic.value.DoubleValue
-2.020

@<SCITEGIC>MOL_PROPERTY
W(PB)
SciTegic.value.DoubleValue
-4.135

@<SCITEGIC>MOL_PROPERTY
W(SA)
SciTegic.value.DoubleValue
2.115

@<SCITEGIC>MOL_PROPERTY
Valence
SciTegic.value.DoubleValue
16.757

@<SCITEGIC>MOL_PROPERTY
Coulomb
SciTegic.value.DoubleValue
-8.731

@<SCITEGIC>MOL_PROPERTY
VdW
SciTegic.value.DoubleValue
2.908

@<SCITEGIC>MOL_PROPERTY
VdW6
SciTegic.value.DoubleValue
-12.597

@<SCITEGIC>MOL_PROPERTY
VdW12
SciTegic.value.DoubleValue
15.506

@<SCITEGIC>MOL_PROPERTY
Bond
SciTegic.value.DoubleValue
0.434

@<SCITEGIC>MOL_PROPERTY
Angle
SciTegic.value.DoubleValue
5.069

@<SCITEGIC>MOL_PROPERTY
Pdih
SciTegic.value.DoubleValue
11.254

@<SCITEGIC>MOL_PROPERTY
Idih
SciTegic.value.DoubleValue
0.000

@<SCITEGIC>MOL_PROPERTY
Tether
SciTegic.value.DoubleValue
0.000

@<TRIPOS>MOLECULE
guest-s17_confgen4.mol2 : confsearch ligand conformer 451
          25          25           1
SMALL
USER_CHARGES
 
@<TRIPOS>ATOM
       1    C1      21.944689   18.408431   22.972155 C.3        1 MOL1        -0.1684
       2    H1      22.922426   17.917912   23.074655 H          1 MOL1         0.0833
       3    H2      21.832565   18.985207   23.897120 H          1 MOL1         0.0833
       4    C2      20.879152   17.284240   22.892948 C.3        1 MOL1        -0.1684
       5    H3      21.277870   16.491121   22.245651 H          1 MOL1         0.0833
       6    H4      20.767879   16.827652   23.885779 H          1 MOL1         0.0833
       7    C3      19.481618   17.667860   22.345156 C.3        1 MOL1        -0.1684
       8    H5      18.894853   16.742405   22.268089 H          1 MOL1         0.0833
       9    H6      19.563011   18.029922   21.313856 H          1 MOL1         0.0833
      10    C4      18.662068   18.663543   23.205960 C.3        1 MOL1        -0.1760
      11    H7      17.666442   18.749953   22.750136 H          1 MOL1         0.0833
      12    H8      18.503057   18.225536   24.199732 H          1 MOL1         0.0833
      13    C5      19.239779   20.089683   23.379554 C.3        1 MOL1         0.1219
      14    H9      20.044796   20.065781   24.123353 H          1 MOL1         0.0790
      15    C6      19.778508   20.731936   22.075152 C.3        1 MOL1        -0.1760
      16    H10     19.320463   20.268125   21.193567 H          1 MOL1         0.0833
      17    H11     19.455327   21.781337   22.046124 H          1 MOL1         0.0833
      18    C7      21.325338   20.732222   21.947449 C.3        1 MOL1        -0.1684
      19    H12     21.761664   21.228892   22.824903 H          1 MOL1         0.0833
      20    H13     21.589491   21.365201   21.089350 H          1 MOL1         0.0833
      21    C8      22.007531   19.353758   21.744179 C.3        1 MOL1        -0.1684
      22    H14     23.067619   19.549289   21.532065 H          1 MOL1         0.0833
      23    H15     21.623084   18.858248   20.843469 H          1 MOL1         0.0833
      24    O1      18.197091   20.912262   23.891100 O.3        1 MOL1        -0.5508
      25    H16     17.907219   20.508075   24.735521 H          1 MOL1         0.3780
@<TRIPOS>BOND
    1     1     2    1
    2     1     3    1
    3     1     4    1
    4     4     5    1
    5     4     6    1
    6     4     7    1
    7     7     8    1
    8     7     9    1
    9     7    10    1
   10    10    11    1
   11    10    12    1
   12    10    13    1
   13    13    14    1
   14    13    15    1
   15    15    16    1
   16    15    17    1
   17    15    18    1
   18    18    19    1
   19    18    20    1
   20     1    21    1
   21    18    21    1
   22    21    22    1
   23    21    23    1
   24    13    24    1
   25    24    25    1
@<TRIPOS>SUBSTRUCTURE
       1 MOL1            1 RESIDUE      1      MOL     
@<SCITEGIC>MOL_PROPERTY
VConf Rank
SciTegic.value.IntegerValue
451

@<SCITEGIC>MOL_PROPERTY
Conf_Id
SciTegic.value.IntegerValue
133

@<SCITEGIC>MOL_PROPERTY
Delta U+W
SciTegic.value.DoubleValue
-2.139

@<SCITEGIC>MOL_PROPERTY
U+W
SciTegic.value.DoubleValue
8.774

@<SCITEGIC>MOL_PROPERTY
Grad RMS
SciTegic.value.DoubleValue
0.000000

@<SCITEGIC>MOL_PROPERTY
U
SciTegic.value.DoubleValue
10.905

@<SCITEGIC>MOL_PROPERTY
W
SciTegic.value.DoubleValue
-2.131

@<SCITEGIC>MOL_PROPERTY
W(PB)
SciTegic.value.DoubleValue
-4.281

@<SCITEGIC>MOL_PROPERTY
W(SA)
SciTegic.value.DoubleValue
2.150

@<SCITEGIC>MOL_PROPERTY
Valence
SciTegic.value.DoubleValue
16.378

@<SCITEGIC>MOL_PROPERTY
Coulomb
SciTegic.value.DoubleValue
-8.448

@<SCITEGIC>MOL_PROPERTY
VdW
SciTegic.value.DoubleValue
2.976

@<SCITEGIC>MOL_PROPERTY
VdW6
SciTegic.value.DoubleValue
-12.570

@<SCITEGIC>MOL_PROPERTY
VdW12
SciTegic.value.DoubleValue
15.545

@<SCITEGIC>MOL_PROPERTY
Bond
SciTegic.value.DoubleValue
0.439

@<SCITEGIC>MOL_PROPERTY
Angle
SciTegic.value.DoubleValue
5.049

@<SCITEGIC>MOL_PROPERTY
Pdih
SciTegic.value.DoubleValue
10.889

@<SCITEGIC>MOL_PROPERTY
Idih
SciTegic.value.DoubleValue
0.000

@<SCITEGIC>MOL_PROPERTY
Tether
SciTegic.value.DoubleValue
0.000

@<TRIPOS>MOLECULE
guest-s17_confgen4.mol2 : confsearch ligand conformer 452
          25          25           1
SMALL
USER_CHARGES
 
@<TRIPOS>ATOM
       1    C1      18.672695   20.013842   23.045142 C.3        1 MOL1        -0.1684
       2    H1      17.702095   20.428504   23.350228 H          1 MOL1         0.0833
       3    H2      18.837119   20.419740   22.040645 H          1 MOL1         0.0833
       4    C2      18.541010   18.469300   22.994422 C.3        1 MOL1        -0.1684
       5    H3      18.873720   18.012840   23.935463 H          1 MOL1         0.0833
       6    H4      17.470721   18.231408   22.924425 H          1 MOL1         0.0833
       7    C3      19.234227   17.795730   21.780904 C.3        1 MOL1        -0.1684
       8    H5      18.848398   18.235049   20.850785 H          1 MOL1         0.0833
       9    H6      18.922306   16.742611   21.760476 H          1 MOL1         0.0833
      10    C4      20.785801   17.828823   21.758220 C.3        1 MOL1        -0.1760
      11    H7      21.193099   17.365920   22.664833 H          1 MOL1         0.0833
      12    H8      21.107303   17.176245   20.935232 H          1 MOL1         0.0833
      13    C5      21.397070   19.236121   21.534514 C.3        1 MOL1         0.1219
      14    H9      20.635342   19.888842   21.092265 H          1 MOL1         0.0790
      15    C6      21.963436   19.904188   22.811488 C.3        1 MOL1        -0.1760
      16    H10     22.931725   19.439236   23.041169 H          1 MOL1         0.0833
      17    H11     22.178214   20.957753   22.591058 H          1 MOL1         0.0833
      18    C7      21.096072   19.827717   24.094398 C.3        1 MOL1        -0.1684
      19    H12     21.677117   20.280412   24.909353 H          1 MOL1         0.0833
      20    H13     20.956661   18.784699   24.400945 H          1 MOL1         0.0833
      21    C8      19.731573   20.559396   24.038422 C.3        1 MOL1        -0.1684
      22    H14     19.898598   21.625242   23.831913 H          1 MOL1         0.0833
      23    H15     19.296563   20.518041   25.046420 H          1 MOL1         0.0833
      24    O1      22.467337   19.121152   20.603481 O.3        1 MOL1        -0.5508
      25    H16     22.804167   20.028103   20.447201 H          1 MOL1         0.3780
@<TRIPOS>BOND
    1     1     2    1
    2     1     3    1
    3     1     4    1
    4     4     5    1
    5     4     6    1
    6     4     7    1
    7     7     8    1
    8     7     9    1
    9     7    10    1
   10    10    11    1
   11    10    12    1
   12    10    13    1
   13    13    14    1
   14    13    15    1
   15    15    16    1
   16    15    17    1
   17    15    18    1
   18    18    19    1
   19    18    20    1
   20     1    21    1
   21    18    21    1
   22    21    22    1
   23    21    23    1
   24    13    24    1
   25    24    25    1
@<TRIPOS>SUBSTRUCTURE
       1 MOL1            1 RESIDUE      1      MOL     
@<SCITEGIC>MOL_PROPERTY
VConf Rank
SciTegic.value.IntegerValue
452

@<SCITEGIC>MOL_PROPERTY
Conf_Id
SciTegic.value.IntegerValue
95

@<SCITEGIC>MOL_PROPERTY
Delta U+W
SciTegic.value.DoubleValue
-2.190

@<SCITEGIC>MOL_PROPERTY
U+W
SciTegic.value.DoubleValue
8.723

@<SCITEGIC>MOL_PROPERTY
Grad RMS
SciTegic.value.DoubleValue
0.000000

@<SCITEGIC>MOL_PROPERTY
U
SciTegic.value.DoubleValue
10.905

@<SCITEGIC>MOL_PROPERTY
W
SciTegic.value.DoubleValue
-2.182

@<SCITEGIC>MOL_PROPERTY
W(PB)
SciTegic.value.DoubleValue
-4.296

@<SCITEGIC>MOL_PROPERTY
W(SA)
SciTegic.value.DoubleValue
2.114

@<SCITEGIC>MOL_PROPERTY
Valence
SciTegic.value.DoubleValue
16.377

@<SCITEGIC>MOL_PROPERTY
Coulomb
SciTegic.value.DoubleValue
-8.448

@<SCITEGIC>MOL_PROPERTY
VdW
SciTegic.value.DoubleValue
2.976

@<SCITEGIC>MOL_PROPERTY
VdW6
SciTegic.value.DoubleValue
-12.570

@<SCITEGIC>MOL_PROPERTY
VdW12
SciTegic.value.DoubleValue
15.546

@<SCITEGIC>MOL_PROPERTY
Bond
SciTegic.value.DoubleValue
0.439

@<SCITEGIC>MOL_PROPERTY
Angle
SciTegic.value.DoubleValue
5.049

@<SCITEGIC>MOL_PROPERTY
Pdih
SciTegic.value.DoubleValue
10.889

@<SCITEGIC>MOL_PROPERTY
Idih
SciTegic.value.DoubleValue
0.000

@<SCITEGIC>MOL_PROPERTY
Tether
SciTegic.value.DoubleValue
0.000

@<TRIPOS>MOLECULE
guest-s17_confgen4.mol2 : confsearch ligand conformer 453
          25          25           1
SMALL
USER_CHARGES
 
@<TRIPOS>ATOM
       1    C1      21.678773   19.959251   23.553033 C.3        1 MOL1        -0.1684
       2    H1      22.440389   20.528079   24.103739 H          1 MOL1         0.0833
       3    H2      22.260306   19.186023   23.041006 H          1 MOL1         0.0833
       4    C2      21.030676   20.938074   22.530244 C.3        1 MOL1        -0.1684
       5    H3      20.998355   21.930086   23.001209 H          1 MOL1         0.0833
       6    H4      21.700995   21.046701   21.666912 H          1 MOL1         0.0833
       7    C3      19.595278   20.630194   22.028906 C.3        1 MOL1        -0.1684
       8    H5      19.266965   21.481703   21.417382 H          1 MOL1         0.0833
       9    H6      18.905031   20.644096   22.878254 H          1 MOL1         0.0833
      10    C4      19.394616   19.345061   21.171766 C.3        1 MOL1        -0.1760
      11    H7      18.334695   19.060411   21.201971 H          1 MOL1         0.0833
      12    H8      19.598623   19.619763   20.128606 H          1 MOL1         0.0833
      13    C5      20.262096   18.102902   21.497670 C.3        1 MOL1         0.1219
      14    H9      21.314628   18.393820   21.417922 H          1 MOL1         0.0790
      15    C6      20.015978   17.411598   22.869572 C.3        1 MOL1        -0.1760
      16    H10     19.191507   16.696785   22.744654 H          1 MOL1         0.0833
      17    H11     20.897699   16.805232   23.112832 H          1 MOL1         0.0833
      18    C7      19.661348   18.299061   24.093363 C.3        1 MOL1        -0.1684
      19    H12     19.421427   17.629281   24.930348 H          1 MOL1         0.0833
      20    H13     18.716655   18.817797   23.902208 H          1 MOL1         0.0833
      21    C8      20.746728   19.293584   24.599702 C.3        1 MOL1        -0.1684
      22    H14     21.391907   18.746792   25.300867 H          1 MOL1         0.0833
      23    H15     20.260365   20.075108   25.198964 H          1 MOL1         0.0833
      24    O1      20.014146   17.133963   20.485598 O.3        1 MOL1        -0.5508
      25    H16     20.233894   17.556584   19.629350 H          1 MOL1         0.3780
@<TRIPOS>BOND
    1     1     2    1
    2     1     3    1
    3     1     4    1
    4     4     5    1
    5     4     6    1
    6     4     7    1
    7     7     8    1
    8     7     9    1
    9     7    10    1
   10    10    11    1
   11    10    12    1
   12    10    13    1
   13    13    14    1
   14    13    15    1
   15    15    16    1
   16    15    17    1
   17    15    18    1
   18    18    19    1
   19    18    20    1
   20     1    21    1
   21    18    21    1
   22    21    22    1
   23    21    23    1
   24    13    24    1
   25    24    25    1
@<TRIPOS>SUBSTRUCTURE
       1 MOL1            1 RESIDUE      1      MOL     
@<SCITEGIC>MOL_PROPERTY
VConf Rank
SciTegic.value.IntegerValue
453

@<SCITEGIC>MOL_PROPERTY
Conf_Id
SciTegic.value.IntegerValue
161

@<SCITEGIC>MOL_PROPERTY
Delta U+W
SciTegic.value.DoubleValue
2.120

@<SCITEGIC>MOL_PROPERTY
U+W
SciTegic.value.DoubleValue
13.033

@<SCITEGIC>MOL_PROPERTY
Grad RMS
SciTegic.value.DoubleValue
0.000000

@<SCITEGIC>MOL_PROPERTY
U
SciTegic.value.DoubleValue
15.076

@<SCITEGIC>MOL_PROPERTY
W
SciTegic.value.DoubleValue
-2.043

@<SCITEGIC>MOL_PROPERTY
W(PB)
SciTegic.value.DoubleValue
-4.186

@<SCITEGIC>MOL_PROPERTY
W(SA)
SciTegic.value.DoubleValue
2.143

@<SCITEGIC>MOL_PROPERTY
Valence
SciTegic.value.DoubleValue
18.884

@<SCITEGIC>MOL_PROPERTY
Coulomb
SciTegic.value.DoubleValue
-8.074

@<SCITEGIC>MOL_PROPERTY
VdW
SciTegic.value.DoubleValue
4.266

@<SCITEGIC>MOL_PROPERTY
VdW6
SciTegic.value.DoubleValue
-13.486

@<SCITEGIC>MOL_PROPERTY
VdW12
SciTegic.value.DoubleValue
17.752

@<SCITEGIC>MOL_PROPERTY
Bond
SciTegic.value.DoubleValue
0.713

@<SCITEGIC>MOL_PROPERTY
Angle
SciTegic.value.DoubleValue
8.955

@<SCITEGIC>MOL_PROPERTY
Pdih
SciTegic.value.DoubleValue
9.215

@<SCITEGIC>MOL_PROPERTY
Idih
SciTegic.value.DoubleValue
0.000

@<SCITEGIC>MOL_PROPERTY
Tether
SciTegic.value.DoubleValue
0.000

@<TRIPOS>MOLECULE
guest-s17_confgen4.mol2 : confsearch ligand conformer 454
          25          25           1
SMALL
USER_CHARGES
 
@<TRIPOS>ATOM
       1    C1      20.597956   17.245843   22.600873 C.3        1 MOL1        -0.1684
       2    H1      20.858134   16.202285   22.825106 H          1 MOL1         0.0833
       3    H2      20.363480   17.251209   21.528853 H          1 MOL1         0.0833
       4    C2      21.847886   18.119557   22.872858 C.3        1 MOL1        -0.1684
       5    H3      21.891460   18.420825   23.928095 H          1 MOL1         0.0833
       6    H4      22.725311   17.476618   22.718179 H          1 MOL1         0.0833
       7    C3      22.016388   19.344293   21.931072 C.3        1 MOL1        -0.1684
       8    H5      21.699649   19.103651   20.907327 H          1 MOL1         0.0833
       9    H6      23.094403   19.544938   21.861610 H          1 MOL1         0.0833
      10    C4      21.347056   20.654242   22.421480 C.3        1 MOL1        -0.1760
      11    H7      21.393521   20.708822   23.515934 H          1 MOL1         0.0833
      12    H8      21.960915   21.494106   22.070139 H          1 MOL1         0.0833
      13    C5      19.906924   20.919290   21.913937 C.3        1 MOL1         0.1219
      14    H9      19.964460   21.148944   20.840288 H          1 MOL1         0.0790
      15    C6      18.892902   19.764848   22.086873 C.3        1 MOL1        -0.1760
      16    H10     17.885249   20.161739   21.904674 H          1 MOL1         0.0833
      17    H11     19.046618   19.033279   21.286285 H          1 MOL1         0.0833
      18    C7      18.916023   19.077000   23.478117 C.3        1 MOL1        -0.1684
      19    H12     17.911517   19.137057   23.918673 H          1 MOL1         0.0833
      20    H13     19.563199   19.617746   24.178015 H          1 MOL1         0.0833
      21    C8      19.337200   17.588484   23.437983 C.3        1 MOL1        -0.1684
      22    H14     18.497968   16.994746   23.050716 H          1 MOL1         0.0833
      23    H15     19.493073   17.247190   24.470458 H          1 MOL1         0.0833
      24    O1      19.403402   22.057609   22.598816 O.3        1 MOL1        -0.5508
      25    H16     19.238250   21.765735   23.518242 H          1 MOL1         0.3780
@<TRIPOS>BOND
    1     1     2    1
    2     1     3    1
    3     1     4    1
    4     4     5    1
    5     4     6    1
    6     4     7    1
    7     7     8    1
    8     7     9    1
    9     7    10    1
   10    10    11    1
   11    10    12    1
   12    10    13    1
   13    13    14    1
   14    13    15    1
   15    15    16    1
   16    15    17    1
   17    15    18    1
   18    18    19    1
   19    18    20    1
   20     1    21    1
   21    18    21    1
   22    21    22    1
   23    21    23    1
   24    13    24    1
   25    24    25    1
@<TRIPOS>SUBSTRUCTURE
       1 MOL1            1 RESIDUE      1      MOL     
@<SCITEGIC>MOL_PROPERTY
VConf Rank
SciTegic.value.IntegerValue
454

@<SCITEGIC>MOL_PROPERTY
Conf_Id
SciTegic.value.IntegerValue
164

@<SCITEGIC>MOL_PROPERTY
Delta U+W
SciTegic.value.DoubleValue
0.008

@<SCITEGIC>MOL_PROPERTY
U+W
SciTegic.value.DoubleValue
10.922

@<SCITEGIC>MOL_PROPERTY
Grad RMS
SciTegic.value.DoubleValue
0.000000

@<SCITEGIC>MOL_PROPERTY
U
SciTegic.value.DoubleValue
12.433

@<SCITEGIC>MOL_PROPERTY
W
SciTegic.value.DoubleValue
-1.511

@<SCITEGIC>MOL_PROPERTY
W(PB)
SciTegic.value.DoubleValue
-3.669

@<SCITEGIC>MOL_PROPERTY
W(SA)
SciTegic.value.DoubleValue
2.157

@<SCITEGIC>MOL_PROPERTY
Valence
SciTegic.value.DoubleValue
19.007

@<SCITEGIC>MOL_PROPERTY
Coulomb
SciTegic.value.DoubleValue
-9.373

@<SCITEGIC>MOL_PROPERTY
VdW
SciTegic.value.DoubleValue
2.799

@<SCITEGIC>MOL_PROPERTY
VdW6
SciTegic.value.DoubleValue
-12.597

@<SCITEGIC>MOL_PROPERTY
VdW12
SciTegic.value.DoubleValue
15.396

@<SCITEGIC>MOL_PROPERTY
Bond
SciTegic.value.DoubleValue
0.425

@<SCITEGIC>MOL_PROPERTY
Angle
SciTegic.value.DoubleValue
4.784

@<SCITEGIC>MOL_PROPERTY
Pdih
SciTegic.value.DoubleValue
13.799

@<SCITEGIC>MOL_PROPERTY
Idih
SciTegic.value.DoubleValue
0.000

@<SCITEGIC>MOL_PROPERTY
Tether
SciTegic.value.DoubleValue
0.000

@<TRIPOS>MOLECULE
guest-s17_confgen4.mol2 : confsearch ligand conformer 455
          25          25           1
SMALL
USER_CHARGES
 
@<TRIPOS>ATOM
       1    C1      18.524874   19.060106   22.938944 C.3        1 MOL1        -0.1684
       2    H1      18.885677   19.758397   23.702574 H          1 MOL1         0.0833
       3    H2      17.446366   18.975395   23.129515 H          1 MOL1         0.0833
       4    C2      19.141732   17.655768   23.155830 C.3        1 MOL1        -0.1684
       5    H3      18.837858   17.313841   24.154654 H          1 MOL1         0.0833
       6    H4      18.688712   16.947367   22.449113 H          1 MOL1         0.0833
       7    C3      20.684780   17.539793   23.064643 C.3        1 MOL1        -0.1684
       8    H5      21.002651   17.444643   22.020149 H          1 MOL1         0.0833
       9    H6      20.965431   16.582718   23.525343 H          1 MOL1         0.0833
      10    C4      21.477364   18.669975   23.774065 C.3        1 MOL1        -0.1760
      11    H7      20.879936   19.127161   24.572088 H          1 MOL1         0.0833
      12    H8      22.330191   18.200571   24.282575 H          1 MOL1         0.0833
      13    C5      22.054865   19.753415   22.829013 C.3        1 MOL1         0.1219
      14    H9      22.638926   19.248912   22.046102 H          1 MOL1         0.0790
      15    C6      21.029992   20.688655   22.139491 C.3        1 MOL1        -0.1760
      16    H10     20.417859   21.212246   22.883753 H          1 MOL1         0.0833
      17    H11     21.604589   21.474731   21.631395 H          1 MOL1         0.0833
      18    C7      20.138570   20.004400   21.069003 C.3        1 MOL1        -0.1684
      19    H12     20.633284   19.111319   20.670596 H          1 MOL1         0.0833
      20    H13     20.057200   20.680775   20.207086 H          1 MOL1         0.0833
      21    C8      18.695396   19.669732   21.525084 C.3        1 MOL1        -0.1684
      22    H14     18.233076   19.003285   20.784399 H          1 MOL1         0.0833
      23    H15     18.109846   20.598771   21.494786 H          1 MOL1         0.0833
      24    O1      22.934443   20.566960   23.593006 O.3        1 MOL1        -0.5508
      25    H16     22.385023   20.999873   24.278215 H          1 MOL1         0.3780
@<TRIPOS>BOND
    1     1     2    1
    2     1     3    1
    3     1     4    1
    4     4     5    1
    5     4     6    1
    6     4     7    1
    7     7     8    1
    8     7     9    1
    9     7    10    1
   10    10    11    1
   11    10    12    1
   12    10    13    1
   13    13    14    1
   14    13    15    1
   15    15    16    1
   16    15    17    1
   17    15    18    1
   18    18    19    1
   19    18    20    1
   20     1    21    1
   21    18    21    1
   22    21    22    1
   23    21    23    1
   24    13    24    1
   25    24    25    1
@<TRIPOS>SUBSTRUCTURE
       1 MOL1            1 RESIDUE      1      MOL     
@<SCITEGIC>MOL_PROPERTY
VConf Rank
SciTegic.value.IntegerValue
455

@<SCITEGIC>MOL_PROPERTY
Conf_Id
SciTegic.value.IntegerValue
15

@<SCITEGIC>MOL_PROPERTY
Delta U+W
SciTegic.value.DoubleValue
-1.271

@<SCITEGIC>MOL_PROPERTY
U+W
SciTegic.value.DoubleValue
9.643

@<SCITEGIC>MOL_PROPERTY
Grad RMS
SciTegic.value.DoubleValue
0.000000

@<SCITEGIC>MOL_PROPERTY
U
SciTegic.value.DoubleValue
11.413

@<SCITEGIC>MOL_PROPERTY
W
SciTegic.value.DoubleValue
-1.770

@<SCITEGIC>MOL_PROPERTY
W(PB)
SciTegic.value.DoubleValue
-3.908

@<SCITEGIC>MOL_PROPERTY
W(SA)
SciTegic.value.DoubleValue
2.138

@<SCITEGIC>MOL_PROPERTY
Valence
SciTegic.value.DoubleValue
17.496

@<SCITEGIC>MOL_PROPERTY
Coulomb
SciTegic.value.DoubleValue
-8.736

@<SCITEGIC>MOL_PROPERTY
VdW
SciTegic.value.DoubleValue
2.653

@<SCITEGIC>MOL_PROPERTY
VdW6
SciTegic.value.DoubleValue
-12.485

@<SCITEGIC>MOL_PROPERTY
VdW12
SciTegic.value.DoubleValue
15.138

@<SCITEGIC>MOL_PROPERTY
Bond
SciTegic.value.DoubleValue
0.414

@<SCITEGIC>MOL_PROPERTY
Angle
SciTegic.value.DoubleValue
5.295

@<SCITEGIC>MOL_PROPERTY
Pdih
SciTegic.value.DoubleValue
11.787

@<SCITEGIC>MOL_PROPERTY
Idih
SciTegic.value.DoubleValue
0.000

@<SCITEGIC>MOL_PROPERTY
Tether
SciTegic.value.DoubleValue
0.000

@<TRIPOS>MOLECULE
guest-s17_confgen4.mol2 : confsearch ligand conformer 456
          25          25           1
SMALL
USER_CHARGES
 
@<TRIPOS>ATOM
       1    C1      18.442437   19.499407   22.721682 C.3        1 MOL1        -0.1684
       2    H1      17.387418   19.686263   22.964582 H          1 MOL1         0.0833
       3    H2      18.414975   18.840952   21.844272 H          1 MOL1         0.0833
       4    C2      19.073058   20.869389   22.357962 C.3        1 MOL1        -0.1684
       5    H3      18.612626   21.219334   21.423957 H          1 MOL1         0.0833
       6    H4      18.791000   21.604940   23.123587 H          1 MOL1         0.0833
       7    C3      20.611791   20.904083   22.195386 C.3        1 MOL1        -0.1684
       8    H5      21.084610   20.929201   23.184113 H          1 MOL1         0.0833
       9    H6      20.883849   21.861292   21.730066 H          1 MOL1         0.0833
      10    C4      21.184316   19.749807   21.332070 C.3        1 MOL1        -0.1760
      11    H7      20.378769   19.187992   20.846428 H          1 MOL1         0.0833
      12    H8      21.760746   20.187096   20.506418 H          1 MOL1         0.0833
      13    C5      22.120627   18.783366   22.093373 C.3        1 MOL1         0.1219
      14    H9      23.073228   19.306310   22.260442 H          1 MOL1         0.0790
      15    C6      21.625946   18.284100   23.475582 C.3        1 MOL1        -0.1760
      16    H10     22.314017   17.489570   23.794351 H          1 MOL1         0.0833
      17    H11     21.752694   19.072926   24.226715 H          1 MOL1         0.0833
      18    C7      20.180598   17.722626   23.544553 C.3        1 MOL1        -0.1684
      19    H12     20.175948   16.957119   24.332664 H          1 MOL1         0.0833
      20    H13     19.917916   17.188523   22.622303 H          1 MOL1         0.0833
      21    C8      19.084768   18.757950   23.920108 C.3        1 MOL1        -0.1684
      22    H14     19.452470   19.471846   24.669330 H          1 MOL1         0.0833
      23    H15     18.279484   18.201815   24.419515 H          1 MOL1         0.0833
      24    O1      22.359989   17.653761   21.265662 O.3        1 MOL1        -0.5508
      25    H16     21.511360   17.168878   21.222515 H          1 MOL1         0.3780
@<TRIPOS>BOND
    1     1     2    1
    2     1     3    1
    3     1     4    1
    4     4     5    1
    5     4     6    1
    6     4     7    1
    7     7     8    1
    8     7     9    1
    9     7    10    1
   10    10    11    1
   11    10    12    1
   12    10    13    1
   13    13    14    1
   14    13    15    1
   15    15    16    1
   16    15    17    1
   17    15    18    1
   18    18    19    1
   19    18    20    1
   20     1    21    1
   21    18    21    1
   22    21    22    1
   23    21    23    1
   24    13    24    1
   25    24    25    1
@<TRIPOS>SUBSTRUCTURE
       1 MOL1            1 RESIDUE      1      MOL     
@<SCITEGIC>MOL_PROPERTY
VConf Rank
SciTegic.value.IntegerValue
456

@<SCITEGIC>MOL_PROPERTY
Conf_Id
SciTegic.value.IntegerValue
115

@<SCITEGIC>MOL_PROPERTY
Delta U+W
SciTegic.value.DoubleValue
0.038

@<SCITEGIC>MOL_PROPERTY
U+W
SciTegic.value.DoubleValue
10.952

@<SCITEGIC>MOL_PROPERTY
Grad RMS
SciTegic.value.DoubleValue
0.000000

@<SCITEGIC>MOL_PROPERTY
U
SciTegic.value.DoubleValue
12.526

@<SCITEGIC>MOL_PROPERTY
W
SciTegic.value.DoubleValue
-1.575

@<SCITEGIC>MOL_PROPERTY
W(PB)
SciTegic.value.DoubleValue
-3.698

@<SCITEGIC>MOL_PROPERTY
W(SA)
SciTegic.value.DoubleValue
2.123

@<SCITEGIC>MOL_PROPERTY
Valence
SciTegic.value.DoubleValue
19.016

@<SCITEGIC>MOL_PROPERTY
Coulomb
SciTegic.value.DoubleValue
-9.226

@<SCITEGIC>MOL_PROPERTY
VdW
SciTegic.value.DoubleValue
2.737

@<SCITEGIC>MOL_PROPERTY
VdW6
SciTegic.value.DoubleValue
-12.612

@<SCITEGIC>MOL_PROPERTY
VdW12
SciTegic.value.DoubleValue
15.349

@<SCITEGIC>MOL_PROPERTY
Bond
SciTegic.value.DoubleValue
0.421

@<SCITEGIC>MOL_PROPERTY
Angle
SciTegic.value.DoubleValue
4.883

@<SCITEGIC>MOL_PROPERTY
Pdih
SciTegic.value.DoubleValue
13.711

@<SCITEGIC>MOL_PROPERTY
Idih
SciTegic.value.DoubleValue
0.000

@<SCITEGIC>MOL_PROPERTY
Tether
SciTegic.value.DoubleValue
0.000

@<TRIPOS>MOLECULE
guest-s17_confgen4.mol2 : confsearch ligand conformer 457
          25          25           1
SMALL
USER_CHARGES
 
@<TRIPOS>ATOM
       1    C1      19.249996   19.109321   20.817363 C.3        1 MOL1        -0.1684
       2    H1      19.142645   18.844935   19.756438 H          1 MOL1         0.0833
       3    H2      18.231651   19.315705   21.173532 H          1 MOL1         0.0833
       4    C2      20.107633   20.394274   20.887297 C.3        1 MOL1        -0.1684
       5    H3      21.085973   20.220672   20.418995 H          1 MOL1         0.0833
       6    H4      19.613439   21.153153   20.265305 H          1 MOL1         0.0833
       7    C3      20.291086   20.985960   22.304036 C.3        1 MOL1        -0.1684
       8    H5      19.345611   20.942163   22.860934 H          1 MOL1         0.0833
       9    H6      20.511083   22.056065   22.187248 H          1 MOL1         0.0833
      10    C4      21.456551   20.356261   23.113425 C.3        1 MOL1        -0.1760
      11    H7      22.112813   19.758719   22.468387 H          1 MOL1         0.0833
      12    H8      22.081554   21.180669   23.482589 H          1 MOL1         0.0833
      13    C5      21.008515   19.518391   24.332110 C.3        1 MOL1         0.1219
      14    H9      20.122698   19.989557   24.781556 H          1 MOL1         0.0790
      15    C6      20.684874   18.041582   24.014740 C.3        1 MOL1        -0.1760
      16    H10     21.578236   17.538498   23.621803 H          1 MOL1         0.0833
      17    H11     20.454190   17.541753   24.964671 H          1 MOL1         0.0833
      18    C7      19.484183   17.814147   23.064327 C.3        1 MOL1        -0.1684
      19    H12     18.662380   18.497924   23.315563 H          1 MOL1         0.0833
      20    H13     19.095144   16.806324   23.264755 H          1 MOL1         0.0833
      21    C8      19.836598   17.883011   21.555332 C.3        1 MOL1        -0.1684
      22    H14     19.418721   16.985205   21.079386 H          1 MOL1         0.0833
      23    H15     20.920648   17.819899   21.391992 H          1 MOL1         0.0833
      24    O1      22.064136   19.529030   25.285629 O.3        1 MOL1        -0.5508
      25    H16     21.741482   19.039540   26.070885 H          1 MOL1         0.3780
@<TRIPOS>BOND
    1     1     2    1
    2     1     3    1
    3     1     4    1
    4     4     5    1
    5     4     6    1
    6     4     7    1
    7     7     8    1
    8     7     9    1
    9     7    10    1
   10    10    11    1
   11    10    12    1
   12    10    13    1
   13    13    14    1
   14    13    15    1
   15    15    16    1
   16    15    17    1
   17    15    18    1
   18    18    19    1
   19    18    20    1
   20     1    21    1
   21    18    21    1
   22    21    22    1
   23    21    23    1
   24    13    24    1
   25    24    25    1
@<TRIPOS>SUBSTRUCTURE
       1 MOL1            1 RESIDUE      1      MOL     
@<SCITEGIC>MOL_PROPERTY
VConf Rank
SciTegic.value.IntegerValue
457

@<SCITEGIC>MOL_PROPERTY
Conf_Id
SciTegic.value.IntegerValue
30

@<SCITEGIC>MOL_PROPERTY
Delta U+W
SciTegic.value.DoubleValue
0.000

@<SCITEGIC>MOL_PROPERTY
U+W
SciTegic.value.DoubleValue
10.913

@<SCITEGIC>MOL_PROPERTY
Grad RMS
SciTegic.value.DoubleValue
0.000000

@<SCITEGIC>MOL_PROPERTY
U
SciTegic.value.DoubleValue
13.140

@<SCITEGIC>MOL_PROPERTY
W
SciTegic.value.DoubleValue
-2.227

@<SCITEGIC>MOL_PROPERTY
W(PB)
SciTegic.value.DoubleValue
-4.367

@<SCITEGIC>MOL_PROPERTY
W(SA)
SciTegic.value.DoubleValue
2.140

@<SCITEGIC>MOL_PROPERTY
Valence
SciTegic.value.DoubleValue
19.155

@<SCITEGIC>MOL_PROPERTY
Coulomb
SciTegic.value.DoubleValue
-8.157

@<SCITEGIC>MOL_PROPERTY
VdW
SciTegic.value.DoubleValue
2.142

@<SCITEGIC>MOL_PROPERTY
VdW6
SciTegic.value.DoubleValue
-11.576

@<SCITEGIC>MOL_PROPERTY
VdW12
SciTegic.value.DoubleValue
13.718

@<SCITEGIC>MOL_PROPERTY
Bond
SciTegic.value.DoubleValue
0.294

@<SCITEGIC>MOL_PROPERTY
Angle
SciTegic.value.DoubleValue
3.547

@<SCITEGIC>MOL_PROPERTY
Pdih
SciTegic.value.DoubleValue
15.314

@<SCITEGIC>MOL_PROPERTY
Idih
SciTegic.value.DoubleValue
0.000

@<SCITEGIC>MOL_PROPERTY
Tether
SciTegic.value.DoubleValue
0.000

@<TRIPOS>MOLECULE
guest-s17_confgen4.mol2 : confsearch ligand conformer 458
          25          25           1
SMALL
USER_CHARGES
 
@<TRIPOS>ATOM
       1    C1      20.278879   21.218538   21.829607 C.3        1 MOL1        -0.1684
       2    H1      19.549616   22.039358   21.865450 H          1 MOL1         0.0833
       3    H2      21.088077   21.568978   21.174501 H          1 MOL1         0.0833
       4    C2      19.607967   19.994474   21.159063 C.3        1 MOL1        -0.1684
       5    H3      19.049435   20.352352   20.283372 H          1 MOL1         0.0833
       6    H4      20.378058   19.333476   20.744822 H          1 MOL1         0.0833
       7    C3      18.636938   19.212112   22.079288 C.3        1 MOL1        -0.1684
       8    H5      17.654362   19.158558   21.591065 H          1 MOL1         0.0833
       9    H6      18.455680   19.756317   23.013431 H          1 MOL1         0.0833
      10    C4      19.094533   17.766097   22.397413 C.3        1 MOL1        -0.1760
      11    H7      18.452502   17.366549   23.193603 H          1 MOL1         0.0833
      12    H8      18.905725   17.140165   21.515525 H          1 MOL1         0.0833
      13    C5      20.578029   17.574262   22.800668 C.3        1 MOL1         0.1219
      14    H9      21.214960   17.727603   21.919310 H          1 MOL1         0.0790
      15    C6      21.075317   18.500248   23.937572 C.3        1 MOL1        -0.1760
      16    H10     20.254614   18.729542   24.629252 H          1 MOL1         0.0833
      17    H11     21.810376   17.943679   24.534159 H          1 MOL1         0.0833
      18    C7      21.779527   19.802364   23.461830 C.3        1 MOL1        -0.1684
      19    H12     22.382636   19.622369   22.561673 H          1 MOL1         0.0833
      20    H13     22.499518   20.079552   24.244146 H          1 MOL1         0.0833
      21    C8      20.843135   21.019689   23.261601 C.3        1 MOL1        -0.1684
      22    H14     21.411452   21.926627   23.509690 H          1 MOL1         0.0833
      23    H15     20.029007   20.991210   23.996933 H          1 MOL1         0.0833
      24    O1      20.727060   16.223972   23.223426 O.3        1 MOL1        -0.5508
      25    H16     21.681231   16.087212   23.400373 H          1 MOL1         0.3780
@<TRIPOS>BOND
    1     1     2    1
    2     1     3    1
    3     1     4    1
    4     4     5    1
    5     4     6    1
    6     4     7    1
    7     7     8    1
    8     7     9    1
    9     7    10    1
   10    10    11    1
   11    10    12    1
   12    10    13    1
   13    13    14    1
   14    13    15    1
   15    15    16    1
   16    15    17    1
   17    15    18    1
   18    18    19    1
   19    18    20    1
   20     1    21    1
   21    18    21    1
   22    21    22    1
   23    21    23    1
   24    13    24    1
   25    24    25    1
@<TRIPOS>SUBSTRUCTURE
       1 MOL1            1 RESIDUE      1      MOL     
@<SCITEGIC>MOL_PROPERTY
VConf Rank
SciTegic.value.IntegerValue
458

@<SCITEGIC>MOL_PROPERTY
Conf_Id
SciTegic.value.IntegerValue
162

@<SCITEGIC>MOL_PROPERTY
Delta U+W
SciTegic.value.DoubleValue
0.219

@<SCITEGIC>MOL_PROPERTY
U+W
SciTegic.value.DoubleValue
11.132

@<SCITEGIC>MOL_PROPERTY
Grad RMS
SciTegic.value.DoubleValue
0.000000

@<SCITEGIC>MOL_PROPERTY
U
SciTegic.value.DoubleValue
13.296

@<SCITEGIC>MOL_PROPERTY
W
SciTegic.value.DoubleValue
-2.164

@<SCITEGIC>MOL_PROPERTY
W(PB)
SciTegic.value.DoubleValue
-4.311

@<SCITEGIC>MOL_PROPERTY
W(SA)
SciTegic.value.DoubleValue
2.148

@<SCITEGIC>MOL_PROPERTY
Valence
SciTegic.value.DoubleValue
18.607

@<SCITEGIC>MOL_PROPERTY
Coulomb
SciTegic.value.DoubleValue
-8.339

@<SCITEGIC>MOL_PROPERTY
VdW
SciTegic.value.DoubleValue
3.028

@<SCITEGIC>MOL_PROPERTY
VdW6
SciTegic.value.DoubleValue
-12.271

@<SCITEGIC>MOL_PROPERTY
VdW12
SciTegic.value.DoubleValue
15.299

@<SCITEGIC>MOL_PROPERTY
Bond
SciTegic.value.DoubleValue
0.423

@<SCITEGIC>MOL_PROPERTY
Angle
SciTegic.value.DoubleValue
4.488

@<SCITEGIC>MOL_PROPERTY
Pdih
SciTegic.value.DoubleValue
13.696

@<SCITEGIC>MOL_PROPERTY
Idih
SciTegic.value.DoubleValue
0.000

@<SCITEGIC>MOL_PROPERTY
Tether
SciTegic.value.DoubleValue
0.000

@<TRIPOS>MOLECULE
guest-s17_confgen4.mol2 : confsearch ligand conformer 459
          25          25           1
SMALL
USER_CHARGES
 
@<TRIPOS>ATOM
       1    C1      20.993028   18.770670   24.511869 C.3        1 MOL1        -0.1684
       2    H1      20.553258   17.776149   24.364472 H          1 MOL1         0.0833
       3    H2      21.466496   18.723129   25.502088 H          1 MOL1         0.0833
       4    C2      22.104725   19.017975   23.461788 C.3        1 MOL1        -0.1684
       5    H3      22.306439   20.092107   23.353235 H          1 MOL1         0.0833
       6    H4      23.029816   18.588481   23.870298 H          1 MOL1         0.0833
       7    C3      21.869932   18.348167   22.079113 C.3        1 MOL1        -0.1684
       8    H5      21.396289   17.363564   22.190405 H          1 MOL1         0.0833
       9    H6      22.861858   18.146447   21.651886 H          1 MOL1         0.0833
      10    C4      21.104533   19.214926   21.045633 C.3        1 MOL1        -0.1760
      11    H7      21.356208   20.273432   21.185348 H          1 MOL1         0.0833
      12    H8      21.486974   18.962913   20.047914 H          1 MOL1         0.0833
      13    C5      19.567821   19.023142   20.990325 C.3        1 MOL1         0.1219
      14    H9      19.367629   18.033847   20.554079 H          1 MOL1         0.0790
      15    C6      18.820074   19.088863   22.343326 C.3        1 MOL1        -0.1760
      16    H10     17.742363   19.151721   22.144358 H          1 MOL1         0.0833
      17    H11     18.945439   18.134345   22.865586 H          1 MOL1         0.0833
      18    C7      19.228767   20.276243   23.254684 C.3        1 MOL1        -0.1684
      19    H12     18.333753   20.870509   23.483065 H          1 MOL1         0.0833
      20    H13     19.893933   20.966916   22.723051 H          1 MOL1         0.0833
      21    C8      19.883634   19.852784   24.591701 C.3        1 MOL1        -0.1684
      22    H14     19.098835   19.487906   25.268231 H          1 MOL1         0.0833
      23    H15     20.297266   20.750519   25.070965 H          1 MOL1         0.0833
      24    O1      19.035780   20.023186   20.129544 O.3        1 MOL1        -0.5508
      25    H16     18.065859   19.889378   20.107961 H          1 MOL1         0.3780
@<TRIPOS>BOND
    1     1     2    1
    2     1     3    1
    3     1     4    1
    4     4     5    1
    5     4     6    1
    6     4     7    1
    7     7     8    1
    8     7     9    1
    9     7    10    1
   10    10    11    1
   11    10    12    1
   12    10    13    1
   13    13    14    1
   14    13    15    1
   15    15    16    1
   16    15    17    1
   17    15    18    1
   18    18    19    1
   19    18    20    1
   20     1    21    1
   21    18    21    1
   22    21    22    1
   23    21    23    1
   24    13    24    1
   25    24    25    1
@<TRIPOS>SUBSTRUCTURE
       1 MOL1            1 RESIDUE      1      MOL     
@<SCITEGIC>MOL_PROPERTY
VConf Rank
SciTegic.value.IntegerValue
459

@<SCITEGIC>MOL_PROPERTY
Conf_Id
SciTegic.value.IntegerValue
155

@<SCITEGIC>MOL_PROPERTY
Delta U+W
SciTegic.value.DoubleValue
0.339

@<SCITEGIC>MOL_PROPERTY
U+W
SciTegic.value.DoubleValue
11.252

@<SCITEGIC>MOL_PROPERTY
Grad RMS
SciTegic.value.DoubleValue
0.000000

@<SCITEGIC>MOL_PROPERTY
U
SciTegic.value.DoubleValue
13.420

@<SCITEGIC>MOL_PROPERTY
W
SciTegic.value.DoubleValue
-2.167

@<SCITEGIC>MOL_PROPERTY
W(PB)
SciTegic.value.DoubleValue
-4.325

@<SCITEGIC>MOL_PROPERTY
W(SA)
SciTegic.value.DoubleValue
2.157

@<SCITEGIC>MOL_PROPERTY
Valence
SciTegic.value.DoubleValue
18.609

@<SCITEGIC>MOL_PROPERTY
Coulomb
SciTegic.value.DoubleValue
-8.052

@<SCITEGIC>MOL_PROPERTY
VdW
SciTegic.value.DoubleValue
2.863

@<SCITEGIC>MOL_PROPERTY
VdW6
SciTegic.value.DoubleValue
-12.524

@<SCITEGIC>MOL_PROPERTY
VdW12
SciTegic.value.DoubleValue
15.387

@<SCITEGIC>MOL_PROPERTY
Bond
SciTegic.value.DoubleValue
0.430

@<SCITEGIC>MOL_PROPERTY
Angle
SciTegic.value.DoubleValue
4.724

@<SCITEGIC>MOL_PROPERTY
Pdih
SciTegic.value.DoubleValue
13.455

@<SCITEGIC>MOL_PROPERTY
Idih
SciTegic.value.DoubleValue
0.000

@<SCITEGIC>MOL_PROPERTY
Tether
SciTegic.value.DoubleValue
0.000

@<TRIPOS>MOLECULE
guest-s17_confgen4.mol2 : confsearch ligand conformer 460
          25          25           1
SMALL
USER_CHARGES
 
@<TRIPOS>ATOM
       1    C1      20.215881   19.201831   20.672797 C.3        1 MOL1        -0.1684
       2    H1      20.521965   20.138149   20.187040 H          1 MOL1         0.0833
       3    H2      19.936870   18.525200   19.853586 H          1 MOL1         0.0833
       4    C2      21.442211   18.569378   21.381977 C.3        1 MOL1        -0.1684
       5    H3      21.168136   17.581638   21.765892 H          1 MOL1         0.0833
       6    H4      22.192538   18.346204   20.611316 H          1 MOL1         0.0833
       7    C3      22.152535   19.412771   22.480769 C.3        1 MOL1        -0.1684
       8    H5      22.888231   20.055156   21.978129 H          1 MOL1         0.0833
       9    H6      22.738952   18.740652   23.121932 H          1 MOL1         0.0833
      10    C4      21.280156   20.335519   23.374858 C.3        1 MOL1        -0.1760
      11    H7      21.962721   20.945251   23.981183 H          1 MOL1         0.0833
      12    H8      20.778651   21.075910   22.745519 H          1 MOL1         0.0833
      13    C5      20.257806   19.664257   24.338451 C.3        1 MOL1         0.1219
      14    H9      19.473481   20.401801   24.561237 H          1 MOL1         0.0790
      15    C6      19.565629   18.362960   23.860896 C.3        1 MOL1        -0.1760
      16    H10     20.325974   17.594548   23.693750 H          1 MOL1         0.0833
      17    H11     18.982456   17.970847   24.704568 H          1 MOL1         0.0833
      18    C7      18.596162   18.457473   22.644547 C.3        1 MOL1        -0.1684
      19    H12     17.606096   18.731543   23.033766 H          1 MOL1         0.0833
      20    H13     18.472819   17.456221   22.210263 H          1 MOL1         0.0833
      21    C8      18.933124   19.465747   21.514711 C.3        1 MOL1        -0.1684
      22    H14     18.937481   20.481168   21.923217 H          1 MOL1         0.0833
      23    H15     18.085707   19.474922   20.815655 H          1 MOL1         0.0833
      24    O1      20.939721   19.350469   25.547878 O.3        1 MOL1        -0.5508
      25    H16     21.333421   20.185258   25.875551 H          1 MOL1         0.3780
@<TRIPOS>BOND
    1     1     2    1
    2     1     3    1
    3     1     4    1
    4     4     5    1
    5     4     6    1
    6     4     7    1
    7     7     8    1
    8     7     9    1
    9     7    10    1
   10    10    11    1
   11    10    12    1
   12    10    13    1
   13    13    14    1
   14    13    15    1
   15    15    16    1
   16    15    17    1
   17    15    18    1
   18    18    19    1
   19    18    20    1
   20     1    21    1
   21    18    21    1
   22    21    22    1
   23    21    23    1
   24    13    24    1
   25    24    25    1
@<TRIPOS>SUBSTRUCTURE
       1 MOL1            1 RESIDUE      1      MOL     
@<SCITEGIC>MOL_PROPERTY
VConf Rank
SciTegic.value.IntegerValue
460

@<SCITEGIC>MOL_PROPERTY
Conf_Id
SciTegic.value.IntegerValue
146

@<SCITEGIC>MOL_PROPERTY
Delta U+W
SciTegic.value.DoubleValue
2.553

@<SCITEGIC>MOL_PROPERTY
U+W
SciTegic.value.DoubleValue
13.466

@<SCITEGIC>MOL_PROPERTY
Grad RMS
SciTegic.value.DoubleValue
0.000000

@<SCITEGIC>MOL_PROPERTY
U
SciTegic.value.DoubleValue
15.643

@<SCITEGIC>MOL_PROPERTY
W
SciTegic.value.DoubleValue
-2.176

@<SCITEGIC>MOL_PROPERTY
W(PB)
SciTegic.value.DoubleValue
-4.307

@<SCITEGIC>MOL_PROPERTY
W(SA)
SciTegic.value.DoubleValue
2.131

@<SCITEGIC>MOL_PROPERTY
Valence
SciTegic.value.DoubleValue
18.916

@<SCITEGIC>MOL_PROPERTY
Coulomb
SciTegic.value.DoubleValue
-7.506

@<SCITEGIC>MOL_PROPERTY
VdW
SciTegic.value.DoubleValue
4.232

@<SCITEGIC>MOL_PROPERTY
VdW6
SciTegic.value.DoubleValue
-13.632

@<SCITEGIC>MOL_PROPERTY
VdW12
SciTegic.value.DoubleValue
17.864

@<SCITEGIC>MOL_PROPERTY
Bond
SciTegic.value.DoubleValue
0.735

@<SCITEGIC>MOL_PROPERTY
Angle
SciTegic.value.DoubleValue
9.140

@<SCITEGIC>MOL_PROPERTY
Pdih
SciTegic.value.DoubleValue
9.042

@<SCITEGIC>MOL_PROPERTY
Idih
SciTegic.value.DoubleValue
0.000

@<SCITEGIC>MOL_PROPERTY
Tether
SciTegic.value.DoubleValue
0.000

@<TRIPOS>MOLECULE
guest-s17_confgen4.mol2 : confsearch ligand conformer 461
          25          25           1
SMALL
USER_CHARGES
 
@<TRIPOS>ATOM
       1    C1      21.615190   19.587811   24.242605 C.3        1 MOL1        -0.1684
       2    H1      21.775742   18.854180   25.044174 H          1 MOL1         0.0833
       3    H2      22.258258   20.443218   24.490909 H          1 MOL1         0.0833
       4    C2      20.148101   20.083397   24.289369 C.3        1 MOL1        -0.1684
       5    H3      19.994968   20.555992   25.269168 H          1 MOL1         0.0833
       6    H4      19.995939   20.892833   23.566316 H          1 MOL1         0.0833
       7    C3      19.055427   18.997008   24.127491 C.3        1 MOL1        -0.1684
       8    H5      18.082788   19.478186   24.299017 H          1 MOL1         0.0833
       9    H6      19.163652   18.251102   24.926462 H          1 MOL1         0.0833
      10    C4      18.988198   18.265497   22.761448 C.3        1 MOL1        -0.1760
      11    H7      19.731059   17.462532   22.723045 H          1 MOL1         0.0833
      12    H8      18.021063   17.746339   22.720690 H          1 MOL1         0.0833
      13    C5      19.124370   19.180664   21.517261 C.3        1 MOL1         0.1219
      14    H9      18.891655   20.217355   21.795397 H          1 MOL1         0.0790
      15    C6      20.519068   19.130864   20.843390 C.3        1 MOL1        -0.1760
      16    H10     20.763128   18.089151   20.596430 H          1 MOL1         0.0833
      17    H11     20.449558   19.655203   19.881321 H          1 MOL1         0.0833
      18    C7      21.700880   19.762282   21.628398 C.3        1 MOL1        -0.1684
      19    H12     21.499292   20.817317   21.854370 H          1 MOL1         0.0833
      20    H13     22.565436   19.774758   20.950630 H          1 MOL1         0.0833
      21    C8      22.121521   18.988951   22.904919 C.3        1 MOL1        -0.1684
      22    H14     23.219129   18.978331   22.951622 H          1 MOL1         0.0833
      23    H15     21.842309   17.932361   22.824417 H          1 MOL1         0.0833
      24    O1      18.171482   18.755540   20.549468 O.3        1 MOL1        -0.5508
      25    H16     18.232883   19.381024   19.797657 H          1 MOL1         0.3780
@<TRIPOS>BOND
    1     1     2    1
    2     1     3    1
    3     1     4    1
    4     4     5    1
    5     4     6    1
    6     4     7    1
    7     7     8    1
    8     7     9    1
    9     7    10    1
   10    10    11    1
   11    10    12    1
   12    10    13    1
   13    13    14    1
   14    13    15    1
   15    15    16    1
   16    15    17    1
   17    15    18    1
   18    18    19    1
   19    18    20    1
   20     1    21    1
   21    18    21    1
   22    21    22    1
   23    21    23    1
   24    13    24    1
   25    24    25    1
@<TRIPOS>SUBSTRUCTURE
       1 MOL1            1 RESIDUE      1      MOL     
@<SCITEGIC>MOL_PROPERTY
VConf Rank
SciTegic.value.IntegerValue
461

@<SCITEGIC>MOL_PROPERTY
Conf_Id
SciTegic.value.IntegerValue
62

@<SCITEGIC>MOL_PROPERTY
Delta U+W
SciTegic.value.DoubleValue
-1.779

@<SCITEGIC>MOL_PROPERTY
U+W
SciTegic.value.DoubleValue
9.134

@<SCITEGIC>MOL_PROPERTY
Grad RMS
SciTegic.value.DoubleValue
0.000000

@<SCITEGIC>MOL_PROPERTY
U
SciTegic.value.DoubleValue
11.364

@<SCITEGIC>MOL_PROPERTY
W
SciTegic.value.DoubleValue
-2.230

@<SCITEGIC>MOL_PROPERTY
W(PB)
SciTegic.value.DoubleValue
-4.359

@<SCITEGIC>MOL_PROPERTY
W(SA)
SciTegic.value.DoubleValue
2.129

@<SCITEGIC>MOL_PROPERTY
Valence
SciTegic.value.DoubleValue
16.582

@<SCITEGIC>MOL_PROPERTY
Coulomb
SciTegic.value.DoubleValue
-8.150

@<SCITEGIC>MOL_PROPERTY
VdW
SciTegic.value.DoubleValue
2.933

@<SCITEGIC>MOL_PROPERTY
VdW6
SciTegic.value.DoubleValue
-12.531

@<SCITEGIC>MOL_PROPERTY
VdW12
SciTegic.value.DoubleValue
15.464

@<SCITEGIC>MOL_PROPERTY
Bond
SciTegic.value.DoubleValue
0.439

@<SCITEGIC>MOL_PROPERTY
Angle
SciTegic.value.DoubleValue
5.099

@<SCITEGIC>MOL_PROPERTY
Pdih
SciTegic.value.DoubleValue
11.044

@<SCITEGIC>MOL_PROPERTY
Idih
SciTegic.value.DoubleValue
0.000

@<SCITEGIC>MOL_PROPERTY
Tether
SciTegic.value.DoubleValue
0.000

@<TRIPOS>MOLECULE
guest-s17_confgen4.mol2 : confsearch ligand conformer 462
          25          25           1
SMALL
USER_CHARGES
 
@<TRIPOS>ATOM
       1    C1      19.631044   19.950682   24.211037 C.3        1 MOL1        -0.1684
       2    H1      19.458847   18.874791   24.329064 H          1 MOL1         0.0833
       3    H2      19.183584   20.402220   25.106879 H          1 MOL1         0.0833
       4    C2      18.852572   20.491108   22.985650 C.3        1 MOL1        -0.1684
       5    H3      17.785930   20.295288   23.161200 H          1 MOL1         0.0833
       6    H4      18.951196   21.584376   22.946477 H          1 MOL1         0.0833
       7    C3      19.220321   19.902916   21.599464 C.3        1 MOL1        -0.1684
       8    H5      20.097344   20.413177   21.185391 H          1 MOL1         0.0833
       9    H6      18.403062   20.160075   20.911728 H          1 MOL1         0.0833
      10    C4      19.418116   18.363793   21.563508 C.3        1 MOL1        -0.1760
      11    H7      18.876068   17.877050   22.383580 H          1 MOL1         0.0833
      12    H8      18.942217   17.997231   20.644543 H          1 MOL1         0.0833
      13    C5      20.895280   17.896208   21.536245 C.3        1 MOL1         0.1219
      14    H9      21.404381   18.410628   20.708495 H          1 MOL1         0.0790
      15    C6      21.716688   18.133486   22.828103 C.3        1 MOL1        -0.1760
      16    H10     21.240669   17.637979   23.682893 H          1 MOL1         0.0833
      17    H11     22.677513   17.618776   22.695062 H          1 MOL1         0.0833
      18    C7      22.027864   19.621097   23.143940 C.3        1 MOL1        -0.1684
      19    H12     21.996352   20.222915   22.228644 H          1 MOL1         0.0833
      20    H13     23.071194   19.688874   23.481309 H          1 MOL1         0.0833
      21    C8      21.148110   20.261947   24.247691 C.3        1 MOL1        -0.1684
      22    H14     21.295846   21.350285   24.234320 H          1 MOL1         0.0833
      23    H15     21.529839   19.922395   25.220249 H          1 MOL1         0.0833
      24    O1      20.900509   16.497934   21.276963 O.3        1 MOL1        -0.5508
      25    H16     20.437649   16.366501   20.423362 H          1 MOL1         0.3780
@<TRIPOS>BOND
    1     1     2    1
    2     1     3    1
    3     1     4    1
    4     4     5    1
    5     4     6    1
    6     4     7    1
    7     7     8    1
    8     7     9    1
    9     7    10    1
   10    10    11    1
   11    10    12    1
   12    10    13    1
   13    13    14    1
   14    13    15    1
   15    15    16    1
   16    15    17    1
   17    15    18    1
   18    18    19    1
   19    18    20    1
   20     1    21    1
   21    18    21    1
   22    21    22    1
   23    21    23    1
   24    13    24    1
   25    24    25    1
@<TRIPOS>SUBSTRUCTURE
       1 MOL1            1 RESIDUE      1      MOL     
@<SCITEGIC>MOL_PROPERTY
VConf Rank
SciTegic.value.IntegerValue
462

@<SCITEGIC>MOL_PROPERTY
Conf_Id
SciTegic.value.IntegerValue
121

@<SCITEGIC>MOL_PROPERTY
Delta U+W
SciTegic.value.DoubleValue
-1.283

@<SCITEGIC>MOL_PROPERTY
U+W
SciTegic.value.DoubleValue
9.630

@<SCITEGIC>MOL_PROPERTY
Grad RMS
SciTegic.value.DoubleValue
0.000000

@<SCITEGIC>MOL_PROPERTY
U
SciTegic.value.DoubleValue
11.876

@<SCITEGIC>MOL_PROPERTY
W
SciTegic.value.DoubleValue
-2.246

@<SCITEGIC>MOL_PROPERTY
W(PB)
SciTegic.value.DoubleValue
-4.376

@<SCITEGIC>MOL_PROPERTY
W(SA)
SciTegic.value.DoubleValue
2.130

@<SCITEGIC>MOL_PROPERTY
Valence
SciTegic.value.DoubleValue
17.153

@<SCITEGIC>MOL_PROPERTY
Coulomb
SciTegic.value.DoubleValue
-7.966

@<SCITEGIC>MOL_PROPERTY
VdW
SciTegic.value.DoubleValue
2.689

@<SCITEGIC>MOL_PROPERTY
VdW6
SciTegic.value.DoubleValue
-12.458

@<SCITEGIC>MOL_PROPERTY
VdW12
SciTegic.value.DoubleValue
15.147

@<SCITEGIC>MOL_PROPERTY
Bond
SciTegic.value.DoubleValue
0.421

@<SCITEGIC>MOL_PROPERTY
Angle
SciTegic.value.DoubleValue
5.258

@<SCITEGIC>MOL_PROPERTY
Pdih
SciTegic.value.DoubleValue
11.475

@<SCITEGIC>MOL_PROPERTY
Idih
SciTegic.value.DoubleValue
0.000

@<SCITEGIC>MOL_PROPERTY
Tether
SciTegic.value.DoubleValue
0.000

@<TRIPOS>MOLECULE
guest-s17_confgen4.mol2 : confsearch ligand conformer 463
          25          25           1
SMALL
USER_CHARGES
 
@<TRIPOS>ATOM
       1    C1      20.865849   18.144912   21.264734 C.3        1 MOL1        -0.1684
       2    H1      19.798093   18.317713   21.088209 H          1 MOL1         0.0833
       3    H2      21.184083   17.505317   20.430298 H          1 MOL1         0.0833
       4    C2      21.073488   17.336174   22.569552 C.3        1 MOL1        -0.1684
       5    H3      20.550235   16.377769   22.448934 H          1 MOL1         0.0833
       6    H4      22.137093   17.082629   22.674162 H          1 MOL1         0.0833
       7    C3      20.578329   17.983144   23.888328 C.3        1 MOL1        -0.1684
       8    H5      21.328439   18.678734   24.281311 H          1 MOL1         0.0833
       9    H6      20.523945   17.184277   24.640525 H          1 MOL1         0.0833
      10    C4      19.188236   18.669425   23.809370 C.3        1 MOL1        -0.1760
      11    H7      18.583855   18.248266   22.996881 H          1 MOL1         0.0833
      12    H8      18.646393   18.419219   24.731114 H          1 MOL1         0.0833
      13    C5      19.225474   20.215178   23.713583 C.3        1 MOL1         0.1219
      14    H9      19.841813   20.593936   24.541623 H          1 MOL1         0.0790
      15    C6      19.770432   20.810472   22.390695 C.3        1 MOL1        -0.1760
      16    H10     19.184627   20.449043   21.536615 H          1 MOL1         0.0833
      17    H11     19.595836   21.893888   22.423404 H          1 MOL1         0.0833
      18    C7      21.289927   20.598082   22.155466 C.3        1 MOL1        -0.1684
      19    H12     21.809145   20.446294   23.108548 H          1 MOL1         0.0833
      20    H13     21.709981   21.533045   21.759964 H          1 MOL1         0.0833
      21    C8      21.653941   19.473799   21.152370 C.3        1 MOL1        -0.1684
      22    H14     22.729788   19.264958   21.226079 H          1 MOL1         0.0833
      23    H15     21.496201   19.864909   20.137954 H          1 MOL1         0.0833
      24    O1      17.894343   20.686279   23.882632 O.3        1 MOL1        -0.5508
      25    H16     17.939019   21.665114   23.888644 H          1 MOL1         0.3780
@<TRIPOS>BOND
    1     1     2    1
    2     1     3    1
    3     1     4    1
    4     4     5    1
    5     4     6    1
    6     4     7    1
    7     7     8    1
    8     7     9    1
    9     7    10    1
   10    10    11    1
   11    10    12    1
   12    10    13    1
   13    13    14    1
   14    13    15    1
   15    15    16    1
   16    15    17    1
   17    15    18    1
   18    18    19    1
   19    18    20    1
   20     1    21    1
   21    18    21    1
   22    21    22    1
   23    21    23    1
   24    13    24    1
   25    24    25    1
@<TRIPOS>SUBSTRUCTURE
       1 MOL1            1 RESIDUE      1      MOL     
@<SCITEGIC>MOL_PROPERTY
VConf Rank
SciTegic.value.IntegerValue
463

@<SCITEGIC>MOL_PROPERTY
Conf_Id
SciTegic.value.IntegerValue
24

@<SCITEGIC>MOL_PROPERTY
Delta U+W
SciTegic.value.DoubleValue
-1.236

@<SCITEGIC>MOL_PROPERTY
U+W
SciTegic.value.DoubleValue
9.678

@<SCITEGIC>MOL_PROPERTY
Grad RMS
SciTegic.value.DoubleValue
0.000000

@<SCITEGIC>MOL_PROPERTY
U
SciTegic.value.DoubleValue
11.876

@<SCITEGIC>MOL_PROPERTY
W
SciTegic.value.DoubleValue
-2.199

@<SCITEGIC>MOL_PROPERTY
W(PB)
SciTegic.value.DoubleValue
-4.335

@<SCITEGIC>MOL_PROPERTY
W(SA)
SciTegic.value.DoubleValue
2.137

@<SCITEGIC>MOL_PROPERTY
Valence
SciTegic.value.DoubleValue
17.153

@<SCITEGIC>MOL_PROPERTY
Coulomb
SciTegic.value.DoubleValue
-7.966

@<SCITEGIC>MOL_PROPERTY
VdW
SciTegic.value.DoubleValue
2.689

@<SCITEGIC>MOL_PROPERTY
VdW6
SciTegic.value.DoubleValue
-12.458

@<SCITEGIC>MOL_PROPERTY
VdW12
SciTegic.value.DoubleValue
15.147

@<SCITEGIC>MOL_PROPERTY
Bond
SciTegic.value.DoubleValue
0.421

@<SCITEGIC>MOL_PROPERTY
Angle
SciTegic.value.DoubleValue
5.258

@<SCITEGIC>MOL_PROPERTY
Pdih
SciTegic.value.DoubleValue
11.475

@<SCITEGIC>MOL_PROPERTY
Idih
SciTegic.value.DoubleValue
0.000

@<SCITEGIC>MOL_PROPERTY
Tether
SciTegic.value.DoubleValue
0.000

@<TRIPOS>MOLECULE
guest-s17_confgen4.mol2 : confsearch ligand conformer 464
          25          25           1
SMALL
USER_CHARGES
 
@<TRIPOS>ATOM
       1    C1      21.266742   17.338444   23.073195 C.3        1 MOL1        -0.1684
       2    H1      22.195255   17.283125   23.657644 H          1 MOL1         0.0833
       3    H2      21.060189   16.310352   22.745759 H          1 MOL1         0.0833
       4    C2      20.110872   17.782893   24.008412 C.3        1 MOL1        -0.1684
       5    H3      19.137951   17.538805   23.563283 H          1 MOL1         0.0833
       6    H4      20.170340   17.157164   24.909518 H          1 MOL1         0.0833
       7    C3      20.130838   19.265296   24.456454 C.3        1 MOL1        -0.1684
       8    H5      21.162420   19.621023   24.581964 H          1 MOL1         0.0833
       9    H6      19.686666   19.300730   25.460773 H          1 MOL1         0.0833
      10    C4      19.306455   20.236122   23.564368 C.3        1 MOL1        -0.1760
      11    H7      18.393286   19.749727   23.198278 H          1 MOL1         0.0833
      12    H8      18.964663   21.049274   24.219282 H          1 MOL1         0.0833
      13    C5      20.091194   20.872168   22.391036 C.3        1 MOL1         0.1219
      14    H9      21.149725   20.939229   22.675093 H          1 MOL1         0.0790
      15    C6      19.971006   20.133473   21.033946 C.3        1 MOL1        -0.1760
      16    H10     18.966281   20.291863   20.620653 H          1 MOL1         0.0833
      17    H11     20.665352   20.613416   20.331693 H          1 MOL1         0.0833
      18    C7      20.257232   18.610747   21.038628 C.3        1 MOL1        -0.1684
      19    H12     20.364740   18.281190   19.996231 H          1 MOL1         0.0833
      20    H13     19.379830   18.070792   21.413202 H          1 MOL1         0.0833
      21    C8      21.533216   18.209367   21.821004 C.3        1 MOL1        -0.1684
      22    H14     22.117052   19.092793   22.104463 H          1 MOL1         0.0833
      23    H15     22.193509   17.643888   21.149351 H          1 MOL1         0.0833
      24    O1      19.607958   22.194941   22.194916 O.3        1 MOL1        -0.5508
      25    H16     18.660092   22.112102   21.963266 H          1 MOL1         0.3780
@<TRIPOS>BOND
    1     1     2    1
    2     1     3    1
    3     1     4    1
    4     4     5    1
    5     4     6    1
    6     4     7    1
    7     7     8    1
    8     7     9    1
    9     7    10    1
   10    10    11    1
   11    10    12    1
   12    10    13    1
   13    13    14    1
   14    13    15    1
   15    15    16    1
   16    15    17    1
   17    15    18    1
   18    18    19    1
   19    18    20    1
   20     1    21    1
   21    18    21    1
   22    21    22    1
   23    21    23    1
   24    13    24    1
   25    24    25    1
@<TRIPOS>SUBSTRUCTURE
       1 MOL1            1 RESIDUE      1      MOL     
@<SCITEGIC>MOL_PROPERTY
VConf Rank
SciTegic.value.IntegerValue
464

@<SCITEGIC>MOL_PROPERTY
Conf_Id
SciTegic.value.IntegerValue
167

@<SCITEGIC>MOL_PROPERTY
Delta U+W
SciTegic.value.DoubleValue
0.388

@<SCITEGIC>MOL_PROPERTY
U+W
SciTegic.value.DoubleValue
11.301

@<SCITEGIC>MOL_PROPERTY
Grad RMS
SciTegic.value.DoubleValue
0.000000

@<SCITEGIC>MOL_PROPERTY
U
SciTegic.value.DoubleValue
13.202

@<SCITEGIC>MOL_PROPERTY
W
SciTegic.value.DoubleValue
-1.901

@<SCITEGIC>MOL_PROPERTY
W(PB)
SciTegic.value.DoubleValue
-4.065

@<SCITEGIC>MOL_PROPERTY
W(SA)
SciTegic.value.DoubleValue
2.163

@<SCITEGIC>MOL_PROPERTY
Valence
SciTegic.value.DoubleValue
18.957

@<SCITEGIC>MOL_PROPERTY
Coulomb
SciTegic.value.DoubleValue
-8.753

@<SCITEGIC>MOL_PROPERTY
VdW
SciTegic.value.DoubleValue
2.998

@<SCITEGIC>MOL_PROPERTY
VdW6
SciTegic.value.DoubleValue
-12.294

@<SCITEGIC>MOL_PROPERTY
VdW12
SciTegic.value.DoubleValue
15.292

@<SCITEGIC>MOL_PROPERTY
Bond
SciTegic.value.DoubleValue
0.419

@<SCITEGIC>MOL_PROPERTY
Angle
SciTegic.value.DoubleValue
4.543

@<SCITEGIC>MOL_PROPERTY
Pdih
SciTegic.value.DoubleValue
13.996

@<SCITEGIC>MOL_PROPERTY
Idih
SciTegic.value.DoubleValue
0.000

@<SCITEGIC>MOL_PROPERTY
Tether
SciTegic.value.DoubleValue
0.000

@<TRIPOS>MOLECULE
guest-s17_confgen4.mol2 : confsearch ligand conformer 465
          25          25           1
SMALL
USER_CHARGES
 
@<TRIPOS>ATOM
       1    C1      19.015202   20.505075   23.645245 C.3        1 MOL1        -0.1684
       2    H1      17.931012   20.328908   23.646547 H          1 MOL1         0.0833
       3    H2      19.170110   21.400808   24.262160 H          1 MOL1         0.0833
       4    C2      19.467191   20.843393   22.200756 C.3        1 MOL1        -0.1684
       5    H3      18.953965   20.202496   21.475046 H          1 MOL1         0.0833
       6    H4      19.101162   21.854958   21.977608 H          1 MOL1         0.0833
       7    C3      20.998804   20.821399   21.958843 C.3        1 MOL1        -0.1684
       8    H5      21.548184   21.010353   22.890105 H          1 MOL1         0.0833
       9    H6      21.242011   21.670270   21.305259 H          1 MOL1         0.0833
      10    C4      21.529659   19.542204   21.255922 C.3        1 MOL1        -0.1760
      11    H7      20.993982   19.397253   20.308672 H          1 MOL1         0.0833
      12    H8      22.575896   19.727735   20.978879 H          1 MOL1         0.0833
      13    C5      21.486731   18.226411   22.072166 C.3        1 MOL1         0.1219
      14    H9      21.994612   18.383187   23.033224 H          1 MOL1         0.0790
      15    C6      20.056400   17.679756   22.317216 C.3        1 MOL1        -0.1760
      16    H10     19.366444   18.081274   21.568204 H          1 MOL1         0.0833
      17    H11     20.044126   16.595352   22.144416 H          1 MOL1         0.0833
      18    C7      19.498073   17.921380   23.743628 C.3        1 MOL1        -0.1684
      19    H12     19.961935   17.187327   24.416639 H          1 MOL1         0.0833
      20    H13     18.423652   17.693036   23.749189 H          1 MOL1         0.0833
      21    C8      19.725563   19.326122   24.356669 C.3        1 MOL1        -0.1684
      22    H14     20.796936   19.533106   24.458969 H          1 MOL1         0.0833
      23    H15     19.350795   19.295353   25.388863 H          1 MOL1         0.0833
      24    O1      22.216988   17.249737   21.339367 O.3        1 MOL1        -0.5508
      25    H16     22.242579   16.442949   21.895204 H          1 MOL1         0.3780
@<TRIPOS>BOND
    1     1     2    1
    2     1     3    1
    3     1     4    1
    4     4     5    1
    5     4     6    1
    6     4     7    1
    7     7     8    1
    8     7     9    1
    9     7    10    1
   10    10    11    1
   11    10    12    1
   12    10    13    1
   13    13    14    1
   14    13    15    1
   15    15    16    1
   16    15    17    1
   17    15    18    1
   18    18    19    1
   19    18    20    1
   20     1    21    1
   21    18    21    1
   22    21    22    1
   23    21    23    1
   24    13    24    1
   25    24    25    1
@<TRIPOS>SUBSTRUCTURE
       1 MOL1            1 RESIDUE      1      MOL     
@<SCITEGIC>MOL_PROPERTY
VConf Rank
SciTegic.value.IntegerValue
465

@<SCITEGIC>MOL_PROPERTY
Conf_Id
SciTegic.value.IntegerValue
60

@<SCITEGIC>MOL_PROPERTY
Delta U+W
SciTegic.value.DoubleValue
-1.838

@<SCITEGIC>MOL_PROPERTY
U+W
SciTegic.value.DoubleValue
9.075

@<SCITEGIC>MOL_PROPERTY
Grad RMS
SciTegic.value.DoubleValue
0.000000

@<SCITEGIC>MOL_PROPERTY
U
SciTegic.value.DoubleValue
11.150

@<SCITEGIC>MOL_PROPERTY
W
SciTegic.value.DoubleValue
-2.074

@<SCITEGIC>MOL_PROPERTY
W(PB)
SciTegic.value.DoubleValue
-4.196

@<SCITEGIC>MOL_PROPERTY
W(SA)
SciTegic.value.DoubleValue
2.121

@<SCITEGIC>MOL_PROPERTY
Valence
SciTegic.value.DoubleValue
16.582

@<SCITEGIC>MOL_PROPERTY
Coulomb
SciTegic.value.DoubleValue
-8.361

@<SCITEGIC>MOL_PROPERTY
VdW
SciTegic.value.DoubleValue
2.928

@<SCITEGIC>MOL_PROPERTY
VdW6
SciTegic.value.DoubleValue
-12.539

@<SCITEGIC>MOL_PROPERTY
VdW12
SciTegic.value.DoubleValue
15.467

@<SCITEGIC>MOL_PROPERTY
Bond
SciTegic.value.DoubleValue
0.441

@<SCITEGIC>MOL_PROPERTY
Angle
SciTegic.value.DoubleValue
5.093

@<SCITEGIC>MOL_PROPERTY
Pdih
SciTegic.value.DoubleValue
11.049

@<SCITEGIC>MOL_PROPERTY
Idih
SciTegic.value.DoubleValue
0.000

@<SCITEGIC>MOL_PROPERTY
Tether
SciTegic.value.DoubleValue
0.000

@<TRIPOS>MOLECULE
guest-s17_confgen4.mol2 : confsearch ligand conformer 466
          25          25           1
SMALL
USER_CHARGES
 
@<TRIPOS>ATOM
       1    C1      21.400807   20.542856   23.778664 C.3        1 MOL1        -0.1684
       2    H1      22.364794   20.936392   23.428861 H          1 MOL1         0.0833
       3    H2      21.236528   20.996747   24.765535 H          1 MOL1         0.0833
       4    C2      21.519259   19.012299   23.988491 C.3        1 MOL1        -0.1684
       5    H3      22.292086   18.847178   24.751573 H          1 MOL1         0.0833
       6    H4      20.600661   18.617366   24.437215 H          1 MOL1         0.0833
       7    C3      21.918546   18.180992   22.743352 C.3        1 MOL1        -0.1684
       8    H5      22.074621   17.144755   23.073195 H          1 MOL1         0.0833
       9    H6      22.893966   18.526103   22.374562 H          1 MOL1         0.0833
      10    C4      20.913351   18.159122   21.562732 C.3        1 MOL1        -0.1760
      11    H7      21.025482   19.062012   20.954052 H          1 MOL1         0.0833
      12    H8      21.216445   17.341757   20.894906 H          1 MOL1         0.0833
      13    C5      19.428808   17.971136   21.969572 C.3        1 MOL1         0.1219
      14    H9      19.371307   17.543485   22.979504 H          1 MOL1         0.0790
      15    C6      18.590380   19.272746   21.922099 C.3        1 MOL1        -0.1760
      16    H10     18.673062   19.719381   20.922637 H          1 MOL1         0.0833
      17    H11     17.534622   18.992580   22.034642 H          1 MOL1         0.0833
      18    C7      18.904928   20.349362   22.996439 C.3        1 MOL1        -0.1684
      19    H12     18.788909   19.936616   24.006860 H          1 MOL1         0.0833
      20    H13     18.129039   21.122493   22.911766 H          1 MOL1         0.0833
      21    C8      20.279436   21.048854   22.834313 C.3        1 MOL1        -0.1684
      22    H14     20.143728   22.119407   23.040548 H          1 MOL1         0.0833
      23    H15     20.608391   21.012959   21.789658 H          1 MOL1         0.0833
      24    O1      18.832316   17.050176   21.063927 O.3        1 MOL1        -0.5508
      25    H16     19.327244   16.208916   21.152491 H          1 MOL1         0.3780
@<TRIPOS>BOND
    1     1     2    1
    2     1     3    1
    3     1     4    1
    4     4     5    1
    5     4     6    1
    6     4     7    1
    7     7     8    1
    8     7     9    1
    9     7    10    1
   10    10    11    1
   11    10    12    1
   12    10    13    1
   13    13    14    1
   14    13    15    1
   15    15    16    1
   16    15    17    1
   17    15    18    1
   18    18    19    1
   19    18    20    1
   20     1    21    1
   21    18    21    1
   22    21    22    1
   23    21    23    1
   24    13    24    1
   25    24    25    1
@<TRIPOS>SUBSTRUCTURE
       1 MOL1            1 RESIDUE      1      MOL     
@<SCITEGIC>MOL_PROPERTY
VConf Rank
SciTegic.value.IntegerValue
466

@<SCITEGIC>MOL_PROPERTY
Conf_Id
SciTegic.value.IntegerValue
129

@<SCITEGIC>MOL_PROPERTY
Delta U+W
SciTegic.value.DoubleValue
-1.846

@<SCITEGIC>MOL_PROPERTY
U+W
SciTegic.value.DoubleValue
9.067

@<SCITEGIC>MOL_PROPERTY
Grad RMS
SciTegic.value.DoubleValue
0.000000

@<SCITEGIC>MOL_PROPERTY
U
SciTegic.value.DoubleValue
11.150

@<SCITEGIC>MOL_PROPERTY
W
SciTegic.value.DoubleValue
-2.083

@<SCITEGIC>MOL_PROPERTY
W(PB)
SciTegic.value.DoubleValue
-4.217

@<SCITEGIC>MOL_PROPERTY
W(SA)
SciTegic.value.DoubleValue
2.134

@<SCITEGIC>MOL_PROPERTY
Valence
SciTegic.value.DoubleValue
16.583

@<SCITEGIC>MOL_PROPERTY
Coulomb
SciTegic.value.DoubleValue
-8.361

@<SCITEGIC>MOL_PROPERTY
VdW
SciTegic.value.DoubleValue
2.928

@<SCITEGIC>MOL_PROPERTY
VdW6
SciTegic.value.DoubleValue
-12.539

@<SCITEGIC>MOL_PROPERTY
VdW12
SciTegic.value.DoubleValue
15.467

@<SCITEGIC>MOL_PROPERTY
Bond
SciTegic.value.DoubleValue
0.441

@<SCITEGIC>MOL_PROPERTY
Angle
SciTegic.value.DoubleValue
5.093

@<SCITEGIC>MOL_PROPERTY
Pdih
SciTegic.value.DoubleValue
11.049

@<SCITEGIC>MOL_PROPERTY
Idih
SciTegic.value.DoubleValue
0.000

@<SCITEGIC>MOL_PROPERTY
Tether
SciTegic.value.DoubleValue
0.000

@<TRIPOS>MOLECULE
guest-s17_confgen4.mol2 : confsearch ligand conformer 467
          25          25           1
SMALL
USER_CHARGES
 
@<TRIPOS>ATOM
       1    C1      21.041212   20.446479   24.109700 C.3        1 MOL1        -0.1684
       2    H1      20.393010   20.886898   24.879356 H          1 MOL1         0.0833
       3    H2      22.055315   20.802180   24.337715 H          1 MOL1         0.0833
       4    C2      20.651462   21.019020   22.723876 C.3        1 MOL1        -0.1684
       5    H3      20.803654   22.106152   22.766136 H          1 MOL1         0.0833
       6    H4      21.353423   20.672374   21.956877 H          1 MOL1         0.0833
       7    C3      19.189405   20.777248   22.271987 C.3        1 MOL1        -0.1684
       8    H5      19.035726   21.335214   21.338119 H          1 MOL1         0.0833
       9    H6      18.504310   21.226730   23.003497 H          1 MOL1         0.0833
      10    C4      18.764658   19.306857   22.021355 C.3        1 MOL1        -0.1760
      11    H7      18.509113   18.820909   22.968503 H          1 MOL1         0.0833
      12    H8      17.819683   19.338104   21.462191 H          1 MOL1         0.0833
      13    C5      19.793649   18.450769   21.238498 C.3        1 MOL1         0.1219
      14    H9      20.481082   19.108328   20.689934 H          1 MOL1         0.0790
      15    C6      20.613981   17.476432   22.120894 C.3        1 MOL1        -0.1760
      16    H10     19.929315   16.837631   22.693939 H          1 MOL1         0.0833
      17    H11     21.161665   16.800349   21.450678 H          1 MOL1         0.0833
      18    C7      21.649921   18.110035   23.088568 C.3        1 MOL1        -0.1684
      19    H12     22.375492   18.721379   22.536663 H          1 MOL1         0.0833
      20    H13     22.236539   17.284945   23.515265 H          1 MOL1         0.0833
      21    C8      21.034880   18.904164   24.269936 C.3        1 MOL1        -0.1684
      22    H14     21.612675   18.671895   25.175063 H          1 MOL1         0.0833
      23    H15     20.024392   18.543076   24.492041 H          1 MOL1         0.0833
      24    O1      19.086044   17.665082   20.287628 O.3        1 MOL1        -0.5508
      25    H16     18.484765   17.086162   20.799740 H          1 MOL1         0.3780
@<TRIPOS>BOND
    1     1     2    1
    2     1     3    1
    3     1     4    1
    4     4     5    1
    5     4     6    1
    6     4     7    1
    7     7     8    1
    8     7     9    1
    9     7    10    1
   10    10    11    1
   11    10    12    1
   12    10    13    1
   13    13    14    1
   14    13    15    1
   15    15    16    1
   16    15    17    1
   17    15    18    1
   18    18    19    1
   19    18    20    1
   20     1    21    1
   21    18    21    1
   22    21    22    1
   23    21    23    1
   24    13    24    1
   25    24    25    1
@<TRIPOS>SUBSTRUCTURE
       1 MOL1            1 RESIDUE      1      MOL     
@<SCITEGIC>MOL_PROPERTY
VConf Rank
SciTegic.value.IntegerValue
467

@<SCITEGIC>MOL_PROPERTY
Conf_Id
SciTegic.value.IntegerValue
140

@<SCITEGIC>MOL_PROPERTY
Delta U+W
SciTegic.value.DoubleValue
-1.702

@<SCITEGIC>MOL_PROPERTY
U+W
SciTegic.value.DoubleValue
9.211

@<SCITEGIC>MOL_PROPERTY
Grad RMS
SciTegic.value.DoubleValue
0.000000

@<SCITEGIC>MOL_PROPERTY
U
SciTegic.value.DoubleValue
11.181

@<SCITEGIC>MOL_PROPERTY
W
SciTegic.value.DoubleValue
-1.969

@<SCITEGIC>MOL_PROPERTY
W(PB)
SciTegic.value.DoubleValue
-4.093

@<SCITEGIC>MOL_PROPERTY
W(SA)
SciTegic.value.DoubleValue
2.124

@<SCITEGIC>MOL_PROPERTY
Valence
SciTegic.value.DoubleValue
16.954

@<SCITEGIC>MOL_PROPERTY
Coulomb
SciTegic.value.DoubleValue
-8.661

@<SCITEGIC>MOL_PROPERTY
VdW
SciTegic.value.DoubleValue
2.887

@<SCITEGIC>MOL_PROPERTY
VdW6
SciTegic.value.DoubleValue
-12.561

@<SCITEGIC>MOL_PROPERTY
VdW12
SciTegic.value.DoubleValue
15.448

@<SCITEGIC>MOL_PROPERTY
Bond
SciTegic.value.DoubleValue
0.433

@<SCITEGIC>MOL_PROPERTY
Angle
SciTegic.value.DoubleValue
5.120

@<SCITEGIC>MOL_PROPERTY
Pdih
SciTegic.value.DoubleValue
11.401

@<SCITEGIC>MOL_PROPERTY
Idih
SciTegic.value.DoubleValue
0.000

@<SCITEGIC>MOL_PROPERTY
Tether
SciTegic.value.DoubleValue
0.000

@<TRIPOS>MOLECULE
guest-s17_confgen4.mol2 : confsearch ligand conformer 468
          25          25           1
SMALL
USER_CHARGES
 
@<TRIPOS>ATOM
       1    C1      21.444654   20.770690   23.250659 C.3        1 MOL1        -0.1684
       2    H1      21.732725   21.559069   22.542153 H          1 MOL1         0.0833
       3    H2      21.904300   21.050898   24.208327 H          1 MOL1         0.0833
       4    C2      22.079415   19.430769   22.796636 C.3        1 MOL1        -0.1684
       5    H3      22.014868   19.322058   21.708142 H          1 MOL1         0.0833
       6    H4      23.156810   19.499206   23.000570 H          1 MOL1         0.0833
       7    C3      21.534597   18.163029   23.504138 C.3        1 MOL1        -0.1684
       8    H5      21.125579   18.407304   24.492990 H          1 MOL1         0.0833
       9    H6      22.389809   17.502752   23.703163 H          1 MOL1         0.0833
      10    C4      20.512265   17.342100   22.672317 C.3        1 MOL1        -0.1760
      11    H7      20.963701   17.075785   21.707694 H          1 MOL1         0.0833
      12    H8      20.349614   16.391496   23.197799 H          1 MOL1         0.0833
      13    C5      19.125392   17.989821   22.431628 C.3        1 MOL1         0.1219
      14    H9      18.690272   18.282512   23.396446 H          1 MOL1         0.0790
      15    C6      19.149713   19.211659   21.477118 C.3        1 MOL1        -0.1760
      16    H10     20.036698   19.175083   20.836447 H          1 MOL1         0.0833
      17    H11     18.302396   19.144403   20.781312 H          1 MOL1         0.0833
      18    C7      19.051104   20.592673   22.175938 C.3        1 MOL1        -0.1684
      19    H12     18.000780   20.753742   22.455094 H          1 MOL1         0.0833
      20    H13     19.289373   21.379117   21.447081 H          1 MOL1         0.0833
      21    C8      19.908499   20.798386   23.449840 C.3        1 MOL1        -0.1684
      22    H14     19.612416   20.089368   24.231396 H          1 MOL1         0.0833
      23    H15     19.651003   21.784468   23.859890 H          1 MOL1         0.0833
      24    O1      18.288422   16.993963   21.857250 O.3        1 MOL1        -0.5508
      25    H16     18.698338   16.747262   21.002820 H          1 MOL1         0.3780
@<TRIPOS>BOND
    1     1     2    1
    2     1     3    1
    3     1     4    1
    4     4     5    1
    5     4     6    1
    6     4     7    1
    7     7     8    1
    8     7     9    1
    9     7    10    1
   10    10    11    1
   11    10    12    1
   12    10    13    1
   13    13    14    1
   14    13    15    1
   15    15    16    1
   16    15    17    1
   17    15    18    1
   18    18    19    1
   19    18    20    1
   20     1    21    1
   21    18    21    1
   22    21    22    1
   23    21    23    1
   24    13    24    1
   25    24    25    1
@<TRIPOS>SUBSTRUCTURE
       1 MOL1            1 RESIDUE      1      MOL     
@<SCITEGIC>MOL_PROPERTY
VConf Rank
SciTegic.value.IntegerValue
468

@<SCITEGIC>MOL_PROPERTY
Conf_Id
SciTegic.value.IntegerValue
68

@<SCITEGIC>MOL_PROPERTY
Delta U+W
SciTegic.value.DoubleValue
-1.765

@<SCITEGIC>MOL_PROPERTY
U+W
SciTegic.value.DoubleValue
9.148

@<SCITEGIC>MOL_PROPERTY
Grad RMS
SciTegic.value.DoubleValue
0.000000

@<SCITEGIC>MOL_PROPERTY
U
SciTegic.value.DoubleValue
11.181

@<SCITEGIC>MOL_PROPERTY
W
SciTegic.value.DoubleValue
-2.032

@<SCITEGIC>MOL_PROPERTY
W(PB)
SciTegic.value.DoubleValue
-4.147

@<SCITEGIC>MOL_PROPERTY
W(SA)
SciTegic.value.DoubleValue
2.114

@<SCITEGIC>MOL_PROPERTY
Valence
SciTegic.value.DoubleValue
16.955

@<SCITEGIC>MOL_PROPERTY
Coulomb
SciTegic.value.DoubleValue
-8.661

@<SCITEGIC>MOL_PROPERTY
VdW
SciTegic.value.DoubleValue
2.887

@<SCITEGIC>MOL_PROPERTY
VdW6
SciTegic.value.DoubleValue
-12.561

@<SCITEGIC>MOL_PROPERTY
VdW12
SciTegic.value.DoubleValue
15.448

@<SCITEGIC>MOL_PROPERTY
Bond
SciTegic.value.DoubleValue
0.433

@<SCITEGIC>MOL_PROPERTY
Angle
SciTegic.value.DoubleValue
5.121

@<SCITEGIC>MOL_PROPERTY
Pdih
SciTegic.value.DoubleValue
11.402

@<SCITEGIC>MOL_PROPERTY
Idih
SciTegic.value.DoubleValue
0.000

@<SCITEGIC>MOL_PROPERTY
Tether
SciTegic.value.DoubleValue
0.000

@<TRIPOS>MOLECULE
guest-s17_confgen4.mol2 : confsearch ligand conformer 469
          25          25           1
SMALL
USER_CHARGES
 
@<TRIPOS>ATOM
       1    C1      19.898346   18.803512   24.453183 C.3        1 MOL1        -0.1684
       2    H1      19.740831   18.683666   25.533878 H          1 MOL1         0.0833
       3    H2      19.813176   17.787169   24.052329 H          1 MOL1         0.0833
       4    C2      21.330140   19.357950   24.234400 C.3        1 MOL1        -0.1684
       5    H3      21.321422   20.451740   24.144061 H          1 MOL1         0.0833
       6    H4      21.906940   19.151356   25.146343 H          1 MOL1         0.0833
       7    C3      22.104299   18.714280   23.054158 C.3        1 MOL1        -0.1684
       8    H5      22.139957   17.624967   23.192721 H          1 MOL1         0.0833
       9    H6      23.147561   19.052948   23.115322 H          1 MOL1         0.0833
      10    C4      21.587596   19.032734   21.625817 C.3        1 MOL1        -0.1760
      11    H7      21.573295   20.116337   21.458014 H          1 MOL1         0.0833
      12    H8      22.337223   18.642250   20.924251 H          1 MOL1         0.0833
      13    C5      20.213461   18.400712   21.283488 C.3        1 MOL1         0.1219
      14    H9      20.020682   17.570035   21.972223 H          1 MOL1         0.0790
      15    C6      19.018124   19.384241   21.326900 C.3        1 MOL1        -0.1760
      16    H10     19.036469   19.995410   20.414918 H          1 MOL1         0.0833
      17    H11     18.088653   18.802052   21.279746 H          1 MOL1         0.0833
      18    C7      18.943716   20.355521   22.533192 C.3        1 MOL1        -0.1684
      19    H12     18.087595   21.022589   22.363486 H          1 MOL1         0.0833
      20    H13     19.814596   21.020923   22.543987 H          1 MOL1         0.0833
      21    C8      18.749465   19.700587   23.923683 C.3        1 MOL1        -0.1684
      22    H14     17.815671   19.122131   23.925735 H          1 MOL1         0.0833
      23    H15     18.596918   20.511391   24.649165 H          1 MOL1         0.0833
      24    O1      20.277178   17.863299   19.968265 O.3        1 MOL1        -0.5508
      25    H16     20.467283   18.615335   19.370611 H          1 MOL1         0.3780
@<TRIPOS>BOND
    1     1     2    1
    2     1     3    1
    3     1     4    1
    4     4     5    1
    5     4     6    1
    6     4     7    1
    7     7     8    1
    8     7     9    1
    9     7    10    1
   10    10    11    1
   11    10    12    1
   12    10    13    1
   13    13    14    1
   14    13    15    1
   15    15    16    1
   16    15    17    1
   17    15    18    1
   18    18    19    1
   19    18    20    1
   20     1    21    1
   21    18    21    1
   22    21    22    1
   23    21    23    1
   24    13    24    1
   25    24    25    1
@<TRIPOS>SUBSTRUCTURE
       1 MOL1            1 RESIDUE      1      MOL     
@<SCITEGIC>MOL_PROPERTY
VConf Rank
SciTegic.value.IntegerValue
469

@<SCITEGIC>MOL_PROPERTY
Conf_Id
SciTegic.value.IntegerValue
165

@<SCITEGIC>MOL_PROPERTY
Delta U+W
SciTegic.value.DoubleValue
-1.999

@<SCITEGIC>MOL_PROPERTY
U+W
SciTegic.value.DoubleValue
8.915

@<SCITEGIC>MOL_PROPERTY
Grad RMS
SciTegic.value.DoubleValue
0.000000

@<SCITEGIC>MOL_PROPERTY
U
SciTegic.value.DoubleValue
10.935

@<SCITEGIC>MOL_PROPERTY
W
SciTegic.value.DoubleValue
-2.020

@<SCITEGIC>MOL_PROPERTY
W(PB)
SciTegic.value.DoubleValue
-4.135

@<SCITEGIC>MOL_PROPERTY
W(SA)
SciTegic.value.DoubleValue
2.115

@<SCITEGIC>MOL_PROPERTY
Valence
SciTegic.value.DoubleValue
16.757

@<SCITEGIC>MOL_PROPERTY
Coulomb
SciTegic.value.DoubleValue
-8.731

@<SCITEGIC>MOL_PROPERTY
VdW
SciTegic.value.DoubleValue
2.908

@<SCITEGIC>MOL_PROPERTY
VdW6
SciTegic.value.DoubleValue
-12.597

@<SCITEGIC>MOL_PROPERTY
VdW12
SciTegic.value.DoubleValue
15.506

@<SCITEGIC>MOL_PROPERTY
Bond
SciTegic.value.DoubleValue
0.434

@<SCITEGIC>MOL_PROPERTY
Angle
SciTegic.value.DoubleValue
5.069

@<SCITEGIC>MOL_PROPERTY
Pdih
SciTegic.value.DoubleValue
11.254

@<SCITEGIC>MOL_PROPERTY
Idih
SciTegic.value.DoubleValue
0.000

@<SCITEGIC>MOL_PROPERTY
Tether
SciTegic.value.DoubleValue
0.000

@<TRIPOS>MOLECULE
guest-s17_confgen4.mol2 : confsearch ligand conformer 470
          25          25           1
SMALL
USER_CHARGES
 
@<TRIPOS>ATOM
       1    C1      18.551279   19.639393   22.403637 C.3        1 MOL1        -0.1684
       2    H1      17.507633   19.886992   22.165768 H          1 MOL1         0.0833
       3    H2      18.625277   19.789232   23.486631 H          1 MOL1         0.0833
       4    C2      19.443105   20.657154   21.645838 C.3        1 MOL1        -0.1684
       5    H3      19.020540   20.787612   20.640141 H          1 MOL1         0.0833
       6    H4      19.357131   21.638249   22.132283 H          1 MOL1         0.0833
       7    C3      20.940666   20.299123   21.474186 C.3        1 MOL1        -0.1684
       8    H5      21.391532   21.073151   20.838340 H          1 MOL1         0.0833
       9    H6      21.047181   19.372423   20.898708 H          1 MOL1         0.0833
      10    C4      21.777792   20.227057   22.777281 C.3        1 MOL1        -0.1760
      11    H7      22.825989   20.074488   22.486557 H          1 MOL1         0.0833
      12    H8      21.741223   21.203822   23.276591 H          1 MOL1         0.0833
      13    C5      21.396138   19.131529   23.802912 C.3        1 MOL1         0.1219
      14    H9      20.506666   19.450509   24.358745 H          1 MOL1         0.0790
      15    C6      21.130246   17.733767   23.186675 C.3        1 MOL1        -0.1760
      16    H10     21.626301   17.635240   22.213876 H          1 MOL1         0.0833
      17    H11     21.603669   16.976869   23.826603 H          1 MOL1         0.0833
      18    C7      19.629658   17.353986   23.072690 C.3        1 MOL1        -0.1684
      19    H12     19.160222   17.429089   24.063133 H          1 MOL1         0.0833
      20    H13     19.573882   16.291191   22.800420 H          1 MOL1         0.0833
      21    C8      18.786340   18.149636   22.041854 C.3        1 MOL1        -0.1684
      22    H14     17.802511   17.663470   21.989561 H          1 MOL1         0.0833
      23    H15     19.208074   18.049249   21.033553 H          1 MOL1         0.0833
      24    O1      22.472212   19.020406   24.727699 O.3        1 MOL1        -0.5508
      25    H16     22.588273   19.904953   25.133342 H          1 MOL1         0.3780
@<TRIPOS>BOND
    1     1     2    1
    2     1     3    1
    3     1     4    1
    4     4     5    1
    5     4     6    1
    6     4     7    1
    7     7     8    1
    8     7     9    1
    9     7    10    1
   10    10    11    1
   11    10    12    1
   12    10    13    1
   13    13    14    1
   14    13    15    1
   15    15    16    1
   16    15    17    1
   17    15    18    1
   18    18    19    1
   19    18    20    1
   20     1    21    1
   21    18    21    1
   22    21    22    1
   23    21    23    1
   24    13    24    1
   25    24    25    1
@<TRIPOS>SUBSTRUCTURE
       1 MOL1            1 RESIDUE      1      MOL     
@<SCITEGIC>MOL_PROPERTY
VConf Rank
SciTegic.value.IntegerValue
470

@<SCITEGIC>MOL_PROPERTY
Conf_Id
SciTegic.value.IntegerValue
133

@<SCITEGIC>MOL_PROPERTY
Delta U+W
SciTegic.value.DoubleValue
-2.139

@<SCITEGIC>MOL_PROPERTY
U+W
SciTegic.value.DoubleValue
8.774

@<SCITEGIC>MOL_PROPERTY
Grad RMS
SciTegic.value.DoubleValue
0.000000

@<SCITEGIC>MOL_PROPERTY
U
SciTegic.value.DoubleValue
10.905

@<SCITEGIC>MOL_PROPERTY
W
SciTegic.value.DoubleValue
-2.131

@<SCITEGIC>MOL_PROPERTY
W(PB)
SciTegic.value.DoubleValue
-4.281

@<SCITEGIC>MOL_PROPERTY
W(SA)
SciTegic.value.DoubleValue
2.150

@<SCITEGIC>MOL_PROPERTY
Valence
SciTegic.value.DoubleValue
16.378

@<SCITEGIC>MOL_PROPERTY
Coulomb
SciTegic.value.DoubleValue
-8.448

@<SCITEGIC>MOL_PROPERTY
VdW
SciTegic.value.DoubleValue
2.976

@<SCITEGIC>MOL_PROPERTY
VdW6
SciTegic.value.DoubleValue
-12.570

@<SCITEGIC>MOL_PROPERTY
VdW12
SciTegic.value.DoubleValue
15.545

@<SCITEGIC>MOL_PROPERTY
Bond
SciTegic.value.DoubleValue
0.439

@<SCITEGIC>MOL_PROPERTY
Angle
SciTegic.value.DoubleValue
5.049

@<SCITEGIC>MOL_PROPERTY
Pdih
SciTegic.value.DoubleValue
10.889

@<SCITEGIC>MOL_PROPERTY
Idih
SciTegic.value.DoubleValue
0.000

@<SCITEGIC>MOL_PROPERTY
Tether
SciTegic.value.DoubleValue
0.000

@<TRIPOS>MOLECULE
guest-s17_confgen4.mol2 : confsearch ligand conformer 471
          25          25           1
SMALL
USER_CHARGES
 
@<TRIPOS>ATOM
       1    C1      20.501459   19.448733   24.469297 C.3        1 MOL1        -0.1684
       2    H1      20.557239   19.631215   25.551274 H          1 MOL1         0.0833
       3    H2      21.414336   18.886847   24.241822 H          1 MOL1         0.0833
       4    C2      20.512699   20.822234   23.748958 C.3        1 MOL1        -0.1684
       5    H3      19.492224   21.165364   23.535644 H          1 MOL1         0.0833
       6    H4      20.920990   21.560627   24.452581 H          1 MOL1         0.0833
       7    C3      21.391201   20.880924   22.471592 C.3        1 MOL1        -0.1684
       8    H5      22.418101   20.580882   22.721469 H          1 MOL1         0.0833
       9    H6      21.459146   21.932496   22.161185 H          1 MOL1         0.0833
      10    C4      20.900089   20.059110   21.249945 C.3        1 MOL1        -0.1760
      11    H7      19.886994   20.365150   20.963420 H          1 MOL1         0.0833
      12    H8      21.534967   20.341092   20.399094 H          1 MOL1         0.0833
      13    C5      20.981314   18.521554   21.432992 C.3        1 MOL1         0.1219
      14    H9      21.684264   18.296246   22.243519 H          1 MOL1         0.0790
      15    C6      19.625314   17.834067   21.726885 C.3        1 MOL1        -0.1760
      16    H10     19.063907   17.766331   20.785211 H          1 MOL1         0.0833
      17    H11     19.816488   16.799727   22.040428 H          1 MOL1         0.0833
      18    C7      18.700216   18.510968   22.770928 C.3        1 MOL1        -0.1684
      19    H12     17.763420   17.937922   22.797925 H          1 MOL1         0.0833
      20    H13     18.403485   19.509339   22.429610 H          1 MOL1         0.0833
      21    C8      19.243136   18.576852   24.220494 C.3        1 MOL1        -0.1684
      22    H14     19.437658   17.558249   24.582679 H          1 MOL1         0.0833
      23    H15     18.435559   18.967170   24.854906 H          1 MOL1         0.0833
      24    O1      21.497742   17.950606   20.235982 O.3        1 MOL1        -0.5508
      25    H16     21.580423   16.987208   20.395564 H          1 MOL1         0.3780
@<TRIPOS>BOND
    1     1     2    1
    2     1     3    1
    3     1     4    1
    4     4     5    1
    5     4     6    1
    6     4     7    1
    7     7     8    1
    8     7     9    1
    9     7    10    1
   10    10    11    1
   11    10    12    1
   12    10    13    1
   13    13    14    1
   14    13    15    1
   15    15    16    1
   16    15    17    1
   17    15    18    1
   18    18    19    1
   19    18    20    1
   20     1    21    1
   21    18    21    1
   22    21    22    1
   23    21    23    1
   24    13    24    1
   25    24    25    1
@<TRIPOS>SUBSTRUCTURE
       1 MOL1            1 RESIDUE      1      MOL     
@<SCITEGIC>MOL_PROPERTY
VConf Rank
SciTegic.value.IntegerValue
471

@<SCITEGIC>MOL_PROPERTY
Conf_Id
SciTegic.value.IntegerValue
95

@<SCITEGIC>MOL_PROPERTY
Delta U+W
SciTegic.value.DoubleValue
-2.190

@<SCITEGIC>MOL_PROPERTY
U+W
SciTegic.value.DoubleValue
8.723

@<SCITEGIC>MOL_PROPERTY
Grad RMS
SciTegic.value.DoubleValue
0.000000

@<SCITEGIC>MOL_PROPERTY
U
SciTegic.value.DoubleValue
10.905

@<SCITEGIC>MOL_PROPERTY
W
SciTegic.value.DoubleValue
-2.182

@<SCITEGIC>MOL_PROPERTY
W(PB)
SciTegic.value.DoubleValue
-4.296

@<SCITEGIC>MOL_PROPERTY
W(SA)
SciTegic.value.DoubleValue
2.114

@<SCITEGIC>MOL_PROPERTY
Valence
SciTegic.value.DoubleValue
16.377

@<SCITEGIC>MOL_PROPERTY
Coulomb
SciTegic.value.DoubleValue
-8.448

@<SCITEGIC>MOL_PROPERTY
VdW
SciTegic.value.DoubleValue
2.976

@<SCITEGIC>MOL_PROPERTY
VdW6
SciTegic.value.DoubleValue
-12.570

@<SCITEGIC>MOL_PROPERTY
VdW12
SciTegic.value.DoubleValue
15.546

@<SCITEGIC>MOL_PROPERTY
Bond
SciTegic.value.DoubleValue
0.439

@<SCITEGIC>MOL_PROPERTY
Angle
SciTegic.value.DoubleValue
5.049

@<SCITEGIC>MOL_PROPERTY
Pdih
SciTegic.value.DoubleValue
10.889

@<SCITEGIC>MOL_PROPERTY
Idih
SciTegic.value.DoubleValue
0.000

@<SCITEGIC>MOL_PROPERTY
Tether
SciTegic.value.DoubleValue
0.000

@<TRIPOS>MOLECULE
guest-s17_confgen4.mol2 : confsearch ligand conformer 472
          25          25           1
SMALL
USER_CHARGES
 
@<TRIPOS>ATOM
       1    C1      18.726852   18.323206   23.057538 C.3        1 MOL1        -0.1684
       2    H1      17.793246   17.759135   23.188325 H          1 MOL1         0.0833
       3    H2      18.643420   19.126957   23.795953 H          1 MOL1         0.0833
       4    C2      18.714805   18.893812   21.608924 C.3        1 MOL1        -0.1684
       5    H3      18.217182   18.152478   20.968817 H          1 MOL1         0.0833
       6    H4      18.070132   19.782691   21.581356 H          1 MOL1         0.0833
       7    C3      20.074631   19.226159   20.940407 C.3        1 MOL1        -0.1684
       8    H5      19.873530   19.498316   19.895272 H          1 MOL1         0.0833
       9    H6      20.669347   18.311117   20.856503 H          1 MOL1         0.0833
      10    C4      20.916651   20.380236   21.561398 C.3        1 MOL1        -0.1760
      11    H7      21.962259   20.265398   21.246931 H          1 MOL1         0.0833
      12    H8      20.569230   21.314593   21.101464 H          1 MOL1         0.0833
      13    C5      20.868705   20.578950   23.097596 C.3        1 MOL1         0.1219
      14    H9      19.824619   20.737418   23.386715 H          1 MOL1         0.0790
      15    C6      21.485660   19.451024   23.973805 C.3        1 MOL1        -0.1760
      16    H10     22.562251   19.646983   24.067977 H          1 MOL1         0.0833
      17    H11     21.079359   19.542387   24.989118 H          1 MOL1         0.0833
      18    C7      21.335165   17.979621   23.501214 C.3        1 MOL1        -0.1684
      19    H12     21.921282   17.350196   24.184590 H          1 MOL1         0.0833
      20    H13     21.843190   17.854900   22.539743 H          1 MOL1         0.0833
      21    C8      19.897847   17.383839   23.449583 C.3        1 MOL1        -0.1684
      22    H14     19.670034   16.988311   24.448846 H          1 MOL1         0.0833
      23    H15     19.899091   16.510766   22.783110 H          1 MOL1         0.0833
      24    O1      21.575223   21.778123   23.393280 O.3        1 MOL1        -0.5508
      25    H16     21.139371   22.495333   22.887612 H          1 MOL1         0.3780
@<TRIPOS>BOND
    1     1     2    1
    2     1     3    1
    3     1     4    1
    4     4     5    1
    5     4     6    1
    6     4     7    1
    7     7     8    1
    8     7     9    1
    9     7    10    1
   10    10    11    1
   11    10    12    1
   12    10    13    1
   13    13    14    1
   14    13    15    1
   15    15    16    1
   16    15    17    1
   17    15    18    1
   18    18    19    1
   19    18    20    1
   20     1    21    1
   21    18    21    1
   22    21    22    1
   23    21    23    1
   24    13    24    1
   25    24    25    1
@<TRIPOS>SUBSTRUCTURE
       1 MOL1            1 RESIDUE      1      MOL     
@<SCITEGIC>MOL_PROPERTY
VConf Rank
SciTegic.value.IntegerValue
472

@<SCITEGIC>MOL_PROPERTY
Conf_Id
SciTegic.value.IntegerValue
161

@<SCITEGIC>MOL_PROPERTY
Delta U+W
SciTegic.value.DoubleValue
2.120

@<SCITEGIC>MOL_PROPERTY
U+W
SciTegic.value.DoubleValue
13.033

@<SCITEGIC>MOL_PROPERTY
Grad RMS
SciTegic.value.DoubleValue
0.000000

@<SCITEGIC>MOL_PROPERTY
U
SciTegic.value.DoubleValue
15.076

@<SCITEGIC>MOL_PROPERTY
W
SciTegic.value.DoubleValue
-2.043

@<SCITEGIC>MOL_PROPERTY
W(PB)
SciTegic.value.DoubleValue
-4.186

@<SCITEGIC>MOL_PROPERTY
W(SA)
SciTegic.value.DoubleValue
2.143

@<SCITEGIC>MOL_PROPERTY
Valence
SciTegic.value.DoubleValue
18.884

@<SCITEGIC>MOL_PROPERTY
Coulomb
SciTegic.value.DoubleValue
-8.074

@<SCITEGIC>MOL_PROPERTY
VdW
SciTegic.value.DoubleValue
4.266

@<SCITEGIC>MOL_PROPERTY
VdW6
SciTegic.value.DoubleValue
-13.486

@<SCITEGIC>MOL_PROPERTY
VdW12
SciTegic.value.DoubleValue
17.752

@<SCITEGIC>MOL_PROPERTY
Bond
SciTegic.value.DoubleValue
0.713

@<SCITEGIC>MOL_PROPERTY
Angle
SciTegic.value.DoubleValue
8.955

@<SCITEGIC>MOL_PROPERTY
Pdih
SciTegic.value.DoubleValue
9.215

@<SCITEGIC>MOL_PROPERTY
Idih
SciTegic.value.DoubleValue
0.000

@<SCITEGIC>MOL_PROPERTY
Tether
SciTegic.value.DoubleValue
0.000

@<TRIPOS>MOLECULE
guest-s17_confgen4.mol2 : confsearch ligand conformer 473
          25          25           1
SMALL
USER_CHARGES
 
@<TRIPOS>ATOM
       1    C1      21.556463   20.217133   23.792806 C.3        1 MOL1        -0.1684
       2    H1      22.036464   20.943420   24.462951 H          1 MOL1         0.0833
       3    H2      22.380014   19.596665   23.417282 H          1 MOL1         0.0833
       4    C2      20.909070   21.000260   22.623502 C.3        1 MOL1        -0.1684
       5    H3      19.896619   21.332529   22.889445 H          1 MOL1         0.0833
       6    H4      21.492964   21.922228   22.496164 H          1 MOL1         0.0833
       7    C3      20.918776   20.269003   21.252189 C.3        1 MOL1        -0.1684
       8    H5      21.847644   19.699661   21.113121 H          1 MOL1         0.0833
       9    H6      20.937247   21.047982   20.477560 H          1 MOL1         0.0833
      10    C4      19.680105   19.381167   20.965977 C.3        1 MOL1        -0.1760
      11    H7      18.787323   19.831382   21.416771 H          1 MOL1         0.0833
      12    H8      19.494239   19.406920   19.884116 H          1 MOL1         0.0833
      13    C5      19.803980   17.886301   21.355669 C.3        1 MOL1         0.1219
      14    H9      20.515392   17.414765   20.662618 H          1 MOL1         0.0790
      15    C6      20.290390   17.587741   22.792732 C.3        1 MOL1        -0.1760
      16    H10     20.111790   16.524656   23.002580 H          1 MOL1         0.0833
      17    H11     21.380023   17.693407   22.828757 H          1 MOL1         0.0833
      18    C7      19.614210   18.437424   23.901808 C.3        1 MOL1        -0.1684
      19    H12     19.150000   17.760476   24.631863 H          1 MOL1         0.0833
      20    H13     18.784196   19.028814   23.498778 H          1 MOL1         0.0833
      21    C8      20.586792   19.371850   24.660502 C.3        1 MOL1        -0.1684
      22    H14     21.187209   18.767755   25.354316 H          1 MOL1         0.0833
      23    H15     19.992927   20.048082   25.290435 H          1 MOL1         0.0833
      24    O1      18.529769   17.281738   21.184619 O.3        1 MOL1        -0.5508
      25    H16     17.969338   17.628697   21.908045 H          1 MOL1         0.3780
@<TRIPOS>BOND
    1     1     2    1
    2     1     3    1
    3     1     4    1
    4     4     5    1
    5     4     6    1
    6     4     7    1
    7     7     8    1
    8     7     9    1
    9     7    10    1
   10    10    11    1
   11    10    12    1
   12    10    13    1
   13    13    14    1
   14    13    15    1
   15    15    16    1
   16    15    17    1
   17    15    18    1
   18    18    19    1
   19    18    20    1
   20     1    21    1
   21    18    21    1
   22    21    22    1
   23    21    23    1
   24    13    24    1
   25    24    25    1
@<TRIPOS>SUBSTRUCTURE
       1 MOL1            1 RESIDUE      1      MOL     
@<SCITEGIC>MOL_PROPERTY
VConf Rank
SciTegic.value.IntegerValue
473

@<SCITEGIC>MOL_PROPERTY
Conf_Id
SciTegic.value.IntegerValue
164

@<SCITEGIC>MOL_PROPERTY
Delta U+W
SciTegic.value.DoubleValue
0.008

@<SCITEGIC>MOL_PROPERTY
U+W
SciTegic.value.DoubleValue
10.922

@<SCITEGIC>MOL_PROPERTY
Grad RMS
SciTegic.value.DoubleValue
0.000000

@<SCITEGIC>MOL_PROPERTY
U
SciTegic.value.DoubleValue
12.433

@<SCITEGIC>MOL_PROPERTY
W
SciTegic.value.DoubleValue
-1.511

@<SCITEGIC>MOL_PROPERTY
W(PB)
SciTegic.value.DoubleValue
-3.669

@<SCITEGIC>MOL_PROPERTY
W(SA)
SciTegic.value.DoubleValue
2.157

@<SCITEGIC>MOL_PROPERTY
Valence
SciTegic.value.DoubleValue
19.007

@<SCITEGIC>MOL_PROPERTY
Coulomb
SciTegic.value.DoubleValue
-9.373

@<SCITEGIC>MOL_PROPERTY
VdW
SciTegic.value.DoubleValue
2.799

@<SCITEGIC>MOL_PROPERTY
VdW6
SciTegic.value.DoubleValue
-12.597

@<SCITEGIC>MOL_PROPERTY
VdW12
SciTegic.value.DoubleValue
15.396

@<SCITEGIC>MOL_PROPERTY
Bond
SciTegic.value.DoubleValue
0.425

@<SCITEGIC>MOL_PROPERTY
Angle
SciTegic.value.DoubleValue
4.784

@<SCITEGIC>MOL_PROPERTY
Pdih
SciTegic.value.DoubleValue
13.799

@<SCITEGIC>MOL_PROPERTY
Idih
SciTegic.value.DoubleValue
0.000

@<SCITEGIC>MOL_PROPERTY
Tether
SciTegic.value.DoubleValue
0.000

@<TRIPOS>MOLECULE
guest-s17_confgen4.mol2 : confsearch ligand conformer 474
          25          25           1
SMALL
USER_CHARGES
 
@<TRIPOS>ATOM
       1    C1      20.843070   17.493327   22.907832 C.3        1 MOL1        -0.1684
       2    H1      21.770826   18.062726   22.781439 H          1 MOL1         0.0833
       3    H2      21.173973   16.458598   23.070650 H          1 MOL1         0.0833
       4    C2      20.015457   17.510668   21.598452 C.3        1 MOL1        -0.1684
       5    H3      20.633955   17.056107   20.812490 H          1 MOL1         0.0833
       6    H4      19.145161   16.849957   21.710493 H          1 MOL1         0.0833
       7    C3      19.535433   18.891828   21.083928 C.3        1 MOL1        -0.1684
       8    H5      18.612425   19.192580   21.592520 H          1 MOL1         0.0833
       9    H6      19.240318   18.761521   20.033723 H          1 MOL1         0.0833
      10    C4      20.590335   20.028106   21.153453 C.3        1 MOL1        -0.1760
      11    H7      21.608218   19.619929   21.144288 H          1 MOL1         0.0833
      12    H8      20.503119   20.611238   20.226852 H          1 MOL1         0.0833
      13    C5      20.404905   21.018667   22.330261 C.3        1 MOL1         0.1219
      14    H9      19.372598   21.395623   22.301174 H          1 MOL1         0.0790
      15    C6      20.676466   20.464452   23.751380 C.3        1 MOL1        -0.1760
      16    H10     21.697187   20.070639   23.827666 H          1 MOL1         0.0833
      17    H11     20.642806   21.318965   24.440519 H          1 MOL1         0.0833
      18    C7      19.640603   19.424550   24.255734 C.3        1 MOL1        -0.1684
      19    H12     18.683534   19.552835   23.737443 H          1 MOL1         0.0833
      20    H13     19.415208   19.647298   25.307677 H          1 MOL1         0.0833
      21    C8      20.101397   17.945985   24.190307 C.3        1 MOL1        -0.1684
      22    H14     19.232892   17.294341   24.356339 H          1 MOL1         0.0833
      23    H15     20.774133   17.766140   25.040004 H          1 MOL1         0.0833
      24    O1      21.288992   22.110610   22.117542 O.3        1 MOL1        -0.5508
      25    H16     22.195632   21.742119   22.149254 H          1 MOL1         0.3780
@<TRIPOS>BOND
    1     1     2    1
    2     1     3    1
    3     1     4    1
    4     4     5    1
    5     4     6    1
    6     4     7    1
    7     7     8    1
    8     7     9    1
    9     7    10    1
   10    10    11    1
   11    10    12    1
   12    10    13    1
   13    13    14    1
   14    13    15    1
   15    15    16    1
   16    15    17    1
   17    15    18    1
   18    18    19    1
   19    18    20    1
   20     1    21    1
   21    18    21    1
   22    21    22    1
   23    21    23    1
   24    13    24    1
   25    24    25    1
@<TRIPOS>SUBSTRUCTURE
       1 MOL1            1 RESIDUE      1      MOL     
@<SCITEGIC>MOL_PROPERTY
VConf Rank
SciTegic.value.IntegerValue
474

@<SCITEGIC>MOL_PROPERTY
Conf_Id
SciTegic.value.IntegerValue
15

@<SCITEGIC>MOL_PROPERTY
Delta U+W
SciTegic.value.DoubleValue
-1.271

@<SCITEGIC>MOL_PROPERTY
U+W
SciTegic.value.DoubleValue
9.643

@<SCITEGIC>MOL_PROPERTY
Grad RMS
SciTegic.value.DoubleValue
0.000000

@<SCITEGIC>MOL_PROPERTY
U
SciTegic.value.DoubleValue
11.413

@<SCITEGIC>MOL_PROPERTY
W
SciTegic.value.DoubleValue
-1.770

@<SCITEGIC>MOL_PROPERTY
W(PB)
SciTegic.value.DoubleValue
-3.908

@<SCITEGIC>MOL_PROPERTY
W(SA)
SciTegic.value.DoubleValue
2.138

@<SCITEGIC>MOL_PROPERTY
Valence
SciTegic.value.DoubleValue
17.496

@<SCITEGIC>MOL_PROPERTY
Coulomb
SciTegic.value.DoubleValue
-8.736

@<SCITEGIC>MOL_PROPERTY
VdW
SciTegic.value.DoubleValue
2.653

@<SCITEGIC>MOL_PROPERTY
VdW6
SciTegic.value.DoubleValue
-12.485

@<SCITEGIC>MOL_PROPERTY
VdW12
SciTegic.value.DoubleValue
15.138

@<SCITEGIC>MOL_PROPERTY
Bond
SciTegic.value.DoubleValue
0.414

@<SCITEGIC>MOL_PROPERTY
Angle
SciTegic.value.DoubleValue
5.295

@<SCITEGIC>MOL_PROPERTY
Pdih
SciTegic.value.DoubleValue
11.787

@<SCITEGIC>MOL_PROPERTY
Idih
SciTegic.value.DoubleValue
0.000

@<SCITEGIC>MOL_PROPERTY
Tether
SciTegic.value.DoubleValue
0.000

@<TRIPOS>MOLECULE
guest-s17_confgen4.mol2 : confsearch ligand conformer 475
          25          25           1
SMALL
USER_CHARGES
 
@<TRIPOS>ATOM
       1    C1      21.827177   20.301000   22.091579 C.3        1 MOL1        -0.1684
       2    H1      22.722252   20.926979   21.973371 H          1 MOL1         0.0833
       3    H2      21.188880   20.561754   21.237912 H          1 MOL1         0.0833
       4    C2      22.291640   18.823837   21.996244 C.3        1 MOL1        -0.1684
       5    H3      22.645057   18.643103   20.971912 H          1 MOL1         0.0833
       6    H4      23.168343   18.684485   22.643352 H          1 MOL1         0.0833
       7    C3      21.245132   17.742352   22.357552 C.3        1 MOL1        -0.1684
       8    H5      21.160388   17.663654   23.447688 H          1 MOL1         0.0833
       9    H6      21.637017   16.767870   22.035687 H          1 MOL1         0.0833
      10    C4      19.855704   17.961184   21.704057 C.3        1 MOL1        -0.1760
      11    H7      19.894825   18.766717   20.962453 H          1 MOL1         0.0833
      12    H8      19.596687   17.061830   21.130237 H          1 MOL1         0.0833
      13    C5      18.708643   18.219776   22.707874 C.3        1 MOL1         0.1219
      14    H9      18.473581   17.263737   23.197327 H          1 MOL1         0.0790
      15    C6      18.990266   19.250359   23.831737 C.3        1 MOL1        -0.1760
      16    H10     18.035218   19.438862   24.340345 H          1 MOL1         0.0833
      17    H11     19.626333   18.799825   24.603067 H          1 MOL1         0.0833
      18    C7      19.581210   20.618839   23.399200 C.3        1 MOL1        -0.1684
      19    H12     19.215267   21.363283   24.119638 H          1 MOL1         0.0833
      20    H13     19.179315   20.935552   22.428125 H          1 MOL1         0.0833
      21    C8      21.132335   20.705619   23.415230 C.3        1 MOL1        -0.1684
      22    H14     21.552870   20.148527   24.263160 H          1 MOL1         0.0833
      23    H15     21.390201   21.757179   23.602053 H          1 MOL1         0.0833
      24    O1      17.568637   18.650120   21.977396 O.3        1 MOL1        -0.5508
      25    H16     17.787660   19.542102   21.640438 H          1 MOL1         0.3780
@<TRIPOS>BOND
    1     1     2    1
    2     1     3    1
    3     1     4    1
    4     4     5    1
    5     4     6    1
    6     4     7    1
    7     7     8    1
    8     7     9    1
    9     7    10    1
   10    10    11    1
   11    10    12    1
   12    10    13    1
   13    13    14    1
   14    13    15    1
   15    15    16    1
   16    15    17    1
   17    15    18    1
   18    18    19    1
   19    18    20    1
   20     1    21    1
   21    18    21    1
   22    21    22    1
   23    21    23    1
   24    13    24    1
   25    24    25    1
@<TRIPOS>SUBSTRUCTURE
       1 MOL1            1 RESIDUE      1      MOL     
@<SCITEGIC>MOL_PROPERTY
VConf Rank
SciTegic.value.IntegerValue
475

@<SCITEGIC>MOL_PROPERTY
Conf_Id
SciTegic.value.IntegerValue
115

@<SCITEGIC>MOL_PROPERTY
Delta U+W
SciTegic.value.DoubleValue
0.038

@<SCITEGIC>MOL_PROPERTY
U+W
SciTegic.value.DoubleValue
10.952

@<SCITEGIC>MOL_PROPERTY
Grad RMS
SciTegic.value.DoubleValue
0.000000

@<SCITEGIC>MOL_PROPERTY
U
SciTegic.value.DoubleValue
12.526

@<SCITEGIC>MOL_PROPERTY
W
SciTegic.value.DoubleValue
-1.575

@<SCITEGIC>MOL_PROPERTY
W(PB)
SciTegic.value.DoubleValue
-3.698

@<SCITEGIC>MOL_PROPERTY
W(SA)
SciTegic.value.DoubleValue
2.123

@<SCITEGIC>MOL_PROPERTY
Valence
SciTegic.value.DoubleValue
19.016

@<SCITEGIC>MOL_PROPERTY
Coulomb
SciTegic.value.DoubleValue
-9.226

@<SCITEGIC>MOL_PROPERTY
VdW
SciTegic.value.DoubleValue
2.737

@<SCITEGIC>MOL_PROPERTY
VdW6
SciTegic.value.DoubleValue
-12.612

@<SCITEGIC>MOL_PROPERTY
VdW12
SciTegic.value.DoubleValue
15.349

@<SCITEGIC>MOL_PROPERTY
Bond
SciTegic.value.DoubleValue
0.421

@<SCITEGIC>MOL_PROPERTY
Angle
SciTegic.value.DoubleValue
4.883

@<SCITEGIC>MOL_PROPERTY
Pdih
SciTegic.value.DoubleValue
13.711

@<SCITEGIC>MOL_PROPERTY
Idih
SciTegic.value.DoubleValue
0.000

@<SCITEGIC>MOL_PROPERTY
Tether
SciTegic.value.DoubleValue
0.000

@<TRIPOS>MOLECULE
guest-s17_confgen4.mol2 : confsearch ligand conformer 476
          25          25           1
SMALL
USER_CHARGES
 
@<TRIPOS>ATOM
       1    C1      20.656729   17.308892   23.495204 C.3        1 MOL1        -0.1684
       2    H1      21.255449   16.547369   24.013472 H          1 MOL1         0.0833
       3    H2      19.630071   16.918597   23.484296 H          1 MOL1         0.0833
       4    C2      21.199131   17.416910   22.051019 C.3        1 MOL1        -0.1684
       5    H3      22.263074   17.689600   22.067152 H          1 MOL1         0.0833
       6    H4      21.158944   16.411858   21.609145 H          1 MOL1         0.0833
       7    C3      20.415992   18.375739   21.124609 C.3        1 MOL1        -0.1684
       8    H5      19.335399   18.261809   21.283719 H          1 MOL1         0.0833
       9    H6      20.593909   18.051368   20.090060 H          1 MOL1         0.0833
      10    C4      20.851636   19.862141   21.228360 C.3        1 MOL1        -0.1760
      11    H7      21.802681   19.962325   21.766213 H          1 MOL1         0.0833
      12    H8      21.054168   20.215804   20.208329 H          1 MOL1         0.0833
      13    C5      19.790953   20.796717   21.852438 C.3        1 MOL1         0.1219
      14    H9      18.792270   20.461985   21.537386 H          1 MOL1         0.0790
      15    C6      19.830142   20.876639   23.394680 C.3        1 MOL1        -0.1760
      16    H10     20.801196   21.268625   23.724818 H          1 MOL1         0.0833
      17    H11     19.085914   21.621129   23.706561 H          1 MOL1         0.0833
      18    C7      19.508608   19.556469   24.136595 C.3        1 MOL1        -0.1684
      19    H12     18.670846   19.038688   23.650705 H          1 MOL1         0.0833
      20    H13     19.143152   19.824773   25.137437 H          1 MOL1         0.0833
      21    C8      20.724750   18.612324   24.325249 C.3        1 MOL1        -0.1684
      22    H14     20.754524   18.323168   25.384827 H          1 MOL1         0.0833
      23    H15     21.672559   19.135202   24.140627 H          1 MOL1         0.0833
      24    O1      20.011335   22.109545   21.350875 O.3        1 MOL1        -0.5508
      25    H16     19.298411   22.675084   21.714522 H          1 MOL1         0.3780
@<TRIPOS>BOND
    1     1     2    1
    2     1     3    1
    3     1     4    1
    4     4     5    1
    5     4     6    1
    6     4     7    1
    7     7     8    1
    8     7     9    1
    9     7    10    1
   10    10    11    1
   11    10    12    1
   12    10    13    1
   13    13    14    1
   14    13    15    1
   15    15    16    1
   16    15    17    1
   17    15    18    1
   18    18    19    1
   19    18    20    1
   20     1    21    1
   21    18    21    1
   22    21    22    1
   23    21    23    1
   24    13    24    1
   25    24    25    1
@<TRIPOS>SUBSTRUCTURE
       1 MOL1            1 RESIDUE      1      MOL     
@<SCITEGIC>MOL_PROPERTY
VConf Rank
SciTegic.value.IntegerValue
476

@<SCITEGIC>MOL_PROPERTY
Conf_Id
SciTegic.value.IntegerValue
30

@<SCITEGIC>MOL_PROPERTY
Delta U+W
SciTegic.value.DoubleValue
0.000

@<SCITEGIC>MOL_PROPERTY
U+W
SciTegic.value.DoubleValue
10.913

@<SCITEGIC>MOL_PROPERTY
Grad RMS
SciTegic.value.DoubleValue
0.000000

@<SCITEGIC>MOL_PROPERTY
U
SciTegic.value.DoubleValue
13.140

@<SCITEGIC>MOL_PROPERTY
W
SciTegic.value.DoubleValue
-2.227

@<SCITEGIC>MOL_PROPERTY
W(PB)
SciTegic.value.DoubleValue
-4.367

@<SCITEGIC>MOL_PROPERTY
W(SA)
SciTegic.value.DoubleValue
2.140

@<SCITEGIC>MOL_PROPERTY
Valence
SciTegic.value.DoubleValue
19.155

@<SCITEGIC>MOL_PROPERTY
Coulomb
SciTegic.value.DoubleValue
-8.157

@<SCITEGIC>MOL_PROPERTY
VdW
SciTegic.value.DoubleValue
2.142

@<SCITEGIC>MOL_PROPERTY
VdW6
SciTegic.value.DoubleValue
-11.576

@<SCITEGIC>MOL_PROPERTY
VdW12
SciTegic.value.DoubleValue
13.718

@<SCITEGIC>MOL_PROPERTY
Bond
SciTegic.value.DoubleValue
0.294

@<SCITEGIC>MOL_PROPERTY
Angle
SciTegic.value.DoubleValue
3.547

@<SCITEGIC>MOL_PROPERTY
Pdih
SciTegic.value.DoubleValue
15.314

@<SCITEGIC>MOL_PROPERTY
Idih
SciTegic.value.DoubleValue
0.000

@<SCITEGIC>MOL_PROPERTY
Tether
SciTegic.value.DoubleValue
0.000

@<TRIPOS>MOLECULE
guest-s17_confgen4.mol2 : confsearch ligand conformer 477
          25          25           1
SMALL
USER_CHARGES
 
@<TRIPOS>ATOM
       1    C1      19.688907   18.966781   20.622432 C.3        1 MOL1        -0.1684
       2    H1      20.114522   18.400366   19.782859 H          1 MOL1         0.0833
       3    H2      18.817289   19.494968   20.212466 H          1 MOL1         0.0833
       4    C2      20.725691   20.022994   21.078040 C.3        1 MOL1        -0.1684
       5    H3      21.148896   20.491379   20.178939 H          1 MOL1         0.0833
       6    H4      20.214155   20.839535   21.600674 H          1 MOL1         0.0833
       7    C3      21.886665   19.454046   21.932579 C.3        1 MOL1        -0.1684
       8    H5      22.839496   19.720726   21.455418 H          1 MOL1         0.0833
       9    H6      21.872619   18.357949   21.935563 H          1 MOL1         0.0833
      10    C4      21.915643   19.980130   23.389958 C.3        1 MOL1        -0.1760
      11    H7      22.643261   19.386007   23.958597 H          1 MOL1         0.0833
      12    H8      22.305756   21.006238   23.381063 H          1 MOL1         0.0833
      13    C5      20.568586   19.996370   24.155039 C.3        1 MOL1         0.1219
      14    H9      19.926033   20.783798   23.739023 H          1 MOL1         0.0790
      15    C6      19.786983   18.659911   24.138559 C.3        1 MOL1        -0.1760
      16    H10     20.482382   17.811845   24.096655 H          1 MOL1         0.0833
      17    H11     19.263756   18.558679   25.098757 H          1 MOL1         0.0833
      18    C7      18.706270   18.546142   23.026415 C.3        1 MOL1        -0.1684
      19    H12     18.203297   19.508391   22.860531 H          1 MOL1         0.0833
      20    H13     17.926730   17.871886   23.407116 H          1 MOL1         0.0833
      21    C8      19.202890   17.947535   21.687072 C.3        1 MOL1        -0.1684
      22    H14     18.370052   17.389245   21.237894 H          1 MOL1         0.0833
      23    H15     19.974596   17.190992   21.877970 H          1 MOL1         0.0833
      24    O1      20.857676   20.331107   25.507294 O.3        1 MOL1        -0.5508
      25    H16     19.996485   20.418282   25.966863 H          1 MOL1         0.3780
@<TRIPOS>BOND
    1     1     2    1
    2     1     3    1
    3     1     4    1
    4     4     5    1
    5     4     6    1
    6     4     7    1
    7     7     8    1
    8     7     9    1
    9     7    10    1
   10    10    11    1
   11    10    12    1
   12    10    13    1
   13    13    14    1
   14    13    15    1
   15    15    16    1
   16    15    17    1
   17    15    18    1
   18    18    19    1
   19    18    20    1
   20     1    21    1
   21    18    21    1
   22    21    22    1
   23    21    23    1
   24    13    24    1
   25    24    25    1
@<TRIPOS>SUBSTRUCTURE
       1 MOL1            1 RESIDUE      1      MOL     
@<SCITEGIC>MOL_PROPERTY
VConf Rank
SciTegic.value.IntegerValue
477

@<SCITEGIC>MOL_PROPERTY
Conf_Id
SciTegic.value.IntegerValue
162

@<SCITEGIC>MOL_PROPERTY
Delta U+W
SciTegic.value.DoubleValue
0.219

@<SCITEGIC>MOL_PROPERTY
U+W
SciTegic.value.DoubleValue
11.132

@<SCITEGIC>MOL_PROPERTY
Grad RMS
SciTegic.value.DoubleValue
0.000000

@<SCITEGIC>MOL_PROPERTY
U
SciTegic.value.DoubleValue
13.296

@<SCITEGIC>MOL_PROPERTY
W
SciTegic.value.DoubleValue
-2.164

@<SCITEGIC>MOL_PROPERTY
W(PB)
SciTegic.value.DoubleValue
-4.311

@<SCITEGIC>MOL_PROPERTY
W(SA)
SciTegic.value.DoubleValue
2.148

@<SCITEGIC>MOL_PROPERTY
Valence
SciTegic.value.DoubleValue
18.607

@<SCITEGIC>MOL_PROPERTY
Coulomb
SciTegic.value.DoubleValue
-8.339

@<SCITEGIC>MOL_PROPERTY
VdW
SciTegic.value.DoubleValue
3.028

@<SCITEGIC>MOL_PROPERTY
VdW6
SciTegic.value.DoubleValue
-12.271

@<SCITEGIC>MOL_PROPERTY
VdW12
SciTegic.value.DoubleValue
15.299

@<SCITEGIC>MOL_PROPERTY
Bond
SciTegic.value.DoubleValue
0.423

@<SCITEGIC>MOL_PROPERTY
Angle
SciTegic.value.DoubleValue
4.488

@<SCITEGIC>MOL_PROPERTY
Pdih
SciTegic.value.DoubleValue
13.696

@<SCITEGIC>MOL_PROPERTY
Idih
SciTegic.value.DoubleValue
0.000

@<SCITEGIC>MOL_PROPERTY
Tether
SciTegic.value.DoubleValue
0.000

@<TRIPOS>MOLECULE
guest-s17_confgen4.mol2 : confsearch ligand conformer 478
          25          25           1
SMALL
USER_CHARGES
 
@<TRIPOS>ATOM
       1    C1      19.747641   21.085525   22.209703 C.3        1 MOL1        -0.1684
       2    H1      20.653575   21.178378   21.597447 H          1 MOL1         0.0833
       3    H2      19.210313   22.031917   22.059413 H          1 MOL1         0.0833
       4    C2      18.858059   19.939304   21.667006 C.3        1 MOL1        -0.1684
       5    H3      18.153735   19.594933   22.436140 H          1 MOL1         0.0833
       6    H4      18.233054   20.370125   20.872713 H          1 MOL1         0.0833
       7    C3      19.628216   18.745851   21.036061 C.3        1 MOL1        -0.1684
       8    H5      20.514888   19.091131   20.487644 H          1 MOL1         0.0833
       9    H6      18.967652   18.309220   20.274393 H          1 MOL1         0.0833
      10    C4      19.997003   17.603343   22.017825 C.3        1 MOL1        -0.1760
      11    H7      19.217722   17.501343   22.783078 H          1 MOL1         0.0833
      12    H8      19.969329   16.658921   21.458794 H          1 MOL1         0.0833
      13    C5      21.398027   17.686093   22.674794 C.3        1 MOL1         0.1219
      14    H9      22.147291   17.481006   21.896567 H          1 MOL1         0.0790
      15    C6      21.770354   19.039218   23.326313 C.3        1 MOL1        -0.1760
      16    H10     22.677815   18.899483   23.927967 H          1 MOL1         0.0833
      17    H11     22.069659   19.741557   22.541001 H          1 MOL1         0.0833
      18    C7      20.665375   19.653122   24.226102 C.3        1 MOL1        -0.1684
      19    H12     21.075274   19.807149   25.233385 H          1 MOL1         0.0833
      20    H13     19.838031   18.947519   24.366584 H          1 MOL1         0.0833
      21    C8      20.111537   21.005512   23.716115 C.3        1 MOL1        -0.1684
      22    H14     20.848094   21.791495   23.931647 H          1 MOL1         0.0833
      23    H15     19.222645   21.258427   24.309931 H          1 MOL1         0.0833
      24    O1      21.473388   16.669418   23.667162 O.3        1 MOL1        -0.5508
      25    H16     22.362033   16.737330   24.073136 H          1 MOL1         0.3780
@<TRIPOS>BOND
    1     1     2    1
    2     1     3    1
    3     1     4    1
    4     4     5    1
    5     4     6    1
    6     4     7    1
    7     7     8    1
    8     7     9    1
    9     7    10    1
   10    10    11    1
   11    10    12    1
   12    10    13    1
   13    13    14    1
   14    13    15    1
   15    15    16    1
   16    15    17    1
   17    15    18    1
   18    18    19    1
   19    18    20    1
   20     1    21    1
   21    18    21    1
   22    21    22    1
   23    21    23    1
   24    13    24    1
   25    24    25    1
@<TRIPOS>SUBSTRUCTURE
       1 MOL1            1 RESIDUE      1      MOL     
@<SCITEGIC>MOL_PROPERTY
VConf Rank
SciTegic.value.IntegerValue
478

@<SCITEGIC>MOL_PROPERTY
Conf_Id
SciTegic.value.IntegerValue
155

@<SCITEGIC>MOL_PROPERTY
Delta U+W
SciTegic.value.DoubleValue
0.339

@<SCITEGIC>MOL_PROPERTY
U+W
SciTegic.value.DoubleValue
11.252

@<SCITEGIC>MOL_PROPERTY
Grad RMS
SciTegic.value.DoubleValue
0.000000

@<SCITEGIC>MOL_PROPERTY
U
SciTegic.value.DoubleValue
13.420

@<SCITEGIC>MOL_PROPERTY
W
SciTegic.value.DoubleValue
-2.167

@<SCITEGIC>MOL_PROPERTY
W(PB)
SciTegic.value.DoubleValue
-4.325

@<SCITEGIC>MOL_PROPERTY
W(SA)
SciTegic.value.DoubleValue
2.157

@<SCITEGIC>MOL_PROPERTY
Valence
SciTegic.value.DoubleValue
18.609

@<SCITEGIC>MOL_PROPERTY
Coulomb
SciTegic.value.DoubleValue
-8.052

@<SCITEGIC>MOL_PROPERTY
VdW
SciTegic.value.DoubleValue
2.863

@<SCITEGIC>MOL_PROPERTY
VdW6
SciTegic.value.DoubleValue
-12.524

@<SCITEGIC>MOL_PROPERTY
VdW12
SciTegic.value.DoubleValue
15.387

@<SCITEGIC>MOL_PROPERTY
Bond
SciTegic.value.DoubleValue
0.430

@<SCITEGIC>MOL_PROPERTY
Angle
SciTegic.value.DoubleValue
4.724

@<SCITEGIC>MOL_PROPERTY
Pdih
SciTegic.value.DoubleValue
13.455

@<SCITEGIC>MOL_PROPERTY
Idih
SciTegic.value.DoubleValue
0.000

@<SCITEGIC>MOL_PROPERTY
Tether
SciTegic.value.DoubleValue
0.000

@<TRIPOS>MOLECULE
guest-s17_confgen4.mol2 : confsearch ligand conformer 479
          25          25           1
SMALL
USER_CHARGES
 
@<TRIPOS>ATOM
       1    C1      19.584484   18.638467   24.436027 C.3        1 MOL1        -0.1684
       2    H1      20.142466   17.832238   24.930992 H          1 MOL1         0.0833
       3    H2      18.755805   18.880226   25.115458 H          1 MOL1         0.0833
       4    C2      20.480412   19.902105   24.350293 C.3        1 MOL1        -0.1684
       5    H3      19.889310   20.738898   23.964915 H          1 MOL1         0.0833
       6    H4      20.720572   20.208877   25.377391 H          1 MOL1         0.0833
       7    C3      21.829267   19.777617   23.583280 C.3        1 MOL1        -0.1684
       8    H5      22.578849   19.404772   24.294382 H          1 MOL1         0.0833
       9    H6      22.170022   20.781929   23.296991 H          1 MOL1         0.0833
      10    C4      21.882243   18.848998   22.339590 C.3        1 MOL1        -0.1760
      11    H7      22.932057   18.780897   22.025663 H          1 MOL1         0.0833
      12    H8      21.647679   17.825569   22.645082 H          1 MOL1         0.0833
      13    C5      21.037579   19.247945   21.093921 C.3        1 MOL1         0.1219
      14    H9      20.850786   18.335470   20.509740 H          1 MOL1         0.0790
      15    C6      19.674743   19.942485   21.340562 C.3        1 MOL1        -0.1760
      16    H10     19.844837   20.886268   21.866739 H          1 MOL1         0.0833
      17    H11     19.283547   20.257382   20.364124 H          1 MOL1         0.0833
      18    C7      18.550604   19.115782   22.034232 C.3        1 MOL1        -0.1684
      19    H12     18.020140   18.559084   21.249672 H          1 MOL1         0.0833
      20    H13     17.808573   19.808083   22.454270 H          1 MOL1         0.0833
      21    C8      18.960819   18.086917   23.120439 C.3        1 MOL1        -0.1684
      22    H14     19.606178   17.324290   22.673350 H          1 MOL1         0.0833
      23    H15     18.059315   17.525895   23.402261 H          1 MOL1         0.0833
      24    O1      21.818817   20.138056   20.304266 O.3        1 MOL1        -0.5508
      25    H16     22.659619   19.676620   20.105846 H          1 MOL1         0.3780
@<TRIPOS>BOND
    1     1     2    1
    2     1     3    1
    3     1     4    1
    4     4     5    1
    5     4     6    1
    6     4     7    1
    7     7     8    1
    8     7     9    1
    9     7    10    1
   10    10    11    1
   11    10    12    1
   12    10    13    1
   13    13    14    1
   14    13    15    1
   15    15    16    1
   16    15    17    1
   17    15    18    1
   18    18    19    1
   19    18    20    1
   20     1    21    1
   21    18    21    1
   22    21    22    1
   23    21    23    1
   24    13    24    1
   25    24    25    1
@<TRIPOS>SUBSTRUCTURE
       1 MOL1            1 RESIDUE      1      MOL     
@<SCITEGIC>MOL_PROPERTY
VConf Rank
SciTegic.value.IntegerValue
479

@<SCITEGIC>MOL_PROPERTY
Conf_Id
SciTegic.value.IntegerValue
146

@<SCITEGIC>MOL_PROPERTY
Delta U+W
SciTegic.value.DoubleValue
2.553

@<SCITEGIC>MOL_PROPERTY
U+W
SciTegic.value.DoubleValue
13.466

@<SCITEGIC>MOL_PROPERTY
Grad RMS
SciTegic.value.DoubleValue
0.000000

@<SCITEGIC>MOL_PROPERTY
U
SciTegic.value.DoubleValue
15.643

@<SCITEGIC>MOL_PROPERTY
W
SciTegic.value.DoubleValue
-2.176

@<SCITEGIC>MOL_PROPERTY
W(PB)
SciTegic.value.DoubleValue
-4.307

@<SCITEGIC>MOL_PROPERTY
W(SA)
SciTegic.value.DoubleValue
2.131

@<SCITEGIC>MOL_PROPERTY
Valence
SciTegic.value.DoubleValue
18.916

@<SCITEGIC>MOL_PROPERTY
Coulomb
SciTegic.value.DoubleValue
-7.506

@<SCITEGIC>MOL_PROPERTY
VdW
SciTegic.value.DoubleValue
4.232

@<SCITEGIC>MOL_PROPERTY
VdW6
SciTegic.value.DoubleValue
-13.632

@<SCITEGIC>MOL_PROPERTY
VdW12
SciTegic.value.DoubleValue
17.864

@<SCITEGIC>MOL_PROPERTY
Bond
SciTegic.value.DoubleValue
0.735

@<SCITEGIC>MOL_PROPERTY
Angle
SciTegic.value.DoubleValue
9.140

@<SCITEGIC>MOL_PROPERTY
Pdih
SciTegic.value.DoubleValue
9.042

@<SCITEGIC>MOL_PROPERTY
Idih
SciTegic.value.DoubleValue
0.000

@<SCITEGIC>MOL_PROPERTY
Tether
SciTegic.value.DoubleValue
0.000

@<TRIPOS>MOLECULE
guest-s17_confgen4.mol2 : confsearch ligand conformer 480
          25          25           1
SMALL
USER_CHARGES
 
@<TRIPOS>ATOM
       1    C1      21.050988   17.990638   24.134614 C.3        1 MOL1        -0.1684
       2    H1      21.756181   18.327992   24.906236 H          1 MOL1         0.0833
       3    H2      20.871953   16.926721   24.341834 H          1 MOL1         0.0833
       4    C2      21.730417   18.083108   22.745382 C.3        1 MOL1        -0.1684
       5    H3      22.608668   17.423580   22.767720 H          1 MOL1         0.0833
       6    H4      21.081735   17.652012   21.974335 H          1 MOL1         0.0833
       7    C3      22.222301   19.488917   22.318610 C.3        1 MOL1        -0.1684
       8    H5      22.779132   19.373128   21.378656 H          1 MOL1         0.0833
       9    H6      22.951247   19.857146   23.053109 H          1 MOL1         0.0833
      10    C4      21.138188   20.575725   22.096687 C.3        1 MOL1        -0.1760
      11    H7      20.841186   21.017529   23.053070 H          1 MOL1         0.0833
      12    H8      21.615247   21.400487   21.550135 H          1 MOL1         0.0833
      13    C5      19.886003   20.105911   21.312225 C.3        1 MOL1         0.1219
      14    H9      20.126664   19.197065   20.744488 H          1 MOL1         0.0790
      15    C6      18.643664   19.842270   22.200397 C.3        1 MOL1        -0.1760
      16    H10     18.425471   20.741736   22.791221 H          1 MOL1         0.0833
      17    H11     17.777792   19.704259   21.539671 H          1 MOL1         0.0833
      18    C7      18.704304   18.610731   23.144452 C.3        1 MOL1        -0.1684
      19    H12     18.882645   17.690367   22.573554 H          1 MOL1         0.0833
      20    H13     17.701962   18.489339   23.577532 H          1 MOL1         0.0833
      21    C8      19.706635   18.740704   24.320429 C.3        1 MOL1        -0.1684
      22    H14     19.230706   18.330542   25.221704 H          1 MOL1         0.0833
      23    H15     19.882625   19.795103   24.561455 H          1 MOL1         0.0833
      24    O1      19.535020   21.128318   20.386566 O.3        1 MOL1        -0.5508
      25    H16     18.780363   20.788569   19.861891 H          1 MOL1         0.3780
@<TRIPOS>BOND
    1     1     2    1
    2     1     3    1
    3     1     4    1
    4     4     5    1
    5     4     6    1
    6     4     7    1
    7     7     8    1
    8     7     9    1
    9     7    10    1
   10    10    11    1
   11    10    12    1
   12    10    13    1
   13    13    14    1
   14    13    15    1
   15    15    16    1
   16    15    17    1
   17    15    18    1
   18    18    19    1
   19    18    20    1
   20     1    21    1
   21    18    21    1
   22    21    22    1
   23    21    23    1
   24    13    24    1
   25    24    25    1
@<TRIPOS>SUBSTRUCTURE
       1 MOL1            1 RESIDUE      1      MOL     
@<SCITEGIC>MOL_PROPERTY
VConf Rank
SciTegic.value.IntegerValue
480

@<SCITEGIC>MOL_PROPERTY
Conf_Id
SciTegic.value.IntegerValue
62

@<SCITEGIC>MOL_PROPERTY
Delta U+W
SciTegic.value.DoubleValue
-1.779

@<SCITEGIC>MOL_PROPERTY
U+W
SciTegic.value.DoubleValue
9.134

@<SCITEGIC>MOL_PROPERTY
Grad RMS
SciTegic.value.DoubleValue
0.000000

@<SCITEGIC>MOL_PROPERTY
U
SciTegic.value.DoubleValue
11.364

@<SCITEGIC>MOL_PROPERTY
W
SciTegic.value.DoubleValue
-2.230

@<SCITEGIC>MOL_PROPERTY
W(PB)
SciTegic.value.DoubleValue
-4.359

@<SCITEGIC>MOL_PROPERTY
W(SA)
SciTegic.value.DoubleValue
2.129

@<SCITEGIC>MOL_PROPERTY
Valence
SciTegic.value.DoubleValue
16.582

@<SCITEGIC>MOL_PROPERTY
Coulomb
SciTegic.value.DoubleValue
-8.150

@<SCITEGIC>MOL_PROPERTY
VdW
SciTegic.value.DoubleValue
2.933

@<SCITEGIC>MOL_PROPERTY
VdW6
SciTegic.value.DoubleValue
-12.531

@<SCITEGIC>MOL_PROPERTY
VdW12
SciTegic.value.DoubleValue
15.464

@<SCITEGIC>MOL_PROPERTY
Bond
SciTegic.value.DoubleValue
0.439

@<SCITEGIC>MOL_PROPERTY
Angle
SciTegic.value.DoubleValue
5.099

@<SCITEGIC>MOL_PROPERTY
Pdih
SciTegic.value.DoubleValue
11.044

@<SCITEGIC>MOL_PROPERTY
Idih
SciTegic.value.DoubleValue
0.000

@<SCITEGIC>MOL_PROPERTY
Tether
SciTegic.value.DoubleValue
0.000

@<TRIPOS>MOLECULE
guest-s17_confgen4.mol2 : confsearch ligand conformer 481
          25          25           1
SMALL
USER_CHARGES
 
@<TRIPOS>ATOM
       1    C1      18.909019   18.337585   23.457146 C.3        1 MOL1        -0.1684
       2    H1      19.433294   17.539586   22.919134 H          1 MOL1         0.0833
       3    H2      18.038861   17.841552   23.908163 H          1 MOL1         0.0833
       4    C2      18.370820   19.396356   22.462662 C.3        1 MOL1        -0.1684
       5    H3      17.680643   18.884037   21.778505 H          1 MOL1         0.0833
       6    H4      17.759693   20.128472   23.007663 H          1 MOL1         0.0833
       7    C3      19.415104   20.153400   21.602966 C.3        1 MOL1        -0.1684
       8    H5      19.840616   20.992467   22.165015 H          1 MOL1         0.0833
       9    H6      18.870368   20.626276   20.774307 H          1 MOL1         0.0833
      10    C4      20.542989   19.272623   21.001782 C.3        1 MOL1        -0.1760
      11    H7      20.222441   18.227333   20.913073 H          1 MOL1         0.0833
      12    H8      20.705910   19.613630   19.970999 H          1 MOL1         0.0833
      13    C5      21.903616   19.362554   21.737989 C.3        1 MOL1         0.1219
      14    H9      22.185321   20.422722   21.813266 H          1 MOL1         0.0790
      15    C6      21.959828   18.747666   23.158785 C.3        1 MOL1        -0.1760
      16    H10     21.681816   17.687160   23.130086 H          1 MOL1         0.0833
      17    H11     23.012334   18.761304   23.471604 H          1 MOL1         0.0833
      18    C7      21.146040   19.511984   24.237273 C.3        1 MOL1        -0.1684
      19    H12     21.011604   20.559899   23.946160 H          1 MOL1         0.0833
      20    H13     21.749613   19.556996   25.154127 H          1 MOL1         0.0833
      21    C8      19.785516   18.873274   24.616677 C.3        1 MOL1        -0.1684
      22    H14     19.205026   19.595074   25.207032 H          1 MOL1         0.0833
      23    H15     19.987185   18.030909   25.292423 H          1 MOL1         0.0833
      24    O1      22.870317   18.688687   20.941862 O.3        1 MOL1        -0.5508
      25    H16     22.874219   19.130187   20.067099 H          1 MOL1         0.3780
@<TRIPOS>BOND
    1     1     2    1
    2     1     3    1
    3     1     4    1
    4     4     5    1
    5     4     6    1
    6     4     7    1
    7     7     8    1
    8     7     9    1
    9     7    10    1
   10    10    11    1
   11    10    12    1
   12    10    13    1
   13    13    14    1
   14    13    15    1
   15    15    16    1
   16    15    17    1
   17    15    18    1
   18    18    19    1
   19    18    20    1
   20     1    21    1
   21    18    21    1
   22    21    22    1
   23    21    23    1
   24    13    24    1
   25    24    25    1
@<TRIPOS>SUBSTRUCTURE
       1 MOL1            1 RESIDUE      1      MOL     
@<SCITEGIC>MOL_PROPERTY
VConf Rank
SciTegic.value.IntegerValue
481

@<SCITEGIC>MOL_PROPERTY
Conf_Id
SciTegic.value.IntegerValue
121

@<SCITEGIC>MOL_PROPERTY
Delta U+W
SciTegic.value.DoubleValue
-1.283

@<SCITEGIC>MOL_PROPERTY
U+W
SciTegic.value.DoubleValue
9.630

@<SCITEGIC>MOL_PROPERTY
Grad RMS
SciTegic.value.DoubleValue
0.000000

@<SCITEGIC>MOL_PROPERTY
U
SciTegic.value.DoubleValue
11.876

@<SCITEGIC>MOL_PROPERTY
W
SciTegic.value.DoubleValue
-2.246

@<SCITEGIC>MOL_PROPERTY
W(PB)
SciTegic.value.DoubleValue
-4.376

@<SCITEGIC>MOL_PROPERTY
W(SA)
SciTegic.value.DoubleValue
2.130

@<SCITEGIC>MOL_PROPERTY
Valence
SciTegic.value.DoubleValue
17.153

@<SCITEGIC>MOL_PROPERTY
Coulomb
SciTegic.value.DoubleValue
-7.966

@<SCITEGIC>MOL_PROPERTY
VdW
SciTegic.value.DoubleValue
2.689

@<SCITEGIC>MOL_PROPERTY
VdW6
SciTegic.value.DoubleValue
-12.458

@<SCITEGIC>MOL_PROPERTY
VdW12
SciTegic.value.DoubleValue
15.147

@<SCITEGIC>MOL_PROPERTY
Bond
SciTegic.value.DoubleValue
0.421

@<SCITEGIC>MOL_PROPERTY
Angle
SciTegic.value.DoubleValue
5.258

@<SCITEGIC>MOL_PROPERTY
Pdih
SciTegic.value.DoubleValue
11.475

@<SCITEGIC>MOL_PROPERTY
Idih
SciTegic.value.DoubleValue
0.000

@<SCITEGIC>MOL_PROPERTY
Tether
SciTegic.value.DoubleValue
0.000

@<TRIPOS>MOLECULE
guest-s17_confgen4.mol2 : confsearch ligand conformer 482
          25          25           1
SMALL
USER_CHARGES
 
@<TRIPOS>ATOM
       1    C1      20.465423   18.113023   21.200150 C.3        1 MOL1        -0.1684
       2    H1      21.141871   17.671857   21.941038 H          1 MOL1         0.0833
       3    H2      20.517725   17.433423   20.338729 H          1 MOL1         0.0833
       4    C2      21.000062   19.489890   20.733116 C.3        1 MOL1        -0.1684
       5    H3      21.991068   19.324136   20.288915 H          1 MOL1         0.0833
       6    H4      20.368404   19.866947   19.917444 H          1 MOL1         0.0833
       7    C3      21.143171   20.594937   21.810759 C.3        1 MOL1        -0.1684
       8    H5      20.184323   21.099712   21.974337 H          1 MOL1         0.0833
       9    H6      21.795315   21.373447   21.391740 H          1 MOL1         0.0833
      10    C4      21.750600   20.129627   23.161348 C.3        1 MOL1        -0.1760
      11    H7      22.367096   19.232088   23.030408 H          1 MOL1         0.0833
      12    H8      22.446438   20.911136   23.494309 H          1 MOL1         0.0833
      13    C5      20.725113   19.922263   24.303842 C.3        1 MOL1         0.1219
      14    H9      20.128651   20.841111   24.398351 H          1 MOL1         0.0790
      15    C6      19.752678   18.725832   24.147928 C.3        1 MOL1        -0.1760
      16    H10     20.311391   17.787743   24.042668 H          1 MOL1         0.0833
      17    H11     19.199818   18.628856   25.091477 H          1 MOL1         0.0833
      18    C7      18.702602   18.880384   23.015337 C.3        1 MOL1        -0.1684
      19    H12     18.534656   19.939301   22.788441 H          1 MOL1         0.0833
      20    H13     17.734719   18.523921   23.393702 H          1 MOL1         0.0833
      21    C8      19.005844   18.087394   21.718445 C.3        1 MOL1        -0.1684
      22    H14     18.332232   18.433923   20.923047 H          1 MOL1         0.0833
      23    H15     18.738703   17.036859   21.897053 H          1 MOL1         0.0833
      24    O1      21.458497   19.728256   25.506727 O.3        1 MOL1        -0.5508
      25    H16     20.802164   19.666507   26.231685 H          1 MOL1         0.3780
@<TRIPOS>BOND
    1     1     2    1
    2     1     3    1
    3     1     4    1
    4     4     5    1
    5     4     6    1
    6     4     7    1
    7     7     8    1
    8     7     9    1
    9     7    10    1
   10    10    11    1
   11    10    12    1
   12    10    13    1
   13    13    14    1
   14    13    15    1
   15    15    16    1
   16    15    17    1
   17    15    18    1
   18    18    19    1
   19    18    20    1
   20     1    21    1
   21    18    21    1
   22    21    22    1
   23    21    23    1
   24    13    24    1
   25    24    25    1
@<TRIPOS>SUBSTRUCTURE
       1 MOL1            1 RESIDUE      1      MOL     
@<SCITEGIC>MOL_PROPERTY
VConf Rank
SciTegic.value.IntegerValue
482

@<SCITEGIC>MOL_PROPERTY
Conf_Id
SciTegic.value.IntegerValue
24

@<SCITEGIC>MOL_PROPERTY
Delta U+W
SciTegic.value.DoubleValue
-1.236

@<SCITEGIC>MOL_PROPERTY
U+W
SciTegic.value.DoubleValue
9.678

@<SCITEGIC>MOL_PROPERTY
Grad RMS
SciTegic.value.DoubleValue
0.000000

@<SCITEGIC>MOL_PROPERTY
U
SciTegic.value.DoubleValue
11.876

@<SCITEGIC>MOL_PROPERTY
W
SciTegic.value.DoubleValue
-2.199

@<SCITEGIC>MOL_PROPERTY
W(PB)
SciTegic.value.DoubleValue
-4.335

@<SCITEGIC>MOL_PROPERTY
W(SA)
SciTegic.value.DoubleValue
2.137

@<SCITEGIC>MOL_PROPERTY
Valence
SciTegic.value.DoubleValue
17.153

@<SCITEGIC>MOL_PROPERTY
Coulomb
SciTegic.value.DoubleValue
-7.966

@<SCITEGIC>MOL_PROPERTY
VdW
SciTegic.value.DoubleValue
2.689

@<SCITEGIC>MOL_PROPERTY
VdW6
SciTegic.value.DoubleValue
-12.458

@<SCITEGIC>MOL_PROPERTY
VdW12
SciTegic.value.DoubleValue
15.147

@<SCITEGIC>MOL_PROPERTY
Bond
SciTegic.value.DoubleValue
0.421

@<SCITEGIC>MOL_PROPERTY
Angle
SciTegic.value.DoubleValue
5.258

@<SCITEGIC>MOL_PROPERTY
Pdih
SciTegic.value.DoubleValue
11.475

@<SCITEGIC>MOL_PROPERTY
Idih
SciTegic.value.DoubleValue
0.000

@<SCITEGIC>MOL_PROPERTY
Tether
SciTegic.value.DoubleValue
0.000

@<TRIPOS>MOLECULE
guest-s17_confgen4.mol2 : confsearch ligand conformer 483
          25          25           1
SMALL
USER_CHARGES
 
@<TRIPOS>ATOM
       1    C1      18.328325   18.961869   21.739483 C.3        1 MOL1        -0.1684
       2    H1      17.388647   19.098825   22.291773 H          1 MOL1         0.0833
       3    H2      18.035606   18.643765   20.729543 H          1 MOL1         0.0833
       4    C2      19.044182   20.333470   21.619231 C.3        1 MOL1        -0.1684
       5    H3      19.793514   20.309419   20.817847 H          1 MOL1         0.0833
       6    H4      18.292200   21.057431   21.276494 H          1 MOL1         0.0833
       7    C3      19.678042   20.885711   22.919966 C.3        1 MOL1        -0.1684
       8    H5      19.075856   20.608291   23.795675 H          1 MOL1         0.0833
       9    H6      19.620255   21.981409   22.862442 H          1 MOL1         0.0833
      10    C4      21.175552   20.523633   23.130421 C.3        1 MOL1        -0.1760
      11    H7      21.714665   20.520769   22.174477 H          1 MOL1         0.0833
      12    H8      21.616651   21.342723   23.714778 H          1 MOL1         0.0833
      13    C5      21.427656   19.204329   23.900459 C.3        1 MOL1         0.1219
      14    H9      20.581524   19.028699   24.577873 H          1 MOL1         0.0790
      15    C6      21.644432   17.950253   23.016089 C.3        1 MOL1        -0.1760
      16    H10     22.628782   18.010428   22.533589 H          1 MOL1         0.0833
      17    H11     21.687232   17.077800   23.681382 H          1 MOL1         0.0833
      18    C7      20.584635   17.675816   21.919662 C.3        1 MOL1        -0.1684
      19    H12     20.738460   16.654571   21.545289 H          1 MOL1         0.0833
      20    H13     20.772294   18.321826   21.054130 H          1 MOL1         0.0833
      21    C8      19.120054   17.811081   22.407575 C.3        1 MOL1        -0.1684
      22    H14     19.075081   17.917652   23.497656 H          1 MOL1         0.0833
      23    H15     18.592086   16.870662   22.198449 H          1 MOL1         0.0833
      24    O1      22.595618   19.366546   24.694977 O.3        1 MOL1        -0.5508
      25    H16     23.331513   19.541946   24.073151 H          1 MOL1         0.3780
@<TRIPOS>BOND
    1     1     2    1
    2     1     3    1
    3     1     4    1
    4     4     5    1
    5     4     6    1
    6     4     7    1
    7     7     8    1
    8     7     9    1
    9     7    10    1
   10    10    11    1
   11    10    12    1
   12    10    13    1
   13    13    14    1
   14    13    15    1
   15    15    16    1
   16    15    17    1
   17    15    18    1
   18    18    19    1
   19    18    20    1
   20     1    21    1
   21    18    21    1
   22    21    22    1
   23    21    23    1
   24    13    24    1
   25    24    25    1
@<TRIPOS>SUBSTRUCTURE
       1 MOL1            1 RESIDUE      1      MOL     
@<SCITEGIC>MOL_PROPERTY
VConf Rank
SciTegic.value.IntegerValue
483

@<SCITEGIC>MOL_PROPERTY
Conf_Id
SciTegic.value.IntegerValue
167

@<SCITEGIC>MOL_PROPERTY
Delta U+W
SciTegic.value.DoubleValue
0.388

@<SCITEGIC>MOL_PROPERTY
U+W
SciTegic.value.DoubleValue
11.301

@<SCITEGIC>MOL_PROPERTY
Grad RMS
SciTegic.value.DoubleValue
0.000000

@<SCITEGIC>MOL_PROPERTY
U
SciTegic.value.DoubleValue
13.202

@<SCITEGIC>MOL_PROPERTY
W
SciTegic.value.DoubleValue
-1.901

@<SCITEGIC>MOL_PROPERTY
W(PB)
SciTegic.value.DoubleValue
-4.065

@<SCITEGIC>MOL_PROPERTY
W(SA)
SciTegic.value.DoubleValue
2.163

@<SCITEGIC>MOL_PROPERTY
Valence
SciTegic.value.DoubleValue
18.957

@<SCITEGIC>MOL_PROPERTY
Coulomb
SciTegic.value.DoubleValue
-8.753

@<SCITEGIC>MOL_PROPERTY
VdW
SciTegic.value.DoubleValue
2.998

@<SCITEGIC>MOL_PROPERTY
VdW6
SciTegic.value.DoubleValue
-12.294

@<SCITEGIC>MOL_PROPERTY
VdW12
SciTegic.value.DoubleValue
15.292

@<SCITEGIC>MOL_PROPERTY
Bond
SciTegic.value.DoubleValue
0.419

@<SCITEGIC>MOL_PROPERTY
Angle
SciTegic.value.DoubleValue
4.543

@<SCITEGIC>MOL_PROPERTY
Pdih
SciTegic.value.DoubleValue
13.996

@<SCITEGIC>MOL_PROPERTY
Idih
SciTegic.value.DoubleValue
0.000

@<SCITEGIC>MOL_PROPERTY
Tether
SciTegic.value.DoubleValue
0.000

@<TRIPOS>MOLECULE
guest-s17_confgen4.mol2 : confsearch ligand conformer 484
          25          25           1
SMALL
USER_CHARGES
 
@<TRIPOS>ATOM
       1    C1      19.102095   17.998768   23.783553 C.3        1 MOL1        -0.1684
       2    H1      19.461143   17.025416   24.144349 H          1 MOL1         0.0833
       3    H2      18.081151   18.101489   24.176033 H          1 MOL1         0.0833
       4    C2      19.010461   17.957912   22.235898 C.3        1 MOL1        -0.1684
       5    H3      19.873033   17.432038   21.811362 H          1 MOL1         0.0833
       6    H4      18.151401   17.322227   21.981039 H          1 MOL1         0.0833
       7    C3      18.815333   19.331425   21.542910 C.3        1 MOL1        -0.1684
       8    H5      18.336003   20.050388   22.219744 H          1 MOL1         0.0833
       9    H6      18.098826   19.188429   20.722498 H          1 MOL1         0.0833
      10    C4      20.102914   19.935933   20.919249 C.3        1 MOL1        -0.1760
      11    H7      20.541039   19.215358   20.216354 H          1 MOL1         0.0833
      12    H8      19.801194   20.798005   20.309673 H          1 MOL1         0.0833
      13    C5      21.197547   20.417586   21.903728 C.3        1 MOL1         0.1219
      14    H9      20.749952   21.113108   22.626266 H          1 MOL1         0.0790
      15    C6      21.920381   19.271020   22.657136 C.3        1 MOL1        -0.1760
      16    H10     21.817822   18.332794   22.102621 H          1 MOL1         0.0833
      17    H11     23.001418   19.463886   22.667394 H          1 MOL1         0.0833
      18    C7      21.477581   19.073602   24.130132 C.3        1 MOL1        -0.1684
      19    H12     21.955612   19.856812   24.734297 H          1 MOL1         0.0833
      20    H13     21.884107   18.122579   24.500057 H          1 MOL1         0.0833
      21    C8      19.955880   19.125625   24.417516 C.3        1 MOL1        -0.1684
      22    H14     19.547065   20.107524   24.153142 H          1 MOL1         0.0833
      23    H15     19.827805   19.057632   25.506458 H          1 MOL1         0.0833
      24    O1      22.166073   21.130806   21.143836 O.3        1 MOL1        -0.5508
      25    H16     22.816175   21.489481   21.783552 H          1 MOL1         0.3780
@<TRIPOS>BOND
    1     1     2    1
    2     1     3    1
    3     1     4    1
    4     4     5    1
    5     4     6    1
    6     4     7    1
    7     7     8    1
    8     7     9    1
    9     7    10    1
   10    10    11    1
   11    10    12    1
   12    10    13    1
   13    13    14    1
   14    13    15    1
   15    15    16    1
   16    15    17    1
   17    15    18    1
   18    18    19    1
   19    18    20    1
   20     1    21    1
   21    18    21    1
   22    21    22    1
   23    21    23    1
   24    13    24    1
   25    24    25    1
@<TRIPOS>SUBSTRUCTURE
       1 MOL1            1 RESIDUE      1      MOL     
@<SCITEGIC>MOL_PROPERTY
VConf Rank
SciTegic.value.IntegerValue
484

@<SCITEGIC>MOL_PROPERTY
Conf_Id
SciTegic.value.IntegerValue
60

@<SCITEGIC>MOL_PROPERTY
Delta U+W
SciTegic.value.DoubleValue
-1.838

@<SCITEGIC>MOL_PROPERTY
U+W
SciTegic.value.DoubleValue
9.075

@<SCITEGIC>MOL_PROPERTY
Grad RMS
SciTegic.value.DoubleValue
0.000000

@<SCITEGIC>MOL_PROPERTY
U
SciTegic.value.DoubleValue
11.150

@<SCITEGIC>MOL_PROPERTY
W
SciTegic.value.DoubleValue
-2.074

@<SCITEGIC>MOL_PROPERTY
W(PB)
SciTegic.value.DoubleValue
-4.196

@<SCITEGIC>MOL_PROPERTY
W(SA)
SciTegic.value.DoubleValue
2.121

@<SCITEGIC>MOL_PROPERTY
Valence
SciTegic.value.DoubleValue
16.582

@<SCITEGIC>MOL_PROPERTY
Coulomb
SciTegic.value.DoubleValue
-8.361

@<SCITEGIC>MOL_PROPERTY
VdW
SciTegic.value.DoubleValue
2.928

@<SCITEGIC>MOL_PROPERTY
VdW6
SciTegic.value.DoubleValue
-12.539

@<SCITEGIC>MOL_PROPERTY
VdW12
SciTegic.value.DoubleValue
15.467

@<SCITEGIC>MOL_PROPERTY
Bond
SciTegic.value.DoubleValue
0.441

@<SCITEGIC>MOL_PROPERTY
Angle
SciTegic.value.DoubleValue
5.093

@<SCITEGIC>MOL_PROPERTY
Pdih
SciTegic.value.DoubleValue
11.049

@<SCITEGIC>MOL_PROPERTY
Idih
SciTegic.value.DoubleValue
0.000

@<SCITEGIC>MOL_PROPERTY
Tether
SciTegic.value.DoubleValue
0.000

@<TRIPOS>MOLECULE
guest-s17_confgen4.mol2 : confsearch ligand conformer 485
          25          25           1
SMALL
USER_CHARGES
 
@<TRIPOS>ATOM
       1    C1      19.423769   19.903357   24.369609 C.3        1 MOL1        -0.1684
       2    H1      19.994806   20.460760   25.124408 H          1 MOL1         0.0833
       3    H2      18.401856   19.830279   24.766185 H          1 MOL1         0.0833
       4    C2      19.983149   18.462114   24.266779 C.3        1 MOL1        -0.1684
       5    H3      19.859986   17.993987   25.252938 H          1 MOL1         0.0833
       6    H4      19.360446   17.859034   23.596194 H          1 MOL1         0.0833
       7    C3      21.478800   18.335689   23.882184 C.3        1 MOL1        -0.1684
       8    H5      21.753219   17.275057   23.964024 H          1 MOL1         0.0833
       9    H6      22.090686   18.859933   24.628720 H          1 MOL1         0.0833
      10    C4      21.882965   18.824782   22.467193 C.3        1 MOL1        -0.1760
      11    H7      22.009092   19.912147   22.464819 H          1 MOL1         0.0833
      12    H8      22.889128   18.434025   22.264988 H          1 MOL1         0.0833
      13    C5      20.923054   18.396714   21.326995 C.3        1 MOL1         0.1219
      14    H9      20.316222   17.541451   21.653236 H          1 MOL1         0.0790
      15    C6      19.983879   19.525477   20.833793 C.3        1 MOL1        -0.1760
      16    H10     20.587074   20.393727   20.537919 H          1 MOL1         0.0833
      17    H11     19.497814   19.175341   19.913505 H          1 MOL1         0.0833
      18    C7      18.864317   19.982480   21.808461 C.3        1 MOL1        -0.1684
      19    H12     18.221774   19.137323   22.087064 H          1 MOL1         0.0833
      20    H13     18.211781   20.666300   21.248558 H          1 MOL1         0.0833
      21    C8      19.364727   20.740498   23.065379 C.3        1 MOL1        -0.1684
      22    H14     18.680785   21.579730   23.252323 H          1 MOL1         0.0833
      23    H15     20.331606   21.216804   22.867693 H          1 MOL1         0.0833
      24    O1      21.708844   17.983870   20.215123 O.3        1 MOL1        -0.5508
      25    H16     22.248935   17.224811   20.519504 H          1 MOL1         0.3780
@<TRIPOS>BOND
    1     1     2    1
    2     1     3    1
    3     1     4    1
    4     4     5    1
    5     4     6    1
    6     4     7    1
    7     7     8    1
    8     7     9    1
    9     7    10    1
   10    10    11    1
   11    10    12    1
   12    10    13    1
   13    13    14    1
   14    13    15    1
   15    15    16    1
   16    15    17    1
   17    15    18    1
   18    18    19    1
   19    18    20    1
   20     1    21    1
   21    18    21    1
   22    21    22    1
   23    21    23    1
   24    13    24    1
   25    24    25    1
@<TRIPOS>SUBSTRUCTURE
       1 MOL1            1 RESIDUE      1      MOL     
@<SCITEGIC>MOL_PROPERTY
VConf Rank
SciTegic.value.IntegerValue
485

@<SCITEGIC>MOL_PROPERTY
Conf_Id
SciTegic.value.IntegerValue
129

@<SCITEGIC>MOL_PROPERTY
Delta U+W
SciTegic.value.DoubleValue
-1.846

@<SCITEGIC>MOL_PROPERTY
U+W
SciTegic.value.DoubleValue
9.067

@<SCITEGIC>MOL_PROPERTY
Grad RMS
SciTegic.value.DoubleValue
0.000000

@<SCITEGIC>MOL_PROPERTY
U
SciTegic.value.DoubleValue
11.150

@<SCITEGIC>MOL_PROPERTY
W
SciTegic.value.DoubleValue
-2.083

@<SCITEGIC>MOL_PROPERTY
W(PB)
SciTegic.value.DoubleValue
-4.217

@<SCITEGIC>MOL_PROPERTY
W(SA)
SciTegic.value.DoubleValue
2.134

@<SCITEGIC>MOL_PROPERTY
Valence
SciTegic.value.DoubleValue
16.583

@<SCITEGIC>MOL_PROPERTY
Coulomb
SciTegic.value.DoubleValue
-8.361

@<SCITEGIC>MOL_PROPERTY
VdW
SciTegic.value.DoubleValue
2.928

@<SCITEGIC>MOL_PROPERTY
VdW6
SciTegic.value.DoubleValue
-12.539

@<SCITEGIC>MOL_PROPERTY
VdW12
SciTegic.value.DoubleValue
15.467

@<SCITEGIC>MOL_PROPERTY
Bond
SciTegic.value.DoubleValue
0.441

@<SCITEGIC>MOL_PROPERTY
Angle
SciTegic.value.DoubleValue
5.093

@<SCITEGIC>MOL_PROPERTY
Pdih
SciTegic.value.DoubleValue
11.049

@<SCITEGIC>MOL_PROPERTY
Idih
SciTegic.value.DoubleValue
0.000

@<SCITEGIC>MOL_PROPERTY
Tether
SciTegic.value.DoubleValue
0.000

@<TRIPOS>MOLECULE
guest-s17_confgen4.mol2 : confsearch ligand conformer 486
          25          25           1
SMALL
USER_CHARGES
 
@<TRIPOS>ATOM
       1    C1      19.599763   20.304250   24.269289 C.3        1 MOL1        -0.1684
       2    H1      18.526497   20.464322   24.439533 H          1 MOL1         0.0833
       3    H2      20.110102   20.811693   25.099335 H          1 MOL1         0.0833
       4    C2      20.022296   21.018764   22.961179 C.3        1 MOL1        -0.1684
       5    H3      19.818768   22.089984   23.094851 H          1 MOL1         0.0833
       6    H4      21.108543   20.959448   22.827953 H          1 MOL1         0.0833
       7    C3      19.290990   20.569874   21.671235 C.3        1 MOL1        -0.1684
       8    H5      19.610152   21.239247   20.860601 H          1 MOL1         0.0833
       9    H6      18.211868   20.737888   21.788553 H          1 MOL1         0.0833
      10    C4      19.525397   19.110580   21.201352 C.3        1 MOL1        -0.1760
      11    H7      18.877442   18.425897   21.758041 H          1 MOL1         0.0833
      12    H8      19.168949   19.047668   20.164239 H          1 MOL1         0.0833
      13    C5      20.997923   18.628821   21.265766 C.3        1 MOL1         0.1219
      14    H9      21.670360   19.496559   21.292806 H          1 MOL1         0.0790
      15    C6      21.312531   17.701316   22.466455 C.3        1 MOL1        -0.1760
      16    H10     20.621914   16.847957   22.459947 H          1 MOL1         0.0833
      17    H11     22.312642   17.276534   22.306538 H          1 MOL1         0.0833
      18    C7      21.304952   18.352342   23.876110 C.3        1 MOL1        -0.1684
      19    H12     22.019852   19.183793   23.925097 H          1 MOL1         0.0833
      20    H13     21.691153   17.600916   24.578374 H          1 MOL1         0.0833
      21    C8      19.905903   18.788409   24.383114 C.3        1 MOL1        -0.1684
      22    H14     19.830271   18.523405   25.446647 H          1 MOL1         0.0833
      23    H15     19.119702   18.198186   23.899042 H          1 MOL1         0.0833
      24    O1      21.277323   17.894400   20.080555 O.3        1 MOL1        -0.5508
      25    H16     20.670077   17.126159   20.081551 H          1 MOL1         0.3780
@<TRIPOS>BOND
    1     1     2    1
    2     1     3    1
    3     1     4    1
    4     4     5    1
    5     4     6    1
    6     4     7    1
    7     7     8    1
    8     7     9    1
    9     7    10    1
   10    10    11    1
   11    10    12    1
   12    10    13    1
   13    13    14    1
   14    13    15    1
   15    15    16    1
   16    15    17    1
   17    15    18    1
   18    18    19    1
   19    18    20    1
   20     1    21    1
   21    18    21    1
   22    21    22    1
   23    21    23    1
   24    13    24    1
   25    24    25    1
@<TRIPOS>SUBSTRUCTURE
       1 MOL1            1 RESIDUE      1      MOL     
@<SCITEGIC>MOL_PROPERTY
VConf Rank
SciTegic.value.IntegerValue
486

@<SCITEGIC>MOL_PROPERTY
Conf_Id
SciTegic.value.IntegerValue
140

@<SCITEGIC>MOL_PROPERTY
Delta U+W
SciTegic.value.DoubleValue
-1.702

@<SCITEGIC>MOL_PROPERTY
U+W
SciTegic.value.DoubleValue
9.211

@<SCITEGIC>MOL_PROPERTY
Grad RMS
SciTegic.value.DoubleValue
0.000000

@<SCITEGIC>MOL_PROPERTY
U
SciTegic.value.DoubleValue
11.181

@<SCITEGIC>MOL_PROPERTY
W
SciTegic.value.DoubleValue
-1.969

@<SCITEGIC>MOL_PROPERTY
W(PB)
SciTegic.value.DoubleValue
-4.093

@<SCITEGIC>MOL_PROPERTY
W(SA)
SciTegic.value.DoubleValue
2.124

@<SCITEGIC>MOL_PROPERTY
Valence
SciTegic.value.DoubleValue
16.954

@<SCITEGIC>MOL_PROPERTY
Coulomb
SciTegic.value.DoubleValue
-8.661

@<SCITEGIC>MOL_PROPERTY
VdW
SciTegic.value.DoubleValue
2.887

@<SCITEGIC>MOL_PROPERTY
VdW6
SciTegic.value.DoubleValue
-12.561

@<SCITEGIC>MOL_PROPERTY
VdW12
SciTegic.value.DoubleValue
15.448

@<SCITEGIC>MOL_PROPERTY
Bond
SciTegic.value.DoubleValue
0.433

@<SCITEGIC>MOL_PROPERTY
Angle
SciTegic.value.DoubleValue
5.120

@<SCITEGIC>MOL_PROPERTY
Pdih
SciTegic.value.DoubleValue
11.401

@<SCITEGIC>MOL_PROPERTY
Idih
SciTegic.value.DoubleValue
0.000

@<SCITEGIC>MOL_PROPERTY
Tether
SciTegic.value.DoubleValue
0.000

@<TRIPOS>MOLECULE
guest-s17_confgen4.mol2 : confsearch ligand conformer 487
          25          25           1
SMALL
USER_CHARGES
 
@<TRIPOS>ATOM
       1    C1      19.890794   17.178878   22.971769 C.3        1 MOL1        -0.1684
       2    H1      18.899555   16.844539   23.306689 H          1 MOL1         0.0833
       3    H2      20.498952   16.267540   22.890979 H          1 MOL1         0.0833
       4    C2      20.519567   18.069673   24.074301 C.3        1 MOL1        -0.1684
       5    H3      19.766896   18.738936   24.506012 H          1 MOL1         0.0833
       6    H4      20.801711   17.405752   24.902948 H          1 MOL1         0.0833
       7    C3      21.778042   18.868482   23.646874 C.3        1 MOL1        -0.1684
       8    H5      22.292290   18.377867   22.810429 H          1 MOL1         0.0833
       9    H6      22.491078   18.832818   24.481902 H          1 MOL1         0.0833
      10    C4      21.521970   20.367537   23.333386 C.3        1 MOL1        -0.1760
      11    H7      21.046890   20.841333   24.202312 H          1 MOL1         0.0833
      12    H8      22.501607   20.852743   23.227920 H          1 MOL1         0.0833
      13    C5      20.700023   20.685275   22.058891 C.3        1 MOL1         0.1219
      14    H9      21.160857   20.184814   21.196892 H          1 MOL1         0.0790
      15    C6      19.202704   20.292917   22.151972 C.3        1 MOL1        -0.1760
      16    H10     18.891482   20.229477   23.199662 H          1 MOL1         0.0833
      17    H11     18.589859   21.100633   21.729323 H          1 MOL1         0.0833
      18    C7      18.816760   18.992835   21.399572 C.3        1 MOL1        -0.1684
      19    H12     18.751386   19.230986   20.329029 H          1 MOL1         0.0833
      20    H13     17.803533   18.693939   21.700455 H          1 MOL1         0.0833
      21    C8      19.773321   17.783466   21.550191 C.3        1 MOL1        -0.1684
      22    H14     20.766552   18.027250   21.156155 H          1 MOL1         0.0833
      23    H15     19.401138   16.989552   20.888386 H          1 MOL1         0.0833
      24    O1      20.778991   22.088867   21.844756 O.3        1 MOL1        -0.5508
      25    H16     20.366784   22.511504   22.626041 H          1 MOL1         0.3780
@<TRIPOS>BOND
    1     1     2    1
    2     1     3    1
    3     1     4    1
    4     4     5    1
    5     4     6    1
    6     4     7    1
    7     7     8    1
    8     7     9    1
    9     7    10    1
   10    10    11    1
   11    10    12    1
   12    10    13    1
   13    13    14    1
   14    13    15    1
   15    15    16    1
   16    15    17    1
   17    15    18    1
   18    18    19    1
   19    18    20    1
   20     1    21    1
   21    18    21    1
   22    21    22    1
   23    21    23    1
   24    13    24    1
   25    24    25    1
@<TRIPOS>SUBSTRUCTURE
       1 MOL1            1 RESIDUE      1      MOL     
@<SCITEGIC>MOL_PROPERTY
VConf Rank
SciTegic.value.IntegerValue
487

@<SCITEGIC>MOL_PROPERTY
Conf_Id
SciTegic.value.IntegerValue
68

@<SCITEGIC>MOL_PROPERTY
Delta U+W
SciTegic.value.DoubleValue
-1.765

@<SCITEGIC>MOL_PROPERTY
U+W
SciTegic.value.DoubleValue
9.148

@<SCITEGIC>MOL_PROPERTY
Grad RMS
SciTegic.value.DoubleValue
0.000000

@<SCITEGIC>MOL_PROPERTY
U
SciTegic.value.DoubleValue
11.181

@<SCITEGIC>MOL_PROPERTY
W
SciTegic.value.DoubleValue
-2.032

@<SCITEGIC>MOL_PROPERTY
W(PB)
SciTegic.value.DoubleValue
-4.147

@<SCITEGIC>MOL_PROPERTY
W(SA)
SciTegic.value.DoubleValue
2.114

@<SCITEGIC>MOL_PROPERTY
Valence
SciTegic.value.DoubleValue
16.955

@<SCITEGIC>MOL_PROPERTY
Coulomb
SciTegic.value.DoubleValue
-8.661

@<SCITEGIC>MOL_PROPERTY
VdW
SciTegic.value.DoubleValue
2.887

@<SCITEGIC>MOL_PROPERTY
VdW6
SciTegic.value.DoubleValue
-12.561

@<SCITEGIC>MOL_PROPERTY
VdW12
SciTegic.value.DoubleValue
15.448

@<SCITEGIC>MOL_PROPERTY
Bond
SciTegic.value.DoubleValue
0.433

@<SCITEGIC>MOL_PROPERTY
Angle
SciTegic.value.DoubleValue
5.121

@<SCITEGIC>MOL_PROPERTY
Pdih
SciTegic.value.DoubleValue
11.402

@<SCITEGIC>MOL_PROPERTY
Idih
SciTegic.value.DoubleValue
0.000

@<SCITEGIC>MOL_PROPERTY
Tether
SciTegic.value.DoubleValue
0.000

@<TRIPOS>MOLECULE
guest-s17_confgen4.mol2 : confsearch ligand conformer 488
          25          25           1
SMALL
USER_CHARGES
 
@<TRIPOS>ATOM
       1    C1      20.350025   17.435424   23.284012 C.3        1 MOL1        -0.1684
       2    H1      20.521964   16.430974   23.694612 H          1 MOL1         0.0833
       3    H2      19.514405   17.304239   22.587290 H          1 MOL1         0.0833
       4    C2      21.630403   17.870178   22.524457 C.3        1 MOL1        -0.1684
       5    H3      22.286611   18.471397   23.166750 H          1 MOL1         0.0833
       6    H4      22.205408   16.961388   22.299756 H          1 MOL1         0.0833
       7    C3      21.373798   18.588483   21.173608 C.3        1 MOL1        -0.1684
       8    H5      20.755252   17.946607   20.531370 H          1 MOL1         0.0833
       9    H6      22.338468   18.680266   20.656094 H          1 MOL1         0.0833
      10    C4      20.740569   20.003510   21.246238 C.3        1 MOL1        -0.1760
      11    H7      21.360760   20.668030   21.859697 H          1 MOL1         0.0833
      12    H8      20.785610   20.422296   20.231743 H          1 MOL1         0.0833
      13    C5      19.265553   20.023967   21.724564 C.3        1 MOL1         0.1219
      14    H9      18.833094   19.025468   21.592185 H          1 MOL1         0.0790
      15    C6      19.065895   20.473255   23.193005 C.3        1 MOL1        -0.1760
      16    H10     19.163406   21.565919   23.239402 H          1 MOL1         0.0833
      17    H11     18.031378   20.251264   23.485543 H          1 MOL1         0.0833
      18    C7      20.028152   19.877584   24.252864 C.3        1 MOL1        -0.1684
      19    H12     19.794993   20.358015   25.212836 H          1 MOL1         0.0833
      20    H13     21.062286   20.172113   24.040434 H          1 MOL1         0.0833
      21    C8      19.938368   18.346234   24.469763 C.3        1 MOL1        -0.1684
      22    H14     18.919488   18.082849   24.784565 H          1 MOL1         0.0833
      23    H15     20.585096   18.097750   25.322404 H          1 MOL1         0.0833
      24    O1      18.534313   20.922468   20.899537 O.3        1 MOL1        -0.5508
      25    H16     18.945303   21.803458   21.017147 H          1 MOL1         0.3780
@<TRIPOS>BOND
    1     1     2    1
    2     1     3    1
    3     1     4    1
    4     4     5    1
    5     4     6    1
    6     4     7    1
    7     7     8    1
    8     7     9    1
    9     7    10    1
   10    10    11    1
   11    10    12    1
   12    10    13    1
   13    13    14    1
   14    13    15    1
   15    15    16    1
   16    15    17    1
   17    15    18    1
   18    18    19    1
   19    18    20    1
   20     1    21    1
   21    18    21    1
   22    21    22    1
   23    21    23    1
   24    13    24    1
   25    24    25    1
@<TRIPOS>SUBSTRUCTURE
       1 MOL1            1 RESIDUE      1      MOL     
@<SCITEGIC>MOL_PROPERTY
VConf Rank
SciTegic.value.IntegerValue
488

@<SCITEGIC>MOL_PROPERTY
Conf_Id
SciTegic.value.IntegerValue
165

@<SCITEGIC>MOL_PROPERTY
Delta U+W
SciTegic.value.DoubleValue
-1.999

@<SCITEGIC>MOL_PROPERTY
U+W
SciTegic.value.DoubleValue
8.915

@<SCITEGIC>MOL_PROPERTY
Grad RMS
SciTegic.value.DoubleValue
0.000000

@<SCITEGIC>MOL_PROPERTY
U
SciTegic.value.DoubleValue
10.935

@<SCITEGIC>MOL_PROPERTY
W
SciTegic.value.DoubleValue
-2.020

@<SCITEGIC>MOL_PROPERTY
W(PB)
SciTegic.value.DoubleValue
-4.135

@<SCITEGIC>MOL_PROPERTY
W(SA)
SciTegic.value.DoubleValue
2.115

@<SCITEGIC>MOL_PROPERTY
Valence
SciTegic.value.DoubleValue
16.757

@<SCITEGIC>MOL_PROPERTY
Coulomb
SciTegic.value.DoubleValue
-8.731

@<SCITEGIC>MOL_PROPERTY
VdW
SciTegic.value.DoubleValue
2.908

@<SCITEGIC>MOL_PROPERTY
VdW6
SciTegic.value.DoubleValue
-12.597

@<SCITEGIC>MOL_PROPERTY
VdW12
SciTegic.value.DoubleValue
15.506

@<SCITEGIC>MOL_PROPERTY
Bond
SciTegic.value.DoubleValue
0.434

@<SCITEGIC>MOL_PROPERTY
Angle
SciTegic.value.DoubleValue
5.069

@<SCITEGIC>MOL_PROPERTY
Pdih
SciTegic.value.DoubleValue
11.254

@<SCITEGIC>MOL_PROPERTY
Idih
SciTegic.value.DoubleValue
0.000

@<SCITEGIC>MOL_PROPERTY
Tether
SciTegic.value.DoubleValue
0.000

@<TRIPOS>MOLECULE
guest-s17_confgen4.mol2 : confsearch ligand conformer 489
          25          25           1
SMALL
USER_CHARGES
 
@<TRIPOS>ATOM
       1    C1      21.598449   17.894110   22.423565 C.3        1 MOL1        -0.1684
       2    H1      22.406005   17.178029   22.218225 H          1 MOL1         0.0833
       3    H2      21.106175   17.498008   23.318870 H          1 MOL1         0.0833
       4    C2      20.638159   17.856367   21.206244 C.3        1 MOL1        -0.1684
       5    H3      21.253175   17.815693   20.296790 H          1 MOL1         0.0833
       6    H4      20.075308   16.913280   21.225037 H          1 MOL1         0.0833
       7    C3      19.651347   19.039588   21.043358 C.3        1 MOL1        -0.1684
       8    H5      19.125423   18.898308   20.089343 H          1 MOL1         0.0833
       9    H6      20.201039   19.979635   20.919089 H          1 MOL1         0.0833
      10    C4      18.572824   19.184424   22.147822 C.3        1 MOL1        -0.1760
      11    H7      17.891826   19.988928   21.838742 H          1 MOL1         0.0833
      12    H8      17.967664   18.269120   22.174563 H          1 MOL1         0.0833
      13    C5      19.067168   19.493842   23.582272 C.3        1 MOL1         0.1219
      14    H9      19.451257   18.574086   24.038763 H          1 MOL1         0.0790
      15    C6      20.158799   20.591733   23.666895 C.3        1 MOL1        -0.1760
      16    H10     20.127016   21.242622   22.785164 H          1 MOL1         0.0833
      17    H11     19.924799   21.248783   24.515460 H          1 MOL1         0.0833
      18    C7      21.597160   20.054919   23.894797 C.3        1 MOL1        -0.1684
      19    H12     21.612704   19.431874   24.799541 H          1 MOL1         0.0833
      20    H13     22.243038   20.914885   24.118567 H          1 MOL1         0.0833
      21    C8      22.242896   19.273244   22.720541 C.3        1 MOL1        -0.1684
      22    H14     23.292276   19.095427   22.992926 H          1 MOL1         0.0833
      23    H15     22.284150   19.893560   21.816045 H          1 MOL1         0.0833
      24    O1      17.939267   19.918767   24.339101 O.3        1 MOL1        -0.5508
      25    H16     17.285616   19.189358   24.305303 H          1 MOL1         0.3780
@<TRIPOS>BOND
    1     1     2    1
    2     1     3    1
    3     1     4    1
    4     4     5    1
    5     4     6    1
    6     4     7    1
    7     7     8    1
    8     7     9    1
    9     7    10    1
   10    10    11    1
   11    10    12    1
   12    10    13    1
   13    13    14    1
   14    13    15    1
   15    15    16    1
   16    15    17    1
   17    15    18    1
   18    18    19    1
   19    18    20    1
   20     1    21    1
   21    18    21    1
   22    21    22    1
   23    21    23    1
   24    13    24    1
   25    24    25    1
@<TRIPOS>SUBSTRUCTURE
       1 MOL1            1 RESIDUE      1      MOL     
@<SCITEGIC>MOL_PROPERTY
VConf Rank
SciTegic.value.IntegerValue
489

@<SCITEGIC>MOL_PROPERTY
Conf_Id
SciTegic.value.IntegerValue
133

@<SCITEGIC>MOL_PROPERTY
Delta U+W
SciTegic.value.DoubleValue
-2.139

@<SCITEGIC>MOL_PROPERTY
U+W
SciTegic.value.DoubleValue
8.774

@<SCITEGIC>MOL_PROPERTY
Grad RMS
SciTegic.value.DoubleValue
0.000000

@<SCITEGIC>MOL_PROPERTY
U
SciTegic.value.DoubleValue
10.905

@<SCITEGIC>MOL_PROPERTY
W
SciTegic.value.DoubleValue
-2.131

@<SCITEGIC>MOL_PROPERTY
W(PB)
SciTegic.value.DoubleValue
-4.281

@<SCITEGIC>MOL_PROPERTY
W(SA)
SciTegic.value.DoubleValue
2.150

@<SCITEGIC>MOL_PROPERTY
Valence
SciTegic.value.DoubleValue
16.378

@<SCITEGIC>MOL_PROPERTY
Coulomb
SciTegic.value.DoubleValue
-8.448

@<SCITEGIC>MOL_PROPERTY
VdW
SciTegic.value.DoubleValue
2.976

@<SCITEGIC>MOL_PROPERTY
VdW6
SciTegic.value.DoubleValue
-12.570

@<SCITEGIC>MOL_PROPERTY
VdW12
SciTegic.value.DoubleValue
15.545

@<SCITEGIC>MOL_PROPERTY
Bond
SciTegic.value.DoubleValue
0.439

@<SCITEGIC>MOL_PROPERTY
Angle
SciTegic.value.DoubleValue
5.049

@<SCITEGIC>MOL_PROPERTY
Pdih
SciTegic.value.DoubleValue
10.889

@<SCITEGIC>MOL_PROPERTY
Idih
SciTegic.value.DoubleValue
0.000

@<SCITEGIC>MOL_PROPERTY
Tether
SciTegic.value.DoubleValue
0.000

@<TRIPOS>MOLECULE
guest-s17_confgen4.mol2 : confsearch ligand conformer 490
          25          25           1
SMALL
USER_CHARGES
 
@<TRIPOS>ATOM
       1    C1      20.410859   17.405862   22.719331 C.3        1 MOL1        -0.1684
       2    H1      20.478128   16.316473   22.845008 H          1 MOL1         0.0833
       3    H2      20.612705   17.568808   21.654667 H          1 MOL1         0.0833
       4    C2      21.515518   18.059319   23.590104 C.3        1 MOL1        -0.1684
       5    H3      21.122548   18.354889   24.571339 H          1 MOL1         0.0833
       6    H4      22.266952   17.287001   23.804309 H          1 MOL1         0.0833
       7    C3      22.261390   19.241616   22.917259 C.3        1 MOL1        -0.1684
       8    H5      22.687218   18.907135   21.961341 H          1 MOL1         0.0833
       9    H6      23.122538   19.496447   23.549919 H          1 MOL1         0.0833
      10    C4      21.443839   20.540767   22.687456 C.3        1 MOL1        -0.1760
      11    H7      21.035147   20.910080   23.635453 H          1 MOL1         0.0833
      12    H8      22.154902   21.312571   22.363051 H          1 MOL1         0.0833
      13    C5      20.329810   20.419936   21.615765 C.3        1 MOL1         0.1219
      14    H9      20.543884   19.556045   20.975669 H          1 MOL1         0.0790
      15    C6      18.896341   20.289989   22.186753 C.3        1 MOL1        -0.1760
      16    H10     18.568989   21.283719   22.521204 H          1 MOL1         0.0833
      17    H11     18.217985   20.006159   21.371897 H          1 MOL1         0.0833
      18    C7      18.692607   19.311165   23.371837 C.3        1 MOL1        -0.1684
      19    H12     17.646168   19.400829   23.693746 H          1 MOL1         0.0833
      20    H13     19.277447   19.634455   24.240593 H          1 MOL1         0.0833
      21    C8      18.956766   17.814322   23.071794 C.3        1 MOL1        -0.1684
      22    H14     18.287619   17.481097   22.266951 H          1 MOL1         0.0833
      23    H15     18.656036   17.244267   23.961515 H          1 MOL1         0.0833
      24    O1      20.359255   21.585694   20.799891 O.3        1 MOL1        -0.5508
      25    H16     19.677722   21.462272   20.106553 H          1 MOL1         0.3780
@<TRIPOS>BOND
    1     1     2    1
    2     1     3    1
    3     1     4    1
    4     4     5    1
    5     4     6    1
    6     4     7    1
    7     7     8    1
    8     7     9    1
    9     7    10    1
   10    10    11    1
   11    10    12    1
   12    10    13    1
   13    13    14    1
   14    13    15    1
   15    15    16    1
   16    15    17    1
   17    15    18    1
   18    18    19    1
   19    18    20    1
   20     1    21    1
   21    18    21    1
   22    21    22    1
   23    21    23    1
   24    13    24    1
   25    24    25    1
@<TRIPOS>SUBSTRUCTURE
       1 MOL1            1 RESIDUE      1      MOL     
@<SCITEGIC>MOL_PROPERTY
VConf Rank
SciTegic.value.IntegerValue
490

@<SCITEGIC>MOL_PROPERTY
Conf_Id
SciTegic.value.IntegerValue
95

@<SCITEGIC>MOL_PROPERTY
Delta U+W
SciTegic.value.DoubleValue
-2.190

@<SCITEGIC>MOL_PROPERTY
U+W
SciTegic.value.DoubleValue
8.723

@<SCITEGIC>MOL_PROPERTY
Grad RMS
SciTegic.value.DoubleValue
0.000000

@<SCITEGIC>MOL_PROPERTY
U
SciTegic.value.DoubleValue
10.905

@<SCITEGIC>MOL_PROPERTY
W
SciTegic.value.DoubleValue
-2.182

@<SCITEGIC>MOL_PROPERTY
W(PB)
SciTegic.value.DoubleValue
-4.296

@<SCITEGIC>MOL_PROPERTY
W(SA)
SciTegic.value.DoubleValue
2.114

@<SCITEGIC>MOL_PROPERTY
Valence
SciTegic.value.DoubleValue
16.377

@<SCITEGIC>MOL_PROPERTY
Coulomb
SciTegic.value.DoubleValue
-8.448

@<SCITEGIC>MOL_PROPERTY
VdW
SciTegic.value.DoubleValue
2.976

@<SCITEGIC>MOL_PROPERTY
VdW6
SciTegic.value.DoubleValue
-12.570

@<SCITEGIC>MOL_PROPERTY
VdW12
SciTegic.value.DoubleValue
15.546

@<SCITEGIC>MOL_PROPERTY
Bond
SciTegic.value.DoubleValue
0.439

@<SCITEGIC>MOL_PROPERTY
Angle
SciTegic.value.DoubleValue
5.049

@<SCITEGIC>MOL_PROPERTY
Pdih
SciTegic.value.DoubleValue
10.889

@<SCITEGIC>MOL_PROPERTY
Idih
SciTegic.value.DoubleValue
0.000

@<SCITEGIC>MOL_PROPERTY
Tether
SciTegic.value.DoubleValue
0.000

@<TRIPOS>MOLECULE
guest-s17_confgen4.mol2 : confsearch ligand conformer 491
          25          25           1
SMALL
USER_CHARGES
 
@<TRIPOS>ATOM
       1    C1      19.047981   20.462015   22.310132 C.3        1 MOL1        -0.1684
       2    H1      18.217405   21.148295   22.095507 H          1 MOL1         0.0833
       3    H2      19.934769   21.044871   22.041579 H          1 MOL1         0.0833
       4    C2      18.880423   19.235298   21.366041 C.3        1 MOL1        -0.1684
       5    H3      17.802744   19.058114   21.247066 H          1 MOL1         0.0833
       6    H4      19.244217   19.503676   20.364992 H          1 MOL1         0.0833
       7    C3      19.514071   17.886469   21.796908 C.3        1 MOL1        -0.1684
       8    H5      19.192852   17.122803   21.075486 H          1 MOL1         0.0833
       9    H6      19.059702   17.557571   22.736804 H          1 MOL1         0.0833
      10    C4      21.068150   17.816853   21.877617 C.3        1 MOL1        -0.1760
      11    H7      21.352549   16.974549   22.521832 H          1 MOL1         0.0833
      12    H8      21.430544   17.558583   20.874009 H          1 MOL1         0.0833
      13    C5      21.836759   19.083689   22.331554 C.3        1 MOL1         0.1219
      14    H9      21.576221   19.900671   21.650762 H          1 MOL1         0.0790
      15    C6      21.627847   19.545617   23.802462 C.3        1 MOL1        -0.1760
      16    H10     22.336777   18.993404   24.433964 H          1 MOL1         0.0833
      17    H11     21.924546   20.599445   23.877991 H          1 MOL1         0.0833
      18    C7      20.223728   19.370257   24.441770 C.3        1 MOL1        -0.1684
      19    H12     20.304434   19.649464   25.501129 H          1 MOL1         0.0833
      20    H13     19.972669   18.305440   24.476494 H          1 MOL1         0.0833
      21    C8      19.050234   20.196620   23.838824 C.3        1 MOL1        -0.1684
      22    H14     19.050593   21.177321   24.333892 H          1 MOL1         0.0833
      23    H15     18.100268   19.725285   24.124922 H          1 MOL1         0.0833
      24    O1      23.225171   18.821237   22.164094 O.3        1 MOL1        -0.5508
      25    H16     23.358426   18.594402   21.220248 H          1 MOL1         0.3780
@<TRIPOS>BOND
    1     1     2    1
    2     1     3    1
    3     1     4    1
    4     4     5    1
    5     4     6    1
    6     4     7    1
    7     7     8    1
    8     7     9    1
    9     7    10    1
   10    10    11    1
   11    10    12    1
   12    10    13    1
   13    13    14    1
   14    13    15    1
   15    15    16    1
   16    15    17    1
   17    15    18    1
   18    18    19    1
   19    18    20    1
   20     1    21    1
   21    18    21    1
   22    21    22    1
   23    21    23    1
   24    13    24    1
   25    24    25    1
@<TRIPOS>SUBSTRUCTURE
       1 MOL1            1 RESIDUE      1      MOL     
@<SCITEGIC>MOL_PROPERTY
VConf Rank
SciTegic.value.IntegerValue
491

@<SCITEGIC>MOL_PROPERTY
Conf_Id
SciTegic.value.IntegerValue
161

@<SCITEGIC>MOL_PROPERTY
Delta U+W
SciTegic.value.DoubleValue
2.120

@<SCITEGIC>MOL_PROPERTY
U+W
SciTegic.value.DoubleValue
13.033

@<SCITEGIC>MOL_PROPERTY
Grad RMS
SciTegic.value.DoubleValue
0.000000

@<SCITEGIC>MOL_PROPERTY
U
SciTegic.value.DoubleValue
15.076

@<SCITEGIC>MOL_PROPERTY
W
SciTegic.value.DoubleValue
-2.043

@<SCITEGIC>MOL_PROPERTY
W(PB)
SciTegic.value.DoubleValue
-4.186

@<SCITEGIC>MOL_PROPERTY
W(SA)
SciTegic.value.DoubleValue
2.143

@<SCITEGIC>MOL_PROPERTY
Valence
SciTegic.value.DoubleValue
18.884

@<SCITEGIC>MOL_PROPERTY
Coulomb
SciTegic.value.DoubleValue
-8.074

@<SCITEGIC>MOL_PROPERTY
VdW
SciTegic.value.DoubleValue
4.266

@<SCITEGIC>MOL_PROPERTY
VdW6
SciTegic.value.DoubleValue
-13.486

@<SCITEGIC>MOL_PROPERTY
VdW12
SciTegic.value.DoubleValue
17.752

@<SCITEGIC>MOL_PROPERTY
Bond
SciTegic.value.DoubleValue
0.713

@<SCITEGIC>MOL_PROPERTY
Angle
SciTegic.value.DoubleValue
8.955

@<SCITEGIC>MOL_PROPERTY
Pdih
SciTegic.value.DoubleValue
9.215

@<SCITEGIC>MOL_PROPERTY
Idih
SciTegic.value.DoubleValue
0.000

@<SCITEGIC>MOL_PROPERTY
Tether
SciTegic.value.DoubleValue
0.000

@<TRIPOS>MOLECULE
guest-s17_confgen4.mol2 : confsearch ligand conformer 492
          25          25           1
SMALL
USER_CHARGES
 
@<TRIPOS>ATOM
       1    C1      20.215302   18.092838   21.000484 C.3        1 MOL1        -0.1684
       2    H1      20.426999   17.485246   20.109977 H          1 MOL1         0.0833
       3    H2      19.145412   18.326865   20.931200 H          1 MOL1         0.0833
       4    C2      21.048656   19.394833   20.900445 C.3        1 MOL1        -0.1684
       5    H3      22.054866   19.247093   21.315054 H          1 MOL1         0.0833
       6    H4      21.201847   19.593164   19.830693 H          1 MOL1         0.0833
       7    C3      20.373660   20.659833   21.500018 C.3        1 MOL1        -0.1684
       8    H5      19.291569   20.658569   21.311962 H          1 MOL1         0.0833
       9    H6      20.764056   21.522133   20.942138 H          1 MOL1         0.0833
      10    C4      20.672252   20.922802   22.998738 C.3        1 MOL1        -0.1760
      11    H7      21.692307   20.598120   23.237559 H          1 MOL1         0.0833
      12    H8      20.678460   22.010094   23.151685 H          1 MOL1         0.0833
      13    C5      19.654007   20.341711   24.012317 C.3        1 MOL1         0.1219
      14    H9      18.721368   20.916698   23.920954 H          1 MOL1         0.0790
      15    C6      19.294617   18.846966   23.846608 C.3        1 MOL1        -0.1760
      16    H10     18.759290   18.519781   24.747973 H          1 MOL1         0.0833
      17    H11     18.559640   18.744891   23.040908 H          1 MOL1         0.0833
      18    C7      20.506131   17.904912   23.614235 C.3        1 MOL1        -0.1684
      19    H12     20.507501   17.132009   24.394843 H          1 MOL1         0.0833
      20    H13     21.454751   18.438109   23.744310 H          1 MOL1         0.0833
      21    C8      20.500622   17.199673   22.236814 C.3        1 MOL1        -0.1684
      22    H14     19.754146   16.393935   22.256041 H          1 MOL1         0.0833
      23    H15     21.471461   16.704083   22.100275 H          1 MOL1         0.0833
      24    O1      20.180492   20.528656   25.318544 O.3        1 MOL1        -0.5508
      25    H16     20.923530   19.897044   25.400830 H          1 MOL1         0.3780
@<TRIPOS>BOND
    1     1     2    1
    2     1     3    1
    3     1     4    1
    4     4     5    1
    5     4     6    1
    6     4     7    1
    7     7     8    1
    8     7     9    1
    9     7    10    1
   10    10    11    1
   11    10    12    1
   12    10    13    1
   13    13    14    1
   14    13    15    1
   15    15    16    1
   16    15    17    1
   17    15    18    1
   18    18    19    1
   19    18    20    1
   20     1    21    1
   21    18    21    1
   22    21    22    1
   23    21    23    1
   24    13    24    1
   25    24    25    1
@<TRIPOS>SUBSTRUCTURE
       1 MOL1            1 RESIDUE      1      MOL     
@<SCITEGIC>MOL_PROPERTY
VConf Rank
SciTegic.value.IntegerValue
492

@<SCITEGIC>MOL_PROPERTY
Conf_Id
SciTegic.value.IntegerValue
164

@<SCITEGIC>MOL_PROPERTY
Delta U+W
SciTegic.value.DoubleValue
0.008

@<SCITEGIC>MOL_PROPERTY
U+W
SciTegic.value.DoubleValue
10.922

@<SCITEGIC>MOL_PROPERTY
Grad RMS
SciTegic.value.DoubleValue
0.000000

@<SCITEGIC>MOL_PROPERTY
U
SciTegic.value.DoubleValue
12.433

@<SCITEGIC>MOL_PROPERTY
W
SciTegic.value.DoubleValue
-1.511

@<SCITEGIC>MOL_PROPERTY
W(PB)
SciTegic.value.DoubleValue
-3.669

@<SCITEGIC>MOL_PROPERTY
W(SA)
SciTegic.value.DoubleValue
2.157

@<SCITEGIC>MOL_PROPERTY
Valence
SciTegic.value.DoubleValue
19.007

@<SCITEGIC>MOL_PROPERTY
Coulomb
SciTegic.value.DoubleValue
-9.373

@<SCITEGIC>MOL_PROPERTY
VdW
SciTegic.value.DoubleValue
2.799

@<SCITEGIC>MOL_PROPERTY
VdW6
SciTegic.value.DoubleValue
-12.597

@<SCITEGIC>MOL_PROPERTY
VdW12
SciTegic.value.DoubleValue
15.396

@<SCITEGIC>MOL_PROPERTY
Bond
SciTegic.value.DoubleValue
0.425

@<SCITEGIC>MOL_PROPERTY
Angle
SciTegic.value.DoubleValue
4.784

@<SCITEGIC>MOL_PROPERTY
Pdih
SciTegic.value.DoubleValue
13.799

@<SCITEGIC>MOL_PROPERTY
Idih
SciTegic.value.DoubleValue
0.000

@<SCITEGIC>MOL_PROPERTY
Tether
SciTegic.value.DoubleValue
0.000

@<TRIPOS>MOLECULE
guest-s17_confgen4.mol2 : confsearch ligand conformer 493
          25          25           1
SMALL
USER_CHARGES
 
@<TRIPOS>ATOM
       1    C1      21.930901   18.392961   22.507598 C.3        1 MOL1        -0.1684
       2    H1      22.153736   19.465768   22.526311 H          1 MOL1         0.0833
       3    H2      22.913456   17.908027   22.429515 H          1 MOL1         0.0833
       4    C2      21.135366   18.028254   21.229383 C.3        1 MOL1        -0.1684
       5    H3      21.757745   18.300252   20.365922 H          1 MOL1         0.0833
       6    H4      21.014232   16.937842   21.176136 H          1 MOL1         0.0833
       7    C3      19.749701   18.697861   21.044128 C.3        1 MOL1        -0.1684
       8    H5      18.979896   18.149575   21.598966 H          1 MOL1         0.0833
       9    H6      19.468561   18.574012   19.989317 H          1 MOL1         0.0833
      10    C4      19.693703   20.210692   21.386160 C.3        1 MOL1        -0.1760
      11    H7      20.684714   20.671165   21.293194 H          1 MOL1         0.0833
      12    H8      19.075155   20.695796   20.619145 H          1 MOL1         0.0833
      13    C5      19.057478   20.545645   22.758565 C.3        1 MOL1         0.1219
      14    H9      18.072284   20.060205   22.806935 H          1 MOL1         0.0790
      15    C6      19.862666   20.129740   24.015217 C.3        1 MOL1        -0.1760
      16    H10     20.859229   20.587561   24.008728 H          1 MOL1         0.0833
      17    H11     19.349191   20.564489   24.883304 H          1 MOL1         0.0833
      18    C7      19.956004   18.599027   24.253938 C.3        1 MOL1        -0.1684
      19    H12     19.119397   18.082733   23.769589 H          1 MOL1         0.0833
      20    H13     19.811616   18.409679   25.326460 H          1 MOL1         0.0833
      21    C8      21.303947   17.947492   23.852293 C.3        1 MOL1        -0.1684
      22    H14     21.186327   16.855397   23.853684 H          1 MOL1         0.0833
      23    H15     22.032718   18.168522   24.644089 H          1 MOL1         0.0833
      24    O1      18.869036   21.952988   22.814004 O.3        1 MOL1        -0.5508
      25    H16     19.761581   22.353125   22.768843 H          1 MOL1         0.3780
@<TRIPOS>BOND
    1     1     2    1
    2     1     3    1
    3     1     4    1
    4     4     5    1
    5     4     6    1
    6     4     7    1
    7     7     8    1
    8     7     9    1
    9     7    10    1
   10    10    11    1
   11    10    12    1
   12    10    13    1
   13    13    14    1
   14    13    15    1
   15    15    16    1
   16    15    17    1
   17    15    18    1
   18    18    19    1
   19    18    20    1
   20     1    21    1
   21    18    21    1
   22    21    22    1
   23    21    23    1
   24    13    24    1
   25    24    25    1
@<TRIPOS>SUBSTRUCTURE
       1 MOL1            1 RESIDUE      1      MOL     
@<SCITEGIC>MOL_PROPERTY
VConf Rank
SciTegic.value.IntegerValue
493

@<SCITEGIC>MOL_PROPERTY
Conf_Id
SciTegic.value.IntegerValue
15

@<SCITEGIC>MOL_PROPERTY
Delta U+W
SciTegic.value.DoubleValue
-1.271

@<SCITEGIC>MOL_PROPERTY
U+W
SciTegic.value.DoubleValue
9.643

@<SCITEGIC>MOL_PROPERTY
Grad RMS
SciTegic.value.DoubleValue
0.000000

@<SCITEGIC>MOL_PROPERTY
U
SciTegic.value.DoubleValue
11.413

@<SCITEGIC>MOL_PROPERTY
W
SciTegic.value.DoubleValue
-1.770

@<SCITEGIC>MOL_PROPERTY
W(PB)
SciTegic.value.DoubleValue
-3.908

@<SCITEGIC>MOL_PROPERTY
W(SA)
SciTegic.value.DoubleValue
2.138

@<SCITEGIC>MOL_PROPERTY
Valence
SciTegic.value.DoubleValue
17.496

@<SCITEGIC>MOL_PROPERTY
Coulomb
SciTegic.value.DoubleValue
-8.736

@<SCITEGIC>MOL_PROPERTY
VdW
SciTegic.value.DoubleValue
2.653

@<SCITEGIC>MOL_PROPERTY
VdW6
SciTegic.value.DoubleValue
-12.485

@<SCITEGIC>MOL_PROPERTY
VdW12
SciTegic.value.DoubleValue
15.138

@<SCITEGIC>MOL_PROPERTY
Bond
SciTegic.value.DoubleValue
0.414

@<SCITEGIC>MOL_PROPERTY
Angle
SciTegic.value.DoubleValue
5.295

@<SCITEGIC>MOL_PROPERTY
Pdih
SciTegic.value.DoubleValue
11.787

@<SCITEGIC>MOL_PROPERTY
Idih
SciTegic.value.DoubleValue
0.000

@<SCITEGIC>MOL_PROPERTY
Tether
SciTegic.value.DoubleValue
0.000

@<TRIPOS>MOLECULE
guest-s17_confgen4.mol2 : confsearch ligand conformer 494
          25          25           1
SMALL
USER_CHARGES
 
@<TRIPOS>ATOM
       1    C1      21.537772   19.582132   24.096915 C.3        1 MOL1        -0.1684
       2    H1      22.062503   19.870773   25.017960 H          1 MOL1         0.0833
       3    H2      22.312809   19.587728   23.320094 H          1 MOL1         0.0833
       4    C2      20.993808   18.145928   24.316565 C.3        1 MOL1        -0.1684
       5    H3      21.852011   17.464440   24.393286 H          1 MOL1         0.0833
       6    H4      20.489807   18.102057   25.291671 H          1 MOL1         0.0833
       7    C3      20.021797   17.599986   23.243031 C.3        1 MOL1        -0.1684
       8    H5      19.022866   18.021807   23.404192 H          1 MOL1         0.0833
       9    H6      19.900813   16.520965   23.409952 H          1 MOL1         0.0833
      10    C4      20.495414   17.828483   21.783946 C.3        1 MOL1        -0.1760
      11    H7      21.525321   18.201517   21.760960 H          1 MOL1         0.0833
      12    H8      20.536232   16.856033   21.276137 H          1 MOL1         0.0833
      13    C5      19.578238   18.751775   20.949328 C.3        1 MOL1         0.1219
      14    H9      18.669395   18.183702   20.704120 H          1 MOL1         0.0790
      15    C6      19.122973   20.071061   21.625123 C.3        1 MOL1        -0.1760
      16    H10     18.631828   20.675092   20.850360 H          1 MOL1         0.0833
      17    H11     18.330277   19.864927   22.354269 H          1 MOL1         0.0833
      18    C7      20.226676   20.941403   22.283444 C.3        1 MOL1        -0.1684
      19    H12     19.896090   21.986040   22.202277 H          1 MOL1         0.0833
      20    H13     21.164060   20.890631   21.714634 H          1 MOL1         0.0833
      21    C8      20.475071   20.666776   23.792304 C.3        1 MOL1        -0.1684
      22    H14     19.534815   20.450452   24.317003 H          1 MOL1         0.0833
      23    H15     20.842742   21.605033   24.230101 H          1 MOL1         0.0833
      24    O1      20.253856   19.074009   19.741805 O.3        1 MOL1        -0.5508
      25    H16     20.997463   19.655795   19.998160 H          1 MOL1         0.3780
@<TRIPOS>BOND
    1     1     2    1
    2     1     3    1
    3     1     4    1
    4     4     5    1
    5     4     6    1
    6     4     7    1
    7     7     8    1
    8     7     9    1
    9     7    10    1
   10    10    11    1
   11    10    12    1
   12    10    13    1
   13    13    14    1
   14    13    15    1
   15    15    16    1
   16    15    17    1
   17    15    18    1
   18    18    19    1
   19    18    20    1
   20     1    21    1
   21    18    21    1
   22    21    22    1
   23    21    23    1
   24    13    24    1
   25    24    25    1
@<TRIPOS>SUBSTRUCTURE
       1 MOL1            1 RESIDUE      1      MOL     
@<SCITEGIC>MOL_PROPERTY
VConf Rank
SciTegic.value.IntegerValue
494

@<SCITEGIC>MOL_PROPERTY
Conf_Id
SciTegic.value.IntegerValue
115

@<SCITEGIC>MOL_PROPERTY
Delta U+W
SciTegic.value.DoubleValue
0.038

@<SCITEGIC>MOL_PROPERTY
U+W
SciTegic.value.DoubleValue
10.952

@<SCITEGIC>MOL_PROPERTY
Grad RMS
SciTegic.value.DoubleValue
0.000000

@<SCITEGIC>MOL_PROPERTY
U
SciTegic.value.DoubleValue
12.526

@<SCITEGIC>MOL_PROPERTY
W
SciTegic.value.DoubleValue
-1.575

@<SCITEGIC>MOL_PROPERTY
W(PB)
SciTegic.value.DoubleValue
-3.698

@<SCITEGIC>MOL_PROPERTY
W(SA)
SciTegic.value.DoubleValue
2.123

@<SCITEGIC>MOL_PROPERTY
Valence
SciTegic.value.DoubleValue
19.016

@<SCITEGIC>MOL_PROPERTY
Coulomb
SciTegic.value.DoubleValue
-9.226

@<SCITEGIC>MOL_PROPERTY
VdW
SciTegic.value.DoubleValue
2.737

@<SCITEGIC>MOL_PROPERTY
VdW6
SciTegic.value.DoubleValue
-12.612

@<SCITEGIC>MOL_PROPERTY
VdW12
SciTegic.value.DoubleValue
15.349

@<SCITEGIC>MOL_PROPERTY
Bond
SciTegic.value.DoubleValue
0.421

@<SCITEGIC>MOL_PROPERTY
Angle
SciTegic.value.DoubleValue
4.883

@<SCITEGIC>MOL_PROPERTY
Pdih
SciTegic.value.DoubleValue
13.711

@<SCITEGIC>MOL_PROPERTY
Idih
SciTegic.value.DoubleValue
0.000

@<SCITEGIC>MOL_PROPERTY
Tether
SciTegic.value.DoubleValue
0.000

@<TRIPOS>MOLECULE
guest-s17_confgen4.mol2 : confsearch ligand conformer 495
          25          25           1
SMALL
USER_CHARGES
 
@<TRIPOS>ATOM
       1    C1      21.286891   17.969342   21.236319 C.3        1 MOL1        -0.1684
       2    H1      21.958690   17.150642   20.944080 H          1 MOL1         0.0833
       3    H2      20.694454   18.197801   20.340048 H          1 MOL1         0.0833
       4    C2      22.172571   19.180608   21.610406 C.3        1 MOL1        -0.1684
       5    H3      22.852811   18.911644   22.429873 H          1 MOL1         0.0833
       6    H4      22.819240   19.393299   20.748094 H          1 MOL1         0.0833
       7    C3      21.402543   20.475473   21.958654 C.3        1 MOL1        -0.1684
       8    H5      20.564321   20.619202   21.263885 H          1 MOL1         0.0833
       9    H6      22.080703   21.320334   21.775701 H          1 MOL1         0.0833
      10    C4      20.936445   20.563706   23.436797 C.3        1 MOL1        -0.1760
      11    H7      21.430172   19.804812   24.056573 H          1 MOL1         0.0833
      12    H8      21.278500   21.530354   23.830688 H          1 MOL1         0.0833
      13    C5      19.405052   20.488268   23.629406 C.3        1 MOL1         0.1219
      14    H9      18.915169   21.003949   22.791099 H          1 MOL1         0.0790
      15    C6      18.839021   19.054901   23.736650 C.3        1 MOL1        -0.1760
      16    H10     19.272447   18.545263   24.607283 H          1 MOL1         0.0833
      17    H11     17.764071   19.138168   23.943919 H          1 MOL1         0.0833
      18    C7      19.003532   18.179338   22.470556 C.3        1 MOL1        -0.1684
      19    H12     18.794701   18.768836   21.567830 H          1 MOL1         0.0833
      20    H13     18.220710   17.408996   22.502038 H          1 MOL1         0.0833
      21    C8      20.368080   17.449119   22.366669 C.3        1 MOL1        -0.1684
      22    H14     20.159019   16.391183   22.156272 H          1 MOL1         0.0833
      23    H15     20.901196   17.453998   23.326665 H          1 MOL1         0.0833
      24    O1      19.079193   21.167660   24.836008 O.3        1 MOL1        -0.5508
      25    H16     18.102310   21.155862   24.912783 H          1 MOL1         0.3780
@<TRIPOS>BOND
    1     1     2    1
    2     1     3    1
    3     1     4    1
    4     4     5    1
    5     4     6    1
    6     4     7    1
    7     7     8    1
    8     7     9    1
    9     7    10    1
   10    10    11    1
   11    10    12    1
   12    10    13    1
   13    13    14    1
   14    13    15    1
   15    15    16    1
   16    15    17    1
   17    15    18    1
   18    18    19    1
   19    18    20    1
   20     1    21    1
   21    18    21    1
   22    21    22    1
   23    21    23    1
   24    13    24    1
   25    24    25    1
@<TRIPOS>SUBSTRUCTURE
       1 MOL1            1 RESIDUE      1      MOL     
@<SCITEGIC>MOL_PROPERTY
VConf Rank
SciTegic.value.IntegerValue
495

@<SCITEGIC>MOL_PROPERTY
Conf_Id
SciTegic.value.IntegerValue
30

@<SCITEGIC>MOL_PROPERTY
Delta U+W
SciTegic.value.DoubleValue
0.000

@<SCITEGIC>MOL_PROPERTY
U+W
SciTegic.value.DoubleValue
10.913

@<SCITEGIC>MOL_PROPERTY
Grad RMS
SciTegic.value.DoubleValue
0.000000

@<SCITEGIC>MOL_PROPERTY
U
SciTegic.value.DoubleValue
13.140

@<SCITEGIC>MOL_PROPERTY
W
SciTegic.value.DoubleValue
-2.227

@<SCITEGIC>MOL_PROPERTY
W(PB)
SciTegic.value.DoubleValue
-4.367

@<SCITEGIC>MOL_PROPERTY
W(SA)
SciTegic.value.DoubleValue
2.140

@<SCITEGIC>MOL_PROPERTY
Valence
SciTegic.value.DoubleValue
19.155

@<SCITEGIC>MOL_PROPERTY
Coulomb
SciTegic.value.DoubleValue
-8.157

@<SCITEGIC>MOL_PROPERTY
VdW
SciTegic.value.DoubleValue
2.142

@<SCITEGIC>MOL_PROPERTY
VdW6
SciTegic.value.DoubleValue
-11.576

@<SCITEGIC>MOL_PROPERTY
VdW12
SciTegic.value.DoubleValue
13.718

@<SCITEGIC>MOL_PROPERTY
Bond
SciTegic.value.DoubleValue
0.294

@<SCITEGIC>MOL_PROPERTY
Angle
SciTegic.value.DoubleValue
3.547

@<SCITEGIC>MOL_PROPERTY
Pdih
SciTegic.value.DoubleValue
15.314

@<SCITEGIC>MOL_PROPERTY
Idih
SciTegic.value.DoubleValue
0.000

@<SCITEGIC>MOL_PROPERTY
Tether
SciTegic.value.DoubleValue
0.000

@<TRIPOS>MOLECULE
guest-s17_confgen4.mol2 : confsearch ligand conformer 496
          25          25           1
SMALL
USER_CHARGES
 
@<TRIPOS>ATOM
       1    C1      19.837592   17.410798   21.655933 C.3        1 MOL1        -0.1684
       2    H1      20.173654   16.374710   21.798906 H          1 MOL1         0.0833
       3    H2      19.186159   17.392065   20.771593 H          1 MOL1         0.0833
       4    C2      21.072187   18.287003   21.330170 C.3        1 MOL1        -0.1684
       5    H3      21.692247   17.741770   20.605520 H          1 MOL1         0.0833
       6    H4      20.752611   19.189787   20.796871 H          1 MOL1         0.0833
       7    C3      21.946223   18.644578   22.558992 C.3        1 MOL1        -0.1684
       8    H5      22.977550   18.320018   22.364799 H          1 MOL1         0.0833
       9    H6      21.635377   18.074603   23.442247 H          1 MOL1         0.0833
      10    C4      21.974183   20.156854   22.896328 C.3        1 MOL1        -0.1760
      11    H7      22.454347   20.284810   23.875527 H          1 MOL1         0.0833
      12    H8      22.626753   20.662125   22.172437 H          1 MOL1         0.0833
      13    C5      20.613904   20.898342   22.899947 C.3        1 MOL1         0.1219
      14    H9      20.252682   20.996026   21.867492 H          1 MOL1         0.0790
      15    C6      19.504802   20.233169   23.751262 C.3        1 MOL1        -0.1760
      16    H10     19.944932   19.711265   24.610595 H          1 MOL1         0.0833
      17    H11     18.882512   21.028534   24.182708 H          1 MOL1         0.0833
      18    C7      18.547739   19.294560   22.963358 C.3        1 MOL1        -0.1684
      19    H12     18.343125   19.687759   21.958395 H          1 MOL1         0.0833
      20    H13     17.581301   19.313289   23.485742 H          1 MOL1         0.0833
      21    C8      18.991897   17.812444   22.893678 C.3        1 MOL1        -0.1684
      22    H14     18.086935   17.189659   22.877853 H          1 MOL1         0.0833
      23    H15     19.507162   17.531631   23.821027 H          1 MOL1         0.0833
      24    O1      20.849351   22.205207   23.410715 O.3        1 MOL1        -0.5508
      25    H16     20.003409   22.694295   23.335682 H          1 MOL1         0.3780
@<TRIPOS>BOND
    1     1     2    1
    2     1     3    1
    3     1     4    1
    4     4     5    1
    5     4     6    1
    6     4     7    1
    7     7     8    1
    8     7     9    1
    9     7    10    1
   10    10    11    1
   11    10    12    1
   12    10    13    1
   13    13    14    1
   14    13    15    1
   15    15    16    1
   16    15    17    1
   17    15    18    1
   18    18    19    1
   19    18    20    1
   20     1    21    1
   21    18    21    1
   22    21    22    1
   23    21    23    1
   24    13    24    1
   25    24    25    1
@<TRIPOS>SUBSTRUCTURE
       1 MOL1            1 RESIDUE      1      MOL     
@<SCITEGIC>MOL_PROPERTY
VConf Rank
SciTegic.value.IntegerValue
496

@<SCITEGIC>MOL_PROPERTY
Conf_Id
SciTegic.value.IntegerValue
162

@<SCITEGIC>MOL_PROPERTY
Delta U+W
SciTegic.value.DoubleValue
0.219

@<SCITEGIC>MOL_PROPERTY
U+W
SciTegic.value.DoubleValue
11.132

@<SCITEGIC>MOL_PROPERTY
Grad RMS
SciTegic.value.DoubleValue
0.000000

@<SCITEGIC>MOL_PROPERTY
U
SciTegic.value.DoubleValue
13.296

@<SCITEGIC>MOL_PROPERTY
W
SciTegic.value.DoubleValue
-2.164

@<SCITEGIC>MOL_PROPERTY
W(PB)
SciTegic.value.DoubleValue
-4.311

@<SCITEGIC>MOL_PROPERTY
W(SA)
SciTegic.value.DoubleValue
2.148

@<SCITEGIC>MOL_PROPERTY
Valence
SciTegic.value.DoubleValue
18.607

@<SCITEGIC>MOL_PROPERTY
Coulomb
SciTegic.value.DoubleValue
-8.339

@<SCITEGIC>MOL_PROPERTY
VdW
SciTegic.value.DoubleValue
3.028

@<SCITEGIC>MOL_PROPERTY
VdW6
SciTegic.value.DoubleValue
-12.271

@<SCITEGIC>MOL_PROPERTY
VdW12
SciTegic.value.DoubleValue
15.299

@<SCITEGIC>MOL_PROPERTY
Bond
SciTegic.value.DoubleValue
0.423

@<SCITEGIC>MOL_PROPERTY
Angle
SciTegic.value.DoubleValue
4.488

@<SCITEGIC>MOL_PROPERTY
Pdih
SciTegic.value.DoubleValue
13.696

@<SCITEGIC>MOL_PROPERTY
Idih
SciTegic.value.DoubleValue
0.000

@<SCITEGIC>MOL_PROPERTY
Tether
SciTegic.value.DoubleValue
0.000

@<TRIPOS>MOLECULE
guest-s17_confgen4.mol2 : confsearch ligand conformer 497
          25          25           1
SMALL
USER_CHARGES
 
@<TRIPOS>ATOM
       1    C1      18.944945   20.647595   22.841426 C.3        1 MOL1        -0.1684
       2    H1      19.427987   20.949873   23.779239 H          1 MOL1         0.0833
       3    H2      18.121583   21.362573   22.707822 H          1 MOL1         0.0833
       4    C2      19.929262   20.825501   21.658560 C.3        1 MOL1        -0.1684
       5    H3      19.618214   20.218285   20.797880 H          1 MOL1         0.0833
       6    H4      19.841158   21.868678   21.325156 H          1 MOL1         0.0833
       7    C3      21.426327   20.587747   22.001824 C.3        1 MOL1        -0.1684
       8    H5      21.666648   20.958346   23.007342 H          1 MOL1         0.0833
       9    H6      22.012518   21.212912   21.314307 H          1 MOL1         0.0833
      10    C4      21.923937   19.130502   21.817401 C.3        1 MOL1        -0.1760
      11    H7      21.399831   18.659620   20.976641 H          1 MOL1         0.0833
      12    H8      22.976059   19.172273   21.506743 H          1 MOL1         0.0833
      13    C5      21.869982   18.221140   23.070986 C.3        1 MOL1         0.1219
      14    H9      22.641300   18.569579   23.772948 H          1 MOL1         0.0790
      15    C6      20.527510   18.193143   23.839777 C.3        1 MOL1        -0.1760
      16    H10     20.555384   17.366739   24.561774 H          1 MOL1         0.0833
      17    H11     20.453558   19.093496   24.459028 H          1 MOL1         0.0833
      18    C7      19.269812   18.031589   22.945591 C.3        1 MOL1        -0.1684
      19    H12     18.717113   17.140052   23.271238 H          1 MOL1         0.0833
      20    H13     19.552095   17.820908   21.907304 H          1 MOL1         0.0833
      21    C8      18.304881   19.241206   22.984551 C.3        1 MOL1        -0.1684
      22    H14     17.745551   19.215220   23.929651 H          1 MOL1         0.0833
      23    H15     17.556684   19.109311   22.191130 H          1 MOL1         0.0833
      24    O1      22.184685   16.895839   22.660331 O.3        1 MOL1        -0.5508
      25    H16     22.143688   16.335193   23.462274 H          1 MOL1         0.3780
@<TRIPOS>BOND
    1     1     2    1
    2     1     3    1
    3     1     4    1
    4     4     5    1
    5     4     6    1
    6     4     7    1
    7     7     8    1
    8     7     9    1
    9     7    10    1
   10    10    11    1
   11    10    12    1
   12    10    13    1
   13    13    14    1
   14    13    15    1
   15    15    16    1
   16    15    17    1
   17    15    18    1
   18    18    19    1
   19    18    20    1
   20     1    21    1
   21    18    21    1
   22    21    22    1
   23    21    23    1
   24    13    24    1
   25    24    25    1
@<TRIPOS>SUBSTRUCTURE
       1 MOL1            1 RESIDUE      1      MOL     
@<SCITEGIC>MOL_PROPERTY
VConf Rank
SciTegic.value.IntegerValue
497

@<SCITEGIC>MOL_PROPERTY
Conf_Id
SciTegic.value.IntegerValue
155

@<SCITEGIC>MOL_PROPERTY
Delta U+W
SciTegic.value.DoubleValue
0.339

@<SCITEGIC>MOL_PROPERTY
U+W
SciTegic.value.DoubleValue
11.252

@<SCITEGIC>MOL_PROPERTY
Grad RMS
SciTegic.value.DoubleValue
0.000000

@<SCITEGIC>MOL_PROPERTY
U
SciTegic.value.DoubleValue
13.420

@<SCITEGIC>MOL_PROPERTY
W
SciTegic.value.DoubleValue
-2.167

@<SCITEGIC>MOL_PROPERTY
W(PB)
SciTegic.value.DoubleValue
-4.325

@<SCITEGIC>MOL_PROPERTY
W(SA)
SciTegic.value.DoubleValue
2.157

@<SCITEGIC>MOL_PROPERTY
Valence
SciTegic.value.DoubleValue
18.609

@<SCITEGIC>MOL_PROPERTY
Coulomb
SciTegic.value.DoubleValue
-8.052

@<SCITEGIC>MOL_PROPERTY
VdW
SciTegic.value.DoubleValue
2.863

@<SCITEGIC>MOL_PROPERTY
VdW6
SciTegic.value.DoubleValue
-12.524

@<SCITEGIC>MOL_PROPERTY
VdW12
SciTegic.value.DoubleValue
15.387

@<SCITEGIC>MOL_PROPERTY
Bond
SciTegic.value.DoubleValue
0.430

@<SCITEGIC>MOL_PROPERTY
Angle
SciTegic.value.DoubleValue
4.724

@<SCITEGIC>MOL_PROPERTY
Pdih
SciTegic.value.DoubleValue
13.455

@<SCITEGIC>MOL_PROPERTY
Idih
SciTegic.value.DoubleValue
0.000

@<SCITEGIC>MOL_PROPERTY
Tether
SciTegic.value.DoubleValue
0.000

@<TRIPOS>MOLECULE
guest-s17_confgen4.mol2 : confsearch ligand conformer 498
          25          25           1
SMALL
USER_CHARGES
 
@<TRIPOS>ATOM
       1    C1      19.870672   19.306418   20.728446 C.3        1 MOL1        -0.1684
       2    H1      19.939600   20.309479   20.286340 H          1 MOL1         0.0833
       3    H2      19.558989   18.646073   19.907727 H          1 MOL1         0.0833
       4    C2      21.284690   18.843185   21.167523 C.3        1 MOL1        -0.1684
       5    H3      21.236867   17.801301   21.499684 H          1 MOL1         0.0833
       6    H4      21.913094   18.797241   20.267682 H          1 MOL1         0.0833
       7    C3      22.039405   19.721680   22.207651 C.3        1 MOL1        -0.1684
       8    H5      22.568150   20.508053   21.652135 H          1 MOL1         0.0833
       9    H6      22.825254   19.117251   22.680753 H          1 MOL1         0.0833
      10    C4      21.206884   20.427893   23.312222 C.3        1 MOL1        -0.1760
      11    H7      21.883840   21.103041   23.851856 H          1 MOL1         0.0833
      12    H8      20.495233   21.112882   22.843079 H          1 MOL1         0.0833
      13    C5      20.484804   19.536207   24.364744 C.3        1 MOL1         0.1219
      14    H9      19.648302   20.117354   24.778629 H          1 MOL1         0.0790
      15    C6      19.927020   18.170786   23.890356 C.3        1 MOL1        -0.1760
      16    H10     20.754706   17.551749   23.532240 H          1 MOL1         0.0833
      17    H11     19.568206   17.634459   24.778743 H          1 MOL1         0.0833
      18    C7      18.756033   18.179542   22.862242 C.3        1 MOL1        -0.1684
      19    H12     17.819668   18.259844   23.431109 H          1 MOL1         0.0833
      20    H13     18.713078   17.201277   22.364775 H          1 MOL1         0.0833
      21    C8      18.730786   19.299350   21.788891 C.3        1 MOL1        -0.1684
      22    H14     18.651333   20.273394   22.281742 H          1 MOL1         0.0833
      23    H15     17.782458   19.211668   21.241292 H          1 MOL1         0.0833
      24    O1      21.408517   19.264273   25.413071 O.3        1 MOL1        -0.5508
      25    H16     21.721136   20.130472   25.746553 H          1 MOL1         0.3780
@<TRIPOS>BOND
    1     1     2    1
    2     1     3    1
    3     1     4    1
    4     4     5    1
    5     4     6    1
    6     4     7    1
    7     7     8    1
    8     7     9    1
    9     7    10    1
   10    10    11    1
   11    10    12    1
   12    10    13    1
   13    13    14    1
   14    13    15    1
   15    15    16    1
   16    15    17    1
   17    15    18    1
   18    18    19    1
   19    18    20    1
   20     1    21    1
   21    18    21    1
   22    21    22    1
   23    21    23    1
   24    13    24    1
   25    24    25    1
@<TRIPOS>SUBSTRUCTURE
       1 MOL1            1 RESIDUE      1      MOL     
@<SCITEGIC>MOL_PROPERTY
VConf Rank
SciTegic.value.IntegerValue
498

@<SCITEGIC>MOL_PROPERTY
Conf_Id
SciTegic.value.IntegerValue
146

@<SCITEGIC>MOL_PROPERTY
Delta U+W
SciTegic.value.DoubleValue
2.553

@<SCITEGIC>MOL_PROPERTY
U+W
SciTegic.value.DoubleValue
13.466

@<SCITEGIC>MOL_PROPERTY
Grad RMS
SciTegic.value.DoubleValue
0.000000

@<SCITEGIC>MOL_PROPERTY
U
SciTegic.value.DoubleValue
15.643

@<SCITEGIC>MOL_PROPERTY
W
SciTegic.value.DoubleValue
-2.176

@<SCITEGIC>MOL_PROPERTY
W(PB)
SciTegic.value.DoubleValue
-4.307

@<SCITEGIC>MOL_PROPERTY
W(SA)
SciTegic.value.DoubleValue
2.131

@<SCITEGIC>MOL_PROPERTY
Valence
SciTegic.value.DoubleValue
18.916

@<SCITEGIC>MOL_PROPERTY
Coulomb
SciTegic.value.DoubleValue
-7.506

@<SCITEGIC>MOL_PROPERTY
VdW
SciTegic.value.DoubleValue
4.232

@<SCITEGIC>MOL_PROPERTY
VdW6
SciTegic.value.DoubleValue
-13.632

@<SCITEGIC>MOL_PROPERTY
VdW12
SciTegic.value.DoubleValue
17.864

@<SCITEGIC>MOL_PROPERTY
Bond
SciTegic.value.DoubleValue
0.735

@<SCITEGIC>MOL_PROPERTY
Angle
SciTegic.value.DoubleValue
9.140

@<SCITEGIC>MOL_PROPERTY
Pdih
SciTegic.value.DoubleValue
9.042

@<SCITEGIC>MOL_PROPERTY
Idih
SciTegic.value.DoubleValue
0.000

@<SCITEGIC>MOL_PROPERTY
Tether
SciTegic.value.DoubleValue
0.000

@<TRIPOS>MOLECULE
guest-s17_confgen4.mol2 : confsearch ligand conformer 499
          25          25           1
SMALL
USER_CHARGES
 
@<TRIPOS>ATOM
       1    C1      21.728895   18.060663   21.721410 C.3        1 MOL1        -0.1684
       2    H1      22.545406   18.476030   21.115370 H          1 MOL1         0.0833
       3    H2      21.859518   16.970407   21.686879 H          1 MOL1         0.0833
       4    C2      20.373595   18.385568   21.044845 C.3        1 MOL1        -0.1684
       5    H3      20.383717   17.914593   20.052433 H          1 MOL1         0.0833
       6    H4      19.553514   17.889816   21.576676 H          1 MOL1         0.0833
       7    C3      20.057487   19.888008   20.837165 C.3        1 MOL1        -0.1684
       8    H5      19.132242   19.952905   20.248360 H          1 MOL1         0.0833
       9    H6      20.839840   20.340934   20.213287 H          1 MOL1         0.0833
      10    C4      19.869044   20.749730   22.112950 C.3        1 MOL1        -0.1760
      11    H7      20.841215   21.054106   22.513336 H          1 MOL1         0.0833
      12    H8      19.394902   21.689887   21.800173 H          1 MOL1         0.0833
      13    C5      19.011713   20.096716   23.227684 C.3        1 MOL1         0.1219
      14    H9      18.394525   19.296958   22.796744 H          1 MOL1         0.0790
      15    C6      19.836230   19.527954   24.410243 C.3        1 MOL1        -0.1760
      16    H10     20.476621   20.321382   24.817786 H          1 MOL1         0.0833
      17    H11     19.137684   19.267453   25.216167 H          1 MOL1         0.0833
      18    C7      20.699135   18.269172   24.123073 C.3        1 MOL1        -0.1684
      19    H12     20.075837   17.445952   23.750772 H          1 MOL1         0.0833
      20    H13     21.087625   17.919737   25.089485 H          1 MOL1         0.0833
      21    C8      21.915801   18.512315   23.192969 C.3        1 MOL1        -0.1684
      22    H14     22.770881   17.952295   23.595776 H          1 MOL1         0.0833
      23    H15     22.231449   19.560716   23.238197 H          1 MOL1         0.0833
      24    O1      18.143188   21.091887   23.757447 O.3        1 MOL1        -0.5508
      25    H16     17.571033   20.646713   24.416749 H          1 MOL1         0.3780
@<TRIPOS>BOND
    1     1     2    1
    2     1     3    1
    3     1     4    1
    4     4     5    1
    5     4     6    1
    6     4     7    1
    7     7     8    1
    8     7     9    1
    9     7    10    1
   10    10    11    1
   11    10    12    1
   12    10    13    1
   13    13    14    1
   14    13    15    1
   15    15    16    1
   16    15    17    1
   17    15    18    1
   18    18    19    1
   19    18    20    1
   20     1    21    1
   21    18    21    1
   22    21    22    1
   23    21    23    1
   24    13    24    1
   25    24    25    1
@<TRIPOS>SUBSTRUCTURE
       1 MOL1            1 RESIDUE      1      MOL     
@<SCITEGIC>MOL_PROPERTY
VConf Rank
SciTegic.value.IntegerValue
499

@<SCITEGIC>MOL_PROPERTY
Conf_Id
SciTegic.value.IntegerValue
62

@<SCITEGIC>MOL_PROPERTY
Delta U+W
SciTegic.value.DoubleValue
-1.779

@<SCITEGIC>MOL_PROPERTY
U+W
SciTegic.value.DoubleValue
9.134

@<SCITEGIC>MOL_PROPERTY
Grad RMS
SciTegic.value.DoubleValue
0.000000

@<SCITEGIC>MOL_PROPERTY
U
SciTegic.value.DoubleValue
11.364

@<SCITEGIC>MOL_PROPERTY
W
SciTegic.value.DoubleValue
-2.230

@<SCITEGIC>MOL_PROPERTY
W(PB)
SciTegic.value.DoubleValue
-4.359

@<SCITEGIC>MOL_PROPERTY
W(SA)
SciTegic.value.DoubleValue
2.129

@<SCITEGIC>MOL_PROPERTY
Valence
SciTegic.value.DoubleValue
16.582

@<SCITEGIC>MOL_PROPERTY
Coulomb
SciTegic.value.DoubleValue
-8.150

@<SCITEGIC>MOL_PROPERTY
VdW
SciTegic.value.DoubleValue
2.933

@<SCITEGIC>MOL_PROPERTY
VdW6
SciTegic.value.DoubleValue
-12.531

@<SCITEGIC>MOL_PROPERTY
VdW12
SciTegic.value.DoubleValue
15.464

@<SCITEGIC>MOL_PROPERTY
Bond
SciTegic.value.DoubleValue
0.439

@<SCITEGIC>MOL_PROPERTY
Angle
SciTegic.value.DoubleValue
5.099

@<SCITEGIC>MOL_PROPERTY
Pdih
SciTegic.value.DoubleValue
11.044

@<SCITEGIC>MOL_PROPERTY
Idih
SciTegic.value.DoubleValue
0.000

@<SCITEGIC>MOL_PROPERTY
Tether
SciTegic.value.DoubleValue
0.000

@<TRIPOS>MOLECULE
guest-s17_confgen4.mol2 : confsearch ligand conformer 500
          25          25           1
SMALL
USER_CHARGES
 
@<TRIPOS>ATOM
       1    C1      19.111871   20.439951   22.063523 C.3        1 MOL1        -0.1684
       2    H1      19.909940   20.476267   21.313262 H          1 MOL1         0.0833
       3    H2      18.378066   21.182975   21.722809 H          1 MOL1         0.0833
       4    C2      19.642072   20.914366   23.439557 C.3        1 MOL1        -0.1684
       5    H3      19.999468   21.945866   23.316417 H          1 MOL1         0.0833
       6    H4      18.806356   20.972539   24.149972 H          1 MOL1         0.0833
       7    C3      20.788310   20.088887   24.077870 C.3        1 MOL1        -0.1684
       8    H5      20.386408   19.216984   24.606312 H          1 MOL1         0.0833
       9    H6      21.231796   20.708911   24.869018 H          1 MOL1         0.0833
      10    C4      21.919740   19.662221   23.104662 C.3        1 MOL1        -0.1760
      11    H7      21.969761   20.334029   22.238969 H          1 MOL1         0.0833
      12    H8      22.871716   19.800835   23.633691 H          1 MOL1         0.0833
      13    C5      21.859837   18.184406   22.642203 C.3        1 MOL1         0.1219
      14    H9      21.802885   17.545799   23.535466 H          1 MOL1         0.0790
      15    C6      20.688157   17.803673   21.702992 C.3        1 MOL1        -0.1760
      16    H10     20.705366   18.421322   20.796900 H          1 MOL1         0.0833
      17    H11     20.876141   16.778711   21.356690 H          1 MOL1         0.0833
      18    C7      19.284488   17.818688   22.365607 C.3        1 MOL1        -0.1684
      19    H12     19.369787   17.681086   23.449459 H          1 MOL1         0.0833
      20    H13     18.732453   16.934276   22.019168 H          1 MOL1         0.0833
      21    C8      18.411990   19.058149   22.040946 C.3        1 MOL1        -0.1684
      22    H14     17.550675   19.076268   22.722336 H          1 MOL1         0.0833
      23    H15     17.992194   18.918799   21.035344 H          1 MOL1         0.0833
      24    O1      23.070527   17.898565   21.953037 O.3        1 MOL1        -0.5508
      25    H16     23.802188   18.078161   22.579587 H          1 MOL1         0.3780
@<TRIPOS>BOND
    1     1     2    1
    2     1     3    1
    3     1     4    1
    4     4     5    1
    5     4     6    1
    6     4     7    1
    7     7     8    1
    8     7     9    1
    9     7    10    1
   10    10    11    1
   11    10    12    1
   12    10    13    1
   13    13    14    1
   14    13    15    1
   15    15    16    1
   16    15    17    1
   17    15    18    1
   18    18    19    1
   19    18    20    1
   20     1    21    1
   21    18    21    1
   22    21    22    1
   23    21    23    1
   24    13    24    1
   25    24    25    1
@<TRIPOS>SUBSTRUCTURE
       1 MOL1            1 RESIDUE      1      MOL     
@<SCITEGIC>MOL_PROPERTY
VConf Rank
SciTegic.value.IntegerValue
500

@<SCITEGIC>MOL_PROPERTY
Conf_Id
SciTegic.value.IntegerValue
121

@<SCITEGIC>MOL_PROPERTY
Delta U+W
SciTegic.value.DoubleValue
-1.283

@<SCITEGIC>MOL_PROPERTY
U+W
SciTegic.value.DoubleValue
9.630

@<SCITEGIC>MOL_PROPERTY
Grad RMS
SciTegic.value.DoubleValue
0.000000

@<SCITEGIC>MOL_PROPERTY
U
SciTegic.value.DoubleValue
11.876

@<SCITEGIC>MOL_PROPERTY
W
SciTegic.value.DoubleValue
-2.246

@<SCITEGIC>MOL_PROPERTY
W(PB)
SciTegic.value.DoubleValue
-4.376

@<SCITEGIC>MOL_PROPERTY
W(SA)
SciTegic.value.DoubleValue
2.130

@<SCITEGIC>MOL_PROPERTY
Valence
SciTegic.value.DoubleValue
17.153

@<SCITEGIC>MOL_PROPERTY
Coulomb
SciTegic.value.DoubleValue
-7.966

@<SCITEGIC>MOL_PROPERTY
VdW
SciTegic.value.DoubleValue
2.689

@<SCITEGIC>MOL_PROPERTY
VdW6
SciTegic.value.DoubleValue
-12.458

@<SCITEGIC>MOL_PROPERTY
VdW12
SciTegic.value.DoubleValue
15.147

@<SCITEGIC>MOL_PROPERTY
Bond
SciTegic.value.DoubleValue
0.421

@<SCITEGIC>MOL_PROPERTY
Angle
SciTegic.value.DoubleValue
5.258

@<SCITEGIC>MOL_PROPERTY
Pdih
SciTegic.value.DoubleValue
11.475

@<SCITEGIC>MOL_PROPERTY
Idih
SciTegic.value.DoubleValue
0.000

@<SCITEGIC>MOL_PROPERTY
Tether
SciTegic.value.DoubleValue
0.000

@<TRIPOS>MOLECULE
guest-s17_confgen4.mol2 : confsearch ligand conformer 501
          25          25           1
SMALL
USER_CHARGES
 
@<TRIPOS>ATOM
       1    C1      21.343311   20.565583   21.789208 C.3        1 MOL1        -0.1684
       2    H1      21.611078   19.633639   21.278419 H          1 MOL1         0.0833
       3    H2      21.914188   21.342939   21.263415 H          1 MOL1         0.0833
       4    C2      21.842607   20.540430   23.255425 C.3        1 MOL1        -0.1684
       5    H3      22.934696   20.424192   23.228736 H          1 MOL1         0.0833
       6    H4      21.659488   21.519632   23.718151 H          1 MOL1         0.0833
       7    C3      21.271120   19.433274   24.177669 C.3        1 MOL1        -0.1684
       8    H5      20.300011   19.735433   24.585825 H          1 MOL1         0.0833
       9    H6      21.929896   19.370218   25.054588 H          1 MOL1         0.0833
      10    C4      21.177724   18.021290   23.539586 C.3        1 MOL1        -0.1760
      11    H7      21.894673   17.909767   22.717190 H          1 MOL1         0.0833
      12    H8      21.496523   17.296216   24.300140 H          1 MOL1         0.0833
      13    C5      19.758084   17.601426   23.083240 C.3        1 MOL1         0.1219
      14    H9      19.073541   17.731312   23.933834 H          1 MOL1         0.0790
      15    C6      19.171992   18.362816   21.867440 C.3        1 MOL1        -0.1760
      16    H10     19.832356   18.263590   20.997196 H          1 MOL1         0.0833
      17    H11     18.240385   17.856432   21.582787 H          1 MOL1         0.0833
      18    C7      18.821266   19.850934   22.135402 C.3        1 MOL1        -0.1684
      19    H12     18.644331   20.017998   23.203942 H          1 MOL1         0.0833
      20    H13     17.854520   20.066657   21.660125 H          1 MOL1         0.0833
      21    C8      19.840485   20.880969   21.585003 C.3        1 MOL1        -0.1684
      22    H14     19.615616   21.867831   22.011654 H          1 MOL1         0.0833
      23    H15     19.668847   20.978579   20.504308 H          1 MOL1         0.0833
      24    O1      19.808576   16.221175   22.744447 O.3        1 MOL1        -0.5508
      25    H16     18.893250   15.950239   22.523267 H          1 MOL1         0.3780
@<TRIPOS>BOND
    1     1     2    1
    2     1     3    1
    3     1     4    1
    4     4     5    1
    5     4     6    1
    6     4     7    1
    7     7     8    1
    8     7     9    1
    9     7    10    1
   10    10    11    1
   11    10    12    1
   12    10    13    1
   13    13    14    1
   14    13    15    1
   15    15    16    1
   16    15    17    1
   17    15    18    1
   18    18    19    1
   19    18    20    1
   20     1    21    1
   21    18    21    1
   22    21    22    1
   23    21    23    1
   24    13    24    1
   25    24    25    1
@<TRIPOS>SUBSTRUCTURE
       1 MOL1            1 RESIDUE      1      MOL     
@<SCITEGIC>MOL_PROPERTY
VConf Rank
SciTegic.value.IntegerValue
501

@<SCITEGIC>MOL_PROPERTY
Conf_Id
SciTegic.value.IntegerValue
24

@<SCITEGIC>MOL_PROPERTY
Delta U+W
SciTegic.value.DoubleValue
-1.236

@<SCITEGIC>MOL_PROPERTY
U+W
SciTegic.value.DoubleValue
9.678

@<SCITEGIC>MOL_PROPERTY
Grad RMS
SciTegic.value.DoubleValue
0.000000

@<SCITEGIC>MOL_PROPERTY
U
SciTegic.value.DoubleValue
11.876

@<SCITEGIC>MOL_PROPERTY
W
SciTegic.value.DoubleValue
-2.199

@<SCITEGIC>MOL_PROPERTY
W(PB)
SciTegic.value.DoubleValue
-4.335

@<SCITEGIC>MOL_PROPERTY
W(SA)
SciTegic.value.DoubleValue
2.137

@<SCITEGIC>MOL_PROPERTY
Valence
SciTegic.value.DoubleValue
17.153

@<SCITEGIC>MOL_PROPERTY
Coulomb
SciTegic.value.DoubleValue
-7.966

@<SCITEGIC>MOL_PROPERTY
VdW
SciTegic.value.DoubleValue
2.689

@<SCITEGIC>MOL_PROPERTY
VdW6
SciTegic.value.DoubleValue
-12.458

@<SCITEGIC>MOL_PROPERTY
VdW12
SciTegic.value.DoubleValue
15.147

@<SCITEGIC>MOL_PROPERTY
Bond
SciTegic.value.DoubleValue
0.421

@<SCITEGIC>MOL_PROPERTY
Angle
SciTegic.value.DoubleValue
5.258

@<SCITEGIC>MOL_PROPERTY
Pdih
SciTegic.value.DoubleValue
11.475

@<SCITEGIC>MOL_PROPERTY
Idih
SciTegic.value.DoubleValue
0.000

@<SCITEGIC>MOL_PROPERTY
Tether
SciTegic.value.DoubleValue
0.000

@<TRIPOS>MOLECULE
guest-s17_confgen4.mol2 : confsearch ligand conformer 502
          25          25           1
SMALL
USER_CHARGES
 
@<TRIPOS>ATOM
       1    C1      21.924489   20.137933   23.619129 C.3        1 MOL1        -0.1684
       2    H1      21.852999   21.122869   24.100341 H          1 MOL1         0.0833
       3    H2      22.979296   19.842491   23.702493 H          1 MOL1         0.0833
       4    C2      21.078326   19.120697   24.429956 C.3        1 MOL1        -0.1684
       5    H3      21.375813   18.092078   24.189668 H          1 MOL1         0.0833
       6    H4      21.349527   19.249974   25.486746 H          1 MOL1         0.0833
       7    C3      19.541146   19.268271   24.311810 C.3        1 MOL1        -0.1684
       8    H5      19.257346   20.324454   24.209880 H          1 MOL1         0.0833
       9    H6      19.115131   18.943844   25.271217 H          1 MOL1         0.0833
      10    C4      18.877124   18.398978   23.206671 C.3        1 MOL1        -0.1760
      11    H7      19.377890   17.426106   23.121625 H          1 MOL1         0.0833
      12    H8      17.858530   18.176569   23.553008 H          1 MOL1         0.0833
      13    C5      18.767268   19.076792   21.819019 C.3        1 MOL1         0.1219
      14    H9      18.699041   20.162836   21.965742 H          1 MOL1         0.0790
      15    C6      19.922484   18.764707   20.834190 C.3        1 MOL1        -0.1760
      16    H10     19.830913   17.728991   20.481660 H          1 MOL1         0.0833
      17    H11     19.784243   19.398429   19.948240 H          1 MOL1         0.0833
      18    C7      21.365161   18.970410   21.360507 C.3        1 MOL1        -0.1684
      19    H12     22.048667   18.941259   20.501014 H          1 MOL1         0.0833
      20    H13     21.658348   18.114634   21.979684 H          1 MOL1         0.0833
      21    C8      21.577397   20.304726   22.119394 C.3        1 MOL1        -0.1684
      22    H14     20.706450   20.961988   22.013974 H          1 MOL1         0.0833
      23    H15     22.399459   20.854043   21.640504 H          1 MOL1         0.0833
      24    O1      17.560740   18.643469   21.204016 O.3        1 MOL1        -0.5508
      25    H16     17.635076   17.672375   21.101920 H          1 MOL1         0.3780
@<TRIPOS>BOND
    1     1     2    1
    2     1     3    1
    3     1     4    1
    4     4     5    1
    5     4     6    1
    6     4     7    1
    7     7     8    1
    8     7     9    1
    9     7    10    1
   10    10    11    1
   11    10    12    1
   12    10    13    1
   13    13    14    1
   14    13    15    1
   15    15    16    1
   16    15    17    1
   17    15    18    1
   18    18    19    1
   19    18    20    1
   20     1    21    1
   21    18    21    1
   22    21    22    1
   23    21    23    1
   24    13    24    1
   25    24    25    1
@<TRIPOS>SUBSTRUCTURE
       1 MOL1            1 RESIDUE      1      MOL     
@<SCITEGIC>MOL_PROPERTY
VConf Rank
SciTegic.value.IntegerValue
502

@<SCITEGIC>MOL_PROPERTY
Conf_Id
SciTegic.value.IntegerValue
167

@<SCITEGIC>MOL_PROPERTY
Delta U+W
SciTegic.value.DoubleValue
0.388

@<SCITEGIC>MOL_PROPERTY
U+W
SciTegic.value.DoubleValue
11.301

@<SCITEGIC>MOL_PROPERTY
Grad RMS
SciTegic.value.DoubleValue
0.000000

@<SCITEGIC>MOL_PROPERTY
U
SciTegic.value.DoubleValue
13.202

@<SCITEGIC>MOL_PROPERTY
W
SciTegic.value.DoubleValue
-1.901

@<SCITEGIC>MOL_PROPERTY
W(PB)
SciTegic.value.DoubleValue
-4.065

@<SCITEGIC>MOL_PROPERTY
W(SA)
SciTegic.value.DoubleValue
2.163

@<SCITEGIC>MOL_PROPERTY
Valence
SciTegic.value.DoubleValue
18.957

@<SCITEGIC>MOL_PROPERTY
Coulomb
SciTegic.value.DoubleValue
-8.753

@<SCITEGIC>MOL_PROPERTY
VdW
SciTegic.value.DoubleValue
2.998

@<SCITEGIC>MOL_PROPERTY
VdW6
SciTegic.value.DoubleValue
-12.294

@<SCITEGIC>MOL_PROPERTY
VdW12
SciTegic.value.DoubleValue
15.292

@<SCITEGIC>MOL_PROPERTY
Bond
SciTegic.value.DoubleValue
0.419

@<SCITEGIC>MOL_PROPERTY
Angle
SciTegic.value.DoubleValue
4.543

@<SCITEGIC>MOL_PROPERTY
Pdih
SciTegic.value.DoubleValue
13.996

@<SCITEGIC>MOL_PROPERTY
Idih
SciTegic.value.DoubleValue
0.000

@<SCITEGIC>MOL_PROPERTY
Tether
SciTegic.value.DoubleValue
0.000

@<TRIPOS>MOLECULE
guest-s17_confgen4.mol2 : confsearch ligand conformer 503
          25          25           1
SMALL
USER_CHARGES
 
@<TRIPOS>ATOM
       1    C1      19.446786   20.515330   21.283423 C.3        1 MOL1        -0.1684
       2    H1      19.233379   20.191132   20.255875 H          1 MOL1         0.0833
       3    H2      19.086342   21.551122   21.347718 H          1 MOL1         0.0833
       4    C2      20.983134   20.536705   21.494337 C.3        1 MOL1        -0.1684
       5    H3      21.450334   19.665399   21.021734 H          1 MOL1         0.0833
       6    H4      21.373541   21.394723   20.930049 H          1 MOL1         0.0833
       7    C3      21.452390   20.674614   22.965943 C.3        1 MOL1        -0.1684
       8    H5      20.689014   21.171155   23.578702 H          1 MOL1         0.0833
       9    H6      22.314654   21.355292   22.975080 H          1 MOL1         0.0833
      10    C4      21.915075   19.348925   23.629810 C.3        1 MOL1        -0.1760
      11    H7      22.706147   18.892374   23.020705 H          1 MOL1         0.0833
      12    H8      22.389342   19.606514   24.586108 H          1 MOL1         0.0833
      13    C5      20.820290   18.291876   23.918775 C.3        1 MOL1         0.1219
      14    H9      20.014305   18.759246   24.500246 H          1 MOL1         0.0790
      15    C6      20.232454   17.625502   22.647900 C.3        1 MOL1        -0.1760
      16    H10     20.935289   17.719773   21.813988 H          1 MOL1         0.0833
      17    H11     20.145471   16.542709   22.808948 H          1 MOL1         0.0833
      18    C7      18.830842   18.138868   22.227541 C.3        1 MOL1        -0.1684
      19    H12     18.088276   17.674706   22.890937 H          1 MOL1         0.0833
      20    H13     18.602817   17.767257   21.219343 H          1 MOL1         0.0833
      21    C8      18.603370   19.670923   22.271497 C.3        1 MOL1        -0.1684
      22    H14     18.722432   20.049088   23.293243 H          1 MOL1         0.0833
      23    H15     17.546170   19.849976   22.032563 H          1 MOL1         0.0833
      24    O1      21.413179   17.276615   24.719956 O.3        1 MOL1        -0.5508
      25    H16     20.696977   16.650021   24.954374 H          1 MOL1         0.3780
@<TRIPOS>BOND
    1     1     2    1
    2     1     3    1
    3     1     4    1
    4     4     5    1
    5     4     6    1
    6     4     7    1
    7     7     8    1
    8     7     9    1
    9     7    10    1
   10    10    11    1
   11    10    12    1
   12    10    13    1
   13    13    14    1
   14    13    15    1
   15    15    16    1
   16    15    17    1
   17    15    18    1
   18    18    19    1
   19    18    20    1
   20     1    21    1
   21    18    21    1
   22    21    22    1
   23    21    23    1
   24    13    24    1
   25    24    25    1
@<TRIPOS>SUBSTRUCTURE
       1 MOL1            1 RESIDUE      1      MOL     
@<SCITEGIC>MOL_PROPERTY
VConf Rank
SciTegic.value.IntegerValue
503

@<SCITEGIC>MOL_PROPERTY
Conf_Id
SciTegic.value.IntegerValue
60

@<SCITEGIC>MOL_PROPERTY
Delta U+W
SciTegic.value.DoubleValue
-1.838

@<SCITEGIC>MOL_PROPERTY
U+W
SciTegic.value.DoubleValue
9.075

@<SCITEGIC>MOL_PROPERTY
Grad RMS
SciTegic.value.DoubleValue
0.000000

@<SCITEGIC>MOL_PROPERTY
U
SciTegic.value.DoubleValue
11.150

@<SCITEGIC>MOL_PROPERTY
W
SciTegic.value.DoubleValue
-2.074

@<SCITEGIC>MOL_PROPERTY
W(PB)
SciTegic.value.DoubleValue
-4.196

@<SCITEGIC>MOL_PROPERTY
W(SA)
SciTegic.value.DoubleValue
2.121

@<SCITEGIC>MOL_PROPERTY
Valence
SciTegic.value.DoubleValue
16.582

@<SCITEGIC>MOL_PROPERTY
Coulomb
SciTegic.value.DoubleValue
-8.361

@<SCITEGIC>MOL_PROPERTY
VdW
SciTegic.value.DoubleValue
2.928

@<SCITEGIC>MOL_PROPERTY
VdW6
SciTegic.value.DoubleValue
-12.539

@<SCITEGIC>MOL_PROPERTY
VdW12
SciTegic.value.DoubleValue
15.467

@<SCITEGIC>MOL_PROPERTY
Bond
SciTegic.value.DoubleValue
0.441

@<SCITEGIC>MOL_PROPERTY
Angle
SciTegic.value.DoubleValue
5.093

@<SCITEGIC>MOL_PROPERTY
Pdih
SciTegic.value.DoubleValue
11.049

@<SCITEGIC>MOL_PROPERTY
Idih
SciTegic.value.DoubleValue
0.000

@<SCITEGIC>MOL_PROPERTY
Tether
SciTegic.value.DoubleValue
0.000

@<TRIPOS>MOLECULE
guest-s17_confgen4.mol2 : confsearch ligand conformer 504
          25          25           1
SMALL
USER_CHARGES
 
@<TRIPOS>ATOM
       1    C1      19.800801   18.064891   24.305352 C.3        1 MOL1        -0.1684
       2    H1      19.412317   17.042787   24.201006 H          1 MOL1         0.0833
       3    H2      19.792905   18.275748   25.383496 H          1 MOL1         0.0833
       4    C2      18.817694   19.056500   23.633879 C.3        1 MOL1        -0.1684
       5    H3      17.855503   18.964758   24.155985 H          1 MOL1         0.0833
       6    H4      19.133592   20.089572   23.818591 H          1 MOL1         0.0833
       7    C3      18.544669   18.831637   22.125316 C.3        1 MOL1        -0.1684
       8    H5      17.750485   19.528809   21.825039 H          1 MOL1         0.0833
       9    H6      18.128963   17.825619   21.978116 H          1 MOL1         0.0833
      10    C4      19.741553   19.027779   21.159006 C.3        1 MOL1        -0.1760
      11    H7      20.367249   18.129678   21.145108 H          1 MOL1         0.0833
      12    H8      19.330192   19.088185   20.142603 H          1 MOL1         0.0833
      13    C5      20.612068   20.279978   21.439943 C.3        1 MOL1         0.1219
      14    H9      20.045767   20.997607   22.048602 H          1 MOL1         0.0790
      15    C6      21.957329   19.970287   22.142630 C.3        1 MOL1        -0.1760
      16    H10     22.510685   19.228222   21.552393 H          1 MOL1         0.0833
      17    H11     22.565462   20.884155   22.114290 H          1 MOL1         0.0833
      18    C7      21.884751   19.503324   23.622132 C.3        1 MOL1        -0.1684
      19    H12     21.370519   20.249721   24.241185 H          1 MOL1         0.0833
      20    H13     22.915690   19.477939   24.000849 H          1 MOL1         0.0833
      21    C8      21.276929   18.091927   23.830357 C.3        1 MOL1        -0.1684
      22    H14     21.870932   17.574368   24.596078 H          1 MOL1         0.0833
      23    H15     21.404247   17.481583   22.929206 H          1 MOL1         0.0833
      24    O1      20.917113   20.898309   20.195443 O.3        1 MOL1        -0.5508
      25    H16     20.061300   21.152309   19.790989 H          1 MOL1         0.3780
@<TRIPOS>BOND
    1     1     2    1
    2     1     3    1
    3     1     4    1
    4     4     5    1
    5     4     6    1
    6     4     7    1
    7     7     8    1
    8     7     9    1
    9     7    10    1
   10    10    11    1
   11    10    12    1
   12    10    13    1
   13    13    14    1
   14    13    15    1
   15    15    16    1
   16    15    17    1
   17    15    18    1
   18    18    19    1
   19    18    20    1
   20     1    21    1
   21    18    21    1
   22    21    22    1
   23    21    23    1
   24    13    24    1
   25    24    25    1
@<TRIPOS>SUBSTRUCTURE
       1 MOL1            1 RESIDUE      1      MOL     
@<SCITEGIC>MOL_PROPERTY
VConf Rank
SciTegic.value.IntegerValue
504

@<SCITEGIC>MOL_PROPERTY
Conf_Id
SciTegic.value.IntegerValue
129

@<SCITEGIC>MOL_PROPERTY
Delta U+W
SciTegic.value.DoubleValue
-1.846

@<SCITEGIC>MOL_PROPERTY
U+W
SciTegic.value.DoubleValue
9.067

@<SCITEGIC>MOL_PROPERTY
Grad RMS
SciTegic.value.DoubleValue
0.000000

@<SCITEGIC>MOL_PROPERTY
U
SciTegic.value.DoubleValue
11.150

@<SCITEGIC>MOL_PROPERTY
W
SciTegic.value.DoubleValue
-2.083

@<SCITEGIC>MOL_PROPERTY
W(PB)
SciTegic.value.DoubleValue
-4.217

@<SCITEGIC>MOL_PROPERTY
W(SA)
SciTegic.value.DoubleValue
2.134

@<SCITEGIC>MOL_PROPERTY
Valence
SciTegic.value.DoubleValue
16.583

@<SCITEGIC>MOL_PROPERTY
Coulomb
SciTegic.value.DoubleValue
-8.361

@<SCITEGIC>MOL_PROPERTY
VdW
SciTegic.value.DoubleValue
2.928

@<SCITEGIC>MOL_PROPERTY
VdW6
SciTegic.value.DoubleValue
-12.539

@<SCITEGIC>MOL_PROPERTY
VdW12
SciTegic.value.DoubleValue
15.467

@<SCITEGIC>MOL_PROPERTY
Bond
SciTegic.value.DoubleValue
0.441

@<SCITEGIC>MOL_PROPERTY
Angle
SciTegic.value.DoubleValue
5.093

@<SCITEGIC>MOL_PROPERTY
Pdih
SciTegic.value.DoubleValue
11.049

@<SCITEGIC>MOL_PROPERTY
Idih
SciTegic.value.DoubleValue
0.000

@<SCITEGIC>MOL_PROPERTY
Tether
SciTegic.value.DoubleValue
0.000

@<TRIPOS>MOLECULE
guest-s17_confgen4.mol2 : confsearch ligand conformer 505
          25          25           1
SMALL
USER_CHARGES
 
@<TRIPOS>ATOM
       1    C1      21.743757   17.793920   22.856641 C.3        1 MOL1        -0.1684
       2    H1      22.009990   17.398028   23.846033 H          1 MOL1         0.0833
       3    H2      22.396657   17.272260   22.143541 H          1 MOL1         0.0833
       4    C2      22.102196   19.299885   22.794945 C.3        1 MOL1        -0.1684
       5    H3      23.185970   19.383475   22.953857 H          1 MOL1         0.0833
       6    H4      21.941503   19.689028   21.783043 H          1 MOL1         0.0833
       7    C3      21.412936   20.209181   23.842976 C.3        1 MOL1        -0.1684
       8    H5      21.851032   21.212330   23.749080 H          1 MOL1         0.0833
       9    H6      21.674856   19.863218   24.852037 H          1 MOL1         0.0833
      10    C4      19.871933   20.353458   23.744143 C.3        1 MOL1        -0.1760
      11    H7      19.381249   19.499641   24.222436 H          1 MOL1         0.0833
      12    H8      19.591458   21.216566   24.363009 H          1 MOL1         0.0833
      13    C5      19.322253   20.554083   22.308115 C.3        1 MOL1         0.1219
      14    H9      20.125666   20.912826   21.651074 H          1 MOL1         0.0790
      15    C6      18.683240   19.286038   21.687937 C.3        1 MOL1        -0.1760
      16    H10     17.899789   18.906924   22.357036 H          1 MOL1         0.0833
      17    H11     18.167534   19.589016   20.766804 H          1 MOL1         0.0833
      18    C7      19.645541   18.124236   21.320222 C.3        1 MOL1        -0.1684
      19    H12     20.416092   18.464522   20.616482 H          1 MOL1         0.0833
      20    H13     19.055751   17.383621   20.762905 H          1 MOL1         0.0833
      21    C8      20.279960   17.396926   22.533927 C.3        1 MOL1        -0.1684
      22    H14     20.277201   16.318275   22.325231 H          1 MOL1         0.0833
      23    H15     19.646128   17.503998   23.421391 H          1 MOL1         0.0833
      24    O1      18.313668   21.555473   22.354361 O.3        1 MOL1        -0.5508
      25    H16     17.609010   21.211483   22.940936 H          1 MOL1         0.3780
@<TRIPOS>BOND
    1     1     2    1
    2     1     3    1
    3     1     4    1
    4     4     5    1
    5     4     6    1
    6     4     7    1
    7     7     8    1
    8     7     9    1
    9     7    10    1
   10    10    11    1
   11    10    12    1
   12    10    13    1
   13    13    14    1
   14    13    15    1
   15    15    16    1
   16    15    17    1
   17    15    18    1
   18    18    19    1
   19    18    20    1
   20     1    21    1
   21    18    21    1
   22    21    22    1
   23    21    23    1
   24    13    24    1
   25    24    25    1
@<TRIPOS>SUBSTRUCTURE
       1 MOL1            1 RESIDUE      1      MOL     
@<SCITEGIC>MOL_PROPERTY
VConf Rank
SciTegic.value.IntegerValue
505

@<SCITEGIC>MOL_PROPERTY
Conf_Id
SciTegic.value.IntegerValue
140

@<SCITEGIC>MOL_PROPERTY
Delta U+W
SciTegic.value.DoubleValue
-1.702

@<SCITEGIC>MOL_PROPERTY
U+W
SciTegic.value.DoubleValue
9.211

@<SCITEGIC>MOL_PROPERTY
Grad RMS
SciTegic.value.DoubleValue
0.000000

@<SCITEGIC>MOL_PROPERTY
U
SciTegic.value.DoubleValue
11.181

@<SCITEGIC>MOL_PROPERTY
W
SciTegic.value.DoubleValue
-1.969

@<SCITEGIC>MOL_PROPERTY
W(PB)
SciTegic.value.DoubleValue
-4.093

@<SCITEGIC>MOL_PROPERTY
W(SA)
SciTegic.value.DoubleValue
2.124

@<SCITEGIC>MOL_PROPERTY
Valence
SciTegic.value.DoubleValue
16.954

@<SCITEGIC>MOL_PROPERTY
Coulomb
SciTegic.value.DoubleValue
-8.661

@<SCITEGIC>MOL_PROPERTY
VdW
SciTegic.value.DoubleValue
2.887

@<SCITEGIC>MOL_PROPERTY
VdW6
SciTegic.value.DoubleValue
-12.561

@<SCITEGIC>MOL_PROPERTY
VdW12
SciTegic.value.DoubleValue
15.448

@<SCITEGIC>MOL_PROPERTY
Bond
SciTegic.value.DoubleValue
0.433

@<SCITEGIC>MOL_PROPERTY
Angle
SciTegic.value.DoubleValue
5.120

@<SCITEGIC>MOL_PROPERTY
Pdih
SciTegic.value.DoubleValue
11.401

@<SCITEGIC>MOL_PROPERTY
Idih
SciTegic.value.DoubleValue
0.000

@<SCITEGIC>MOL_PROPERTY
Tether
SciTegic.value.DoubleValue
0.000

@<TRIPOS>MOLECULE
guest-s17_confgen4.mol2 : confsearch ligand conformer 506
          25          25           1
SMALL
USER_CHARGES
 
@<TRIPOS>ATOM
       1    C1      19.799249   17.188884   22.903108 C.3        1 MOL1        -0.1684
       2    H1      20.530369   16.399039   22.683757 H          1 MOL1         0.0833
       3    H2      18.890179   16.667550   23.232840 H          1 MOL1         0.0833
       4    C2      19.462120   17.940344   21.589297 C.3        1 MOL1        -0.1684
       5    H3      20.367119   18.099512   20.992266 H          1 MOL1         0.0833
       6    H4      18.848418   17.263353   20.979292 H          1 MOL1         0.0833
       7    C3      18.683925   19.270123   21.764365 C.3        1 MOL1        -0.1684
       8    H5      18.111942   19.272874   22.701180 H          1 MOL1         0.0833
       9    H6      17.928895   19.318129   20.967754 H          1 MOL1         0.0833
      10    C4      19.551304   20.552422   21.644461 C.3        1 MOL1        -0.1760
      11    H7      20.077342   20.542826   20.680922 H          1 MOL1         0.0833
      12    H8      18.865817   21.409436   21.601227 H          1 MOL1         0.0833
      13    C5      20.566735   20.819284   22.784012 C.3        1 MOL1         0.1219
      14    H9      20.042224   20.797917   23.748534 H          1 MOL1         0.0790
      15    C6      21.761725   19.831618   22.816973 C.3        1 MOL1        -0.1760
      16    H10     21.904005   19.375140   21.832126 H          1 MOL1         0.0833
      17    H11     22.689085   20.391355   22.999491 H          1 MOL1         0.0833
      18    C7      21.675558   18.733128   23.908378 C.3        1 MOL1        -0.1684
      19    H12     21.948334   19.191606   24.868817 H          1 MOL1         0.0833
      20    H13     22.444618   17.973901   23.711860 H          1 MOL1         0.0833
      21    C8      20.304748   18.036412   24.097419 C.3        1 MOL1        -0.1684
      22    H14     19.542095   18.763468   24.399002 H          1 MOL1         0.0833
      23    H15     20.398620   17.361491   24.959088 H          1 MOL1         0.0833
      24    O1      21.080144   22.131581   22.593100 O.3        1 MOL1        -0.5508
      25    H16     21.538170   22.126220   21.727579 H          1 MOL1         0.3780
@<TRIPOS>BOND
    1     1     2    1
    2     1     3    1
    3     1     4    1
    4     4     5    1
    5     4     6    1
    6     4     7    1
    7     7     8    1
    8     7     9    1
    9     7    10    1
   10    10    11    1
   11    10    12    1
   12    10    13    1
   13    13    14    1
   14    13    15    1
   15    15    16    1
   16    15    17    1
   17    15    18    1
   18    18    19    1
   19    18    20    1
   20     1    21    1
   21    18    21    1
   22    21    22    1
   23    21    23    1
   24    13    24    1
   25    24    25    1
@<TRIPOS>SUBSTRUCTURE
       1 MOL1            1 RESIDUE      1      MOL     
@<SCITEGIC>MOL_PROPERTY
VConf Rank
SciTegic.value.IntegerValue
506

@<SCITEGIC>MOL_PROPERTY
Conf_Id
SciTegic.value.IntegerValue
68

@<SCITEGIC>MOL_PROPERTY
Delta U+W
SciTegic.value.DoubleValue
-1.765

@<SCITEGIC>MOL_PROPERTY
U+W
SciTegic.value.DoubleValue
9.148

@<SCITEGIC>MOL_PROPERTY
Grad RMS
SciTegic.value.DoubleValue
0.000000

@<SCITEGIC>MOL_PROPERTY
U
SciTegic.value.DoubleValue
11.181

@<SCITEGIC>MOL_PROPERTY
W
SciTegic.value.DoubleValue
-2.032

@<SCITEGIC>MOL_PROPERTY
W(PB)
SciTegic.value.DoubleValue
-4.147

@<SCITEGIC>MOL_PROPERTY
W(SA)
SciTegic.value.DoubleValue
2.114

@<SCITEGIC>MOL_PROPERTY
Valence
SciTegic.value.DoubleValue
16.955

@<SCITEGIC>MOL_PROPERTY
Coulomb
SciTegic.value.DoubleValue
-8.661

@<SCITEGIC>MOL_PROPERTY
VdW
SciTegic.value.DoubleValue
2.887

@<SCITEGIC>MOL_PROPERTY
VdW6
SciTegic.value.DoubleValue
-12.561

@<SCITEGIC>MOL_PROPERTY
VdW12
SciTegic.value.DoubleValue
15.448

@<SCITEGIC>MOL_PROPERTY
Bond
SciTegic.value.DoubleValue
0.433

@<SCITEGIC>MOL_PROPERTY
Angle
SciTegic.value.DoubleValue
5.121

@<SCITEGIC>MOL_PROPERTY
Pdih
SciTegic.value.DoubleValue
11.402

@<SCITEGIC>MOL_PROPERTY
Idih
SciTegic.value.DoubleValue
0.000

@<SCITEGIC>MOL_PROPERTY
Tether
SciTegic.value.DoubleValue
0.000

@<TRIPOS>MOLECULE
guest-s17_confgen4.mol2 : confsearch ligand conformer 507
          25          25           1
SMALL
USER_CHARGES
 
@<TRIPOS>ATOM
       1    C1      20.832311   18.470365   24.276924 C.3        1 MOL1        -0.1684
       2    H1      21.221906   17.953779   25.164861 H          1 MOL1         0.0833
       3    H2      20.148112   19.225181   24.680678 H          1 MOL1         0.0833
       4    C2      20.058293   17.435549   23.419396 C.3        1 MOL1        -0.1684
       5    H3      20.699582   17.012232   22.635709 H          1 MOL1         0.0833
       6    H4      19.807424   16.587956   24.071830 H          1 MOL1         0.0833
       7    C3      18.725136   17.954272   22.819212 C.3        1 MOL1        -0.1684
       8    H5      18.082519   18.328238   23.628079 H          1 MOL1         0.0833
       9    H6      18.192515   17.092177   22.395018 H          1 MOL1         0.0833
      10    C4      18.834004   19.034297   21.710047 C.3        1 MOL1        -0.1760
      11    H7      19.448226   18.667237   20.879050 H          1 MOL1         0.0833
      12    H8      17.826484   19.159161   21.290614 H          1 MOL1         0.0833
      13    C5      19.338386   20.414918   22.204387 C.3        1 MOL1         0.1219
      14    H9      19.195867   20.479897   23.289288 H          1 MOL1         0.0790
      15    C6      20.817859   20.723895   21.867137 C.3        1 MOL1        -0.1760
      16    H10     20.881967   21.007653   20.808389 H          1 MOL1         0.0833
      17    H11     21.124481   21.611779   22.435229 H          1 MOL1         0.0833
      18    C7      21.849935   19.591689   22.105867 C.3        1 MOL1        -0.1684
      19    H12     22.822237   19.954313   21.745513 H          1 MOL1         0.0833
      20    H13     21.624692   18.727338   21.470673 H          1 MOL1         0.0833
      21    C8      22.041103   19.143647   23.576531 C.3        1 MOL1        -0.1684
      22    H14     22.368973   20.002095   24.178325 H          1 MOL1         0.0833
      23    H15     22.877728   18.431833   23.595929 H          1 MOL1         0.0833
      24    O1      18.542408   21.429300   21.604276 O.3        1 MOL1        -0.5508
      25    H16     18.668450   21.344333   20.636917 H          1 MOL1         0.3780
@<TRIPOS>BOND
    1     1     2    1
    2     1     3    1
    3     1     4    1
    4     4     5    1
    5     4     6    1
    6     4     7    1
    7     7     8    1
    8     7     9    1
    9     7    10    1
   10    10    11    1
   11    10    12    1
   12    10    13    1
   13    13    14    1
   14    13    15    1
   15    15    16    1
   16    15    17    1
   17    15    18    1
   18    18    19    1
   19    18    20    1
   20     1    21    1
   21    18    21    1
   22    21    22    1
   23    21    23    1
   24    13    24    1
   25    24    25    1
@<TRIPOS>SUBSTRUCTURE
       1 MOL1            1 RESIDUE      1      MOL     
@<SCITEGIC>MOL_PROPERTY
VConf Rank
SciTegic.value.IntegerValue
507

@<SCITEGIC>MOL_PROPERTY
Conf_Id
SciTegic.value.IntegerValue
165

@<SCITEGIC>MOL_PROPERTY
Delta U+W
SciTegic.value.DoubleValue
-1.999

@<SCITEGIC>MOL_PROPERTY
U+W
SciTegic.value.DoubleValue
8.915

@<SCITEGIC>MOL_PROPERTY
Grad RMS
SciTegic.value.DoubleValue
0.000000

@<SCITEGIC>MOL_PROPERTY
U
SciTegic.value.DoubleValue
10.935

@<SCITEGIC>MOL_PROPERTY
W
SciTegic.value.DoubleValue
-2.020

@<SCITEGIC>MOL_PROPERTY
W(PB)
SciTegic.value.DoubleValue
-4.135

@<SCITEGIC>MOL_PROPERTY
W(SA)
SciTegic.value.DoubleValue
2.115

@<SCITEGIC>MOL_PROPERTY
Valence
SciTegic.value.DoubleValue
16.757

@<SCITEGIC>MOL_PROPERTY
Coulomb
SciTegic.value.DoubleValue
-8.731

@<SCITEGIC>MOL_PROPERTY
VdW
SciTegic.value.DoubleValue
2.908

@<SCITEGIC>MOL_PROPERTY
VdW6
SciTegic.value.DoubleValue
-12.597

@<SCITEGIC>MOL_PROPERTY
VdW12
SciTegic.value.DoubleValue
15.506

@<SCITEGIC>MOL_PROPERTY
Bond
SciTegic.value.DoubleValue
0.434

@<SCITEGIC>MOL_PROPERTY
Angle
SciTegic.value.DoubleValue
5.069

@<SCITEGIC>MOL_PROPERTY
Pdih
SciTegic.value.DoubleValue
11.254

@<SCITEGIC>MOL_PROPERTY
Idih
SciTegic.value.DoubleValue
0.000

@<SCITEGIC>MOL_PROPERTY
Tether
SciTegic.value.DoubleValue
0.000

@<TRIPOS>MOLECULE
guest-s17_confgen4.mol2 : confsearch ligand conformer 508
          25          25           1
SMALL
USER_CHARGES
 
@<TRIPOS>ATOM
       1    C1      20.039561   20.033068   21.058376 C.3        1 MOL1        -0.1684
       2    H1      19.791269   20.523957   20.107343 H          1 MOL1         0.0833
       3    H2      21.084191   20.309011   21.241149 H          1 MOL1         0.0833
       4    C2      19.906971   18.505000   20.828421 C.3        1 MOL1        -0.1684
       5    H3      19.003234   18.334859   20.227324 H          1 MOL1         0.0833
       6    H4      20.744983   18.163987   20.205514 H          1 MOL1         0.0833
       7    C3      19.801842   17.604389   22.084681 C.3        1 MOL1        -0.1684
       8    H5      19.617291   16.578626   21.737621 H          1 MOL1         0.0833
       9    H6      18.909584   17.864017   22.665854 H          1 MOL1         0.0833
      10    C4      21.052250   17.563719   23.000572 C.3        1 MOL1        -0.1760
      11    H7      20.866887   16.808713   23.776537 H          1 MOL1         0.0833
      12    H8      21.906567   17.195651   22.418004 H          1 MOL1         0.0833
      13    C5      21.460405   18.884308   23.698579 C.3        1 MOL1         0.1219
      14    H9      21.974840   19.530472   22.977686 H          1 MOL1         0.0790
      15    C6      20.283633   19.671898   24.330320 C.3        1 MOL1        -0.1760
      16    H10     19.435454   19.008237   24.535900 H          1 MOL1         0.0833
      17    H11     20.602253   20.041327   25.314461 H          1 MOL1         0.0833
      18    C7      19.821474   20.907311   23.512302 C.3        1 MOL1        -0.1684
      19    H12     20.679170   21.573186   23.345102 H          1 MOL1         0.0833
      20    H13     19.122338   21.479295   24.137456 H          1 MOL1         0.0833
      21    C8      19.119133   20.623017   22.158507 C.3        1 MOL1        -0.1684
      22    H14     18.736417   21.584003   21.788308 H          1 MOL1         0.0833
      23    H15     18.228412   19.998854   22.305628 H          1 MOL1         0.0833
      24    O1      22.386792   18.553737   24.727192 O.3        1 MOL1        -0.5508
      25    H16     23.138590   18.097948   24.294185 H          1 MOL1         0.3780
@<TRIPOS>BOND
    1     1     2    1
    2     1     3    1
    3     1     4    1
    4     4     5    1
    5     4     6    1
    6     4     7    1
    7     7     8    1
    8     7     9    1
    9     7    10    1
   10    10    11    1
   11    10    12    1
   12    10    13    1
   13    13    14    1
   14    13    15    1
   15    15    16    1
   16    15    17    1
   17    15    18    1
   18    18    19    1
   19    18    20    1
   20     1    21    1
   21    18    21    1
   22    21    22    1
   23    21    23    1
   24    13    24    1
   25    24    25    1
@<TRIPOS>SUBSTRUCTURE
       1 MOL1            1 RESIDUE      1      MOL     
@<SCITEGIC>MOL_PROPERTY
VConf Rank
SciTegic.value.IntegerValue
508

@<SCITEGIC>MOL_PROPERTY
Conf_Id
SciTegic.value.IntegerValue
133

@<SCITEGIC>MOL_PROPERTY
Delta U+W
SciTegic.value.DoubleValue
-2.139

@<SCITEGIC>MOL_PROPERTY
U+W
SciTegic.value.DoubleValue
8.774

@<SCITEGIC>MOL_PROPERTY
Grad RMS
SciTegic.value.DoubleValue
0.000000

@<SCITEGIC>MOL_PROPERTY
U
SciTegic.value.DoubleValue
10.905

@<SCITEGIC>MOL_PROPERTY
W
SciTegic.value.DoubleValue
-2.131

@<SCITEGIC>MOL_PROPERTY
W(PB)
SciTegic.value.DoubleValue
-4.281

@<SCITEGIC>MOL_PROPERTY
W(SA)
SciTegic.value.DoubleValue
2.150

@<SCITEGIC>MOL_PROPERTY
Valence
SciTegic.value.DoubleValue
16.378

@<SCITEGIC>MOL_PROPERTY
Coulomb
SciTegic.value.DoubleValue
-8.448

@<SCITEGIC>MOL_PROPERTY
VdW
SciTegic.value.DoubleValue
2.976

@<SCITEGIC>MOL_PROPERTY
VdW6
SciTegic.value.DoubleValue
-12.570

@<SCITEGIC>MOL_PROPERTY
VdW12
SciTegic.value.DoubleValue
15.545

@<SCITEGIC>MOL_PROPERTY
Bond
SciTegic.value.DoubleValue
0.439

@<SCITEGIC>MOL_PROPERTY
Angle
SciTegic.value.DoubleValue
5.049

@<SCITEGIC>MOL_PROPERTY
Pdih
SciTegic.value.DoubleValue
10.889

@<SCITEGIC>MOL_PROPERTY
Idih
SciTegic.value.DoubleValue
0.000

@<SCITEGIC>MOL_PROPERTY
Tether
SciTegic.value.DoubleValue
0.000

@<TRIPOS>MOLECULE
guest-s17_confgen4.mol2 : confsearch ligand conformer 509
          25          25           1
SMALL
USER_CHARGES
 
@<TRIPOS>ATOM
       1    C1      21.197873   18.783531   24.187705 C.3        1 MOL1        -0.1684
       2    H1      21.670844   18.462766   25.126051 H          1 MOL1         0.0833
       3    H2      21.872521   19.551489   23.792869 H          1 MOL1         0.0833
       4    C2      19.815278   19.396607   24.531349 C.3        1 MOL1        -0.1684
       5    H3      19.016996   18.649145   24.438311 H          1 MOL1         0.0833
       6    H4      19.829856   19.667789   25.595895 H          1 MOL1         0.0833
       7    C3      19.458735   20.683572   23.741747 C.3        1 MOL1        -0.1684
       8    H5      20.248053   21.433047   23.890913 H          1 MOL1         0.0833
       9    H6      18.555130   21.113657   24.194848 H          1 MOL1         0.0833
      10    C4      19.190986   20.516817   22.222045 C.3        1 MOL1        -0.1760
      11    H7      18.383453   19.795118   22.051285 H          1 MOL1         0.0833
      12    H8      18.797811   21.476327   21.859712 H          1 MOL1         0.0833
      13    C5      20.443243   20.152782   21.383288 C.3        1 MOL1         0.1219
      14    H9      21.342096   20.416363   21.952889 H          1 MOL1         0.0790
      15    C6      20.525456   18.666076   20.958207 C.3        1 MOL1        -0.1760
      16    H10     19.829528   18.509176   20.122993 H          1 MOL1         0.0833
      17    H11     21.528339   18.470190   20.557494 H          1 MOL1         0.0833
      18    C7      20.201200   17.602141   22.038450 C.3        1 MOL1        -0.1684
      19    H12     20.234695   16.619031   21.549500 H          1 MOL1         0.0833
      20    H13     19.164691   17.705862   22.379309 H          1 MOL1         0.0833
      21    C8      21.163863   17.547739   23.251160 C.3        1 MOL1        -0.1684
      22    H14     22.182882   17.339978   22.897601 H          1 MOL1         0.0833
      23    H15     20.877794   16.677152   23.857170 H          1 MOL1         0.0833
      24    O1      20.434375   20.935729   20.194832 O.3        1 MOL1        -0.5508
      25    H16     21.256672   20.718829   19.707779 H          1 MOL1         0.3780
@<TRIPOS>BOND
    1     1     2    1
    2     1     3    1
    3     1     4    1
    4     4     5    1
    5     4     6    1
    6     4     7    1
    7     7     8    1
    8     7     9    1
    9     7    10    1
   10    10    11    1
   11    10    12    1
   12    10    13    1
   13    13    14    1
   14    13    15    1
   15    15    16    1
   16    15    17    1
   17    15    18    1
   18    18    19    1
   19    18    20    1
   20     1    21    1
   21    18    21    1
   22    21    22    1
   23    21    23    1
   24    13    24    1
   25    24    25    1
@<TRIPOS>SUBSTRUCTURE
       1 MOL1            1 RESIDUE      1      MOL     
@<SCITEGIC>MOL_PROPERTY
VConf Rank
SciTegic.value.IntegerValue
509

@<SCITEGIC>MOL_PROPERTY
Conf_Id
SciTegic.value.IntegerValue
95

@<SCITEGIC>MOL_PROPERTY
Delta U+W
SciTegic.value.DoubleValue
-2.190

@<SCITEGIC>MOL_PROPERTY
U+W
SciTegic.value.DoubleValue
8.723

@<SCITEGIC>MOL_PROPERTY
Grad RMS
SciTegic.value.DoubleValue
0.000000

@<SCITEGIC>MOL_PROPERTY
U
SciTegic.value.DoubleValue
10.905

@<SCITEGIC>MOL_PROPERTY
W
SciTegic.value.DoubleValue
-2.182

@<SCITEGIC>MOL_PROPERTY
W(PB)
SciTegic.value.DoubleValue
-4.296

@<SCITEGIC>MOL_PROPERTY
W(SA)
SciTegic.value.DoubleValue
2.114

@<SCITEGIC>MOL_PROPERTY
Valence
SciTegic.value.DoubleValue
16.377

@<SCITEGIC>MOL_PROPERTY
Coulomb
SciTegic.value.DoubleValue
-8.448

@<SCITEGIC>MOL_PROPERTY
VdW
SciTegic.value.DoubleValue
2.976

@<SCITEGIC>MOL_PROPERTY
VdW6
SciTegic.value.DoubleValue
-12.570

@<SCITEGIC>MOL_PROPERTY
VdW12
SciTegic.value.DoubleValue
15.546

@<SCITEGIC>MOL_PROPERTY
Bond
SciTegic.value.DoubleValue
0.439

@<SCITEGIC>MOL_PROPERTY
Angle
SciTegic.value.DoubleValue
5.049

@<SCITEGIC>MOL_PROPERTY
Pdih
SciTegic.value.DoubleValue
10.889

@<SCITEGIC>MOL_PROPERTY
Idih
SciTegic.value.DoubleValue
0.000

@<SCITEGIC>MOL_PROPERTY
Tether
SciTegic.value.DoubleValue
0.000

@<TRIPOS>MOLECULE
guest-s17_confgen4.mol2 : confsearch ligand conformer 510
          25          25           1
SMALL
USER_CHARGES
 
@<TRIPOS>ATOM
       1    C1      19.004395   18.148460   21.871124 C.3        1 MOL1        -0.1684
       2    H1      18.304425   17.520741   21.302870 H          1 MOL1         0.0833
       3    H2      18.362894   18.639359   22.609859 H          1 MOL1         0.0833
       4    C2      19.599401   19.184987   20.873227 C.3        1 MOL1        -0.1684
       5    H3      19.696707   18.684524   19.900083 H          1 MOL1         0.0833
       6    H4      18.867702   19.988948   20.715957 H          1 MOL1         0.0833
       7    C3      20.982207   19.807431   21.200193 C.3        1 MOL1        -0.1684
       8    H5      21.286670   20.413473   20.335997 H          1 MOL1         0.0833
       9    H6      21.736222   19.014795   21.235070 H          1 MOL1         0.0833
      10    C4      21.078738   20.720884   22.458289 C.3        1 MOL1        -0.1760
      11    H7      22.129155   20.783520   22.771458 H          1 MOL1         0.0833
      12    H8      20.802640   21.734902   22.140797 H          1 MOL1         0.0833
      13    C5      20.203566   20.370466   23.688319 C.3        1 MOL1         0.1219
      14    H9      19.156862   20.357559   23.367289 H          1 MOL1         0.0790
      15    C6      20.535039   19.046381   24.434990 C.3        1 MOL1        -0.1760
      16    H10     21.326381   19.259760   25.166127 H          1 MOL1         0.0833
      17    H11     19.657641   18.755558   25.026499 H          1 MOL1         0.0833
      18    C7      21.008789   17.824655   23.601946 C.3        1 MOL1        -0.1684
      19    H12     21.293314   17.032314   24.307605 H          1 MOL1         0.0833
      20    H13     21.950444   18.071479   23.101511 H          1 MOL1         0.0833
      21    C8      19.995023   17.201289   22.598353 C.3        1 MOL1        -0.1684
      22    H14     19.390514   16.470741   23.153093 H          1 MOL1         0.0833
      23    H15     20.548668   16.615735   21.851997 H          1 MOL1         0.0833
      24    O1      20.344367   21.431232   24.626169 O.3        1 MOL1        -0.5508
      25    H16     20.071317   22.252754   24.167254 H          1 MOL1         0.3780
@<TRIPOS>BOND
    1     1     2    1
    2     1     3    1
    3     1     4    1
    4     4     5    1
    5     4     6    1
    6     4     7    1
    7     7     8    1
    8     7     9    1
    9     7    10    1
   10    10    11    1
   11    10    12    1
   12    10    13    1
   13    13    14    1
   14    13    15    1
   15    15    16    1
   16    15    17    1
   17    15    18    1
   18    18    19    1
   19    18    20    1
   20     1    21    1
   21    18    21    1
   22    21    22    1
   23    21    23    1
   24    13    24    1
   25    24    25    1
@<TRIPOS>SUBSTRUCTURE
       1 MOL1            1 RESIDUE      1      MOL     
@<SCITEGIC>MOL_PROPERTY
VConf Rank
SciTegic.value.IntegerValue
510

@<SCITEGIC>MOL_PROPERTY
Conf_Id
SciTegic.value.IntegerValue
161

@<SCITEGIC>MOL_PROPERTY
Delta U+W
SciTegic.value.DoubleValue
2.120

@<SCITEGIC>MOL_PROPERTY
U+W
SciTegic.value.DoubleValue
13.033

@<SCITEGIC>MOL_PROPERTY
Grad RMS
SciTegic.value.DoubleValue
0.000000

@<SCITEGIC>MOL_PROPERTY
U
SciTegic.value.DoubleValue
15.076

@<SCITEGIC>MOL_PROPERTY
W
SciTegic.value.DoubleValue
-2.043

@<SCITEGIC>MOL_PROPERTY
W(PB)
SciTegic.value.DoubleValue
-4.186

@<SCITEGIC>MOL_PROPERTY
W(SA)
SciTegic.value.DoubleValue
2.143

@<SCITEGIC>MOL_PROPERTY
Valence
SciTegic.value.DoubleValue
18.884

@<SCITEGIC>MOL_PROPERTY
Coulomb
SciTegic.value.DoubleValue
-8.074

@<SCITEGIC>MOL_PROPERTY
VdW
SciTegic.value.DoubleValue
4.266

@<SCITEGIC>MOL_PROPERTY
VdW6
SciTegic.value.DoubleValue
-13.486

@<SCITEGIC>MOL_PROPERTY
VdW12
SciTegic.value.DoubleValue
17.752

@<SCITEGIC>MOL_PROPERTY
Bond
SciTegic.value.DoubleValue
0.713

@<SCITEGIC>MOL_PROPERTY
Angle
SciTegic.value.DoubleValue
8.955

@<SCITEGIC>MOL_PROPERTY
Pdih
SciTegic.value.DoubleValue
9.215

@<SCITEGIC>MOL_PROPERTY
Idih
SciTegic.value.DoubleValue
0.000

@<SCITEGIC>MOL_PROPERTY
Tether
SciTegic.value.DoubleValue
0.000

@<TRIPOS>MOLECULE
guest-s17_confgen4.mol2 : confsearch ligand conformer 511
          25          25           1
SMALL
USER_CHARGES
 
@<TRIPOS>ATOM
       1    C1      20.200301   17.228699   22.671175 C.3        1 MOL1        -0.1684
       2    H1      20.245324   16.153900   22.448092 H          1 MOL1         0.0833
       3    H2      19.565927   17.302527   23.563562 H          1 MOL1         0.0833
       4    C2      19.515472   17.937115   21.475837 C.3        1 MOL1        -0.1684
       5    H3      20.249818   18.190805   20.699588 H          1 MOL1         0.0833
       6    H4      18.844884   17.201034   21.011435 H          1 MOL1         0.0833
       7    C3      18.642923   19.168111   21.848178 C.3        1 MOL1        -0.1684
       8    H5      18.112303   19.005763   22.796003 H          1 MOL1         0.0833
       9    H6      17.856523   19.242040   21.084431 H          1 MOL1         0.0833
      10    C4      19.386853   20.528598   21.859085 C.3        1 MOL1        -0.1760
      11    H7      20.161059   20.535685   21.082218 H          1 MOL1         0.0833
      12    H8      18.671019   21.302499   21.552014 H          1 MOL1         0.0833
      13    C5      19.966301   20.981578   23.223225 C.3        1 MOL1         0.1219
      14    H9      19.122755   21.243395   23.877943 H          1 MOL1         0.0790
      15    C6      20.835748   19.949757   23.978402 C.3        1 MOL1        -0.1760
      16    H10     21.357890   20.469934   24.792569 H          1 MOL1         0.0833
      17    H11     20.179242   19.236056   24.487708 H          1 MOL1         0.0833
      18    C7      21.883476   19.211689   23.102758 C.3        1 MOL1        -0.1684
      19    H12     22.880955   19.373631   23.533502 H          1 MOL1         0.0833
      20    H13     21.937181   19.644933   22.097514 H          1 MOL1         0.0833
      21    C8      21.648192   17.686346   22.990291 C.3        1 MOL1        -0.1684
      22    H14     21.957233   17.211419   23.931433 H          1 MOL1         0.0833
      23    H15     22.323684   17.290023   22.219953 H          1 MOL1         0.0833
      24    O1      20.751327   22.144729   23.001455 O.3        1 MOL1        -0.5508
      25    H16     21.556555   21.839790   22.536235 H          1 MOL1         0.3780
@<TRIPOS>BOND
    1     1     2    1
    2     1     3    1
    3     1     4    1
    4     4     5    1
    5     4     6    1
    6     4     7    1
    7     7     8    1
    8     7     9    1
    9     7    10    1
   10    10    11    1
   11    10    12    1
   12    10    13    1
   13    13    14    1
   14    13    15    1
   15    15    16    1
   16    15    17    1
   17    15    18    1
   18    18    19    1
   19    18    20    1
   20     1    21    1
   21    18    21    1
   22    21    22    1
   23    21    23    1
   24    13    24    1
   25    24    25    1
@<TRIPOS>SUBSTRUCTURE
       1 MOL1            1 RESIDUE      1      MOL     
@<SCITEGIC>MOL_PROPERTY
VConf Rank
SciTegic.value.IntegerValue
511

@<SCITEGIC>MOL_PROPERTY
Conf_Id
SciTegic.value.IntegerValue
164

@<SCITEGIC>MOL_PROPERTY
Delta U+W
SciTegic.value.DoubleValue
0.008

@<SCITEGIC>MOL_PROPERTY
U+W
SciTegic.value.DoubleValue
10.922

@<SCITEGIC>MOL_PROPERTY
Grad RMS
SciTegic.value.DoubleValue
0.000000

@<SCITEGIC>MOL_PROPERTY
U
SciTegic.value.DoubleValue
12.433

@<SCITEGIC>MOL_PROPERTY
W
SciTegic.value.DoubleValue
-1.511

@<SCITEGIC>MOL_PROPERTY
W(PB)
SciTegic.value.DoubleValue
-3.669

@<SCITEGIC>MOL_PROPERTY
W(SA)
SciTegic.value.DoubleValue
2.157

@<SCITEGIC>MOL_PROPERTY
Valence
SciTegic.value.DoubleValue
19.007

@<SCITEGIC>MOL_PROPERTY
Coulomb
SciTegic.value.DoubleValue
-9.373

@<SCITEGIC>MOL_PROPERTY
VdW
SciTegic.value.DoubleValue
2.799

@<SCITEGIC>MOL_PROPERTY
VdW6
SciTegic.value.DoubleValue
-12.597

@<SCITEGIC>MOL_PROPERTY
VdW12
SciTegic.value.DoubleValue
15.396

@<SCITEGIC>MOL_PROPERTY
Bond
SciTegic.value.DoubleValue
0.425

@<SCITEGIC>MOL_PROPERTY
Angle
SciTegic.value.DoubleValue
4.784

@<SCITEGIC>MOL_PROPERTY
Pdih
SciTegic.value.DoubleValue
13.799

@<SCITEGIC>MOL_PROPERTY
Idih
SciTegic.value.DoubleValue
0.000

@<SCITEGIC>MOL_PROPERTY
Tether
SciTegic.value.DoubleValue
0.000

@<TRIPOS>MOLECULE
guest-s17_confgen4.mol2 : confsearch ligand conformer 512
          25          25           1
SMALL
USER_CHARGES
 
@<TRIPOS>ATOM
       1    C1      21.310057   18.594105   21.247486 C.3        1 MOL1        -0.1684
       2    H1      20.735423   17.727664   21.593891 H          1 MOL1         0.0833
       3    H2      21.908685   18.211545   20.409653 H          1 MOL1         0.0833
       4    C2      22.299601   19.060169   22.344439 C.3        1 MOL1        -0.1684
       5    H3      22.974233   18.219659   22.557318 H          1 MOL1         0.0833
       6    H4      22.937855   19.858389   21.941966 H          1 MOL1         0.0833
       7    C3      21.692038   19.532368   23.690046 C.3        1 MOL1        -0.1684
       8    H5      21.376651   20.579829   23.623565 H          1 MOL1         0.0833
       9    H6      22.505236   19.536816   24.428756 H          1 MOL1         0.0833
      10    C4      20.540194   18.651070   24.242631 C.3        1 MOL1        -0.1760
      11    H7      20.607247   17.627960   23.853363 H          1 MOL1         0.0833
      12    H8      20.690802   18.559597   25.326692 H          1 MOL1         0.0833
      13    C5      19.118239   19.228690   24.030800 C.3        1 MOL1         0.1219
      14    H9      19.101606   20.252797   24.430209 H          1 MOL1         0.0790
      15    C6      18.598167   19.271104   22.571963 C.3        1 MOL1        -0.1760
      16    H10     18.601333   18.268385   22.127751 H          1 MOL1         0.0833
      17    H11     17.540962   19.565263   22.616982 H          1 MOL1         0.0833
      18    C7      19.321025   20.289353   21.650320 C.3        1 MOL1        -0.1684
      19    H12     19.773263   21.091748   22.244211 H          1 MOL1         0.0833
      20    H13     18.562815   20.795483   21.037169 H          1 MOL1         0.0833
      21    C8      20.362117   19.678743   20.677669 C.3        1 MOL1        -0.1684
      22    H14     20.960012   20.489847   20.240474 H          1 MOL1         0.0833
      23    H15     19.814050   19.228597   19.838687 H          1 MOL1         0.0833
      24    O1      18.214028   18.435659   24.787571 O.3        1 MOL1        -0.5508
      25    H16     18.253004   17.533968   24.407808 H          1 MOL1         0.3780
@<TRIPOS>BOND
    1     1     2    1
    2     1     3    1
    3     1     4    1
    4     4     5    1
    5     4     6    1
    6     4     7    1
    7     7     8    1
    8     7     9    1
    9     7    10    1
   10    10    11    1
   11    10    12    1
   12    10    13    1
   13    13    14    1
   14    13    15    1
   15    15    16    1
   16    15    17    1
   17    15    18    1
   18    18    19    1
   19    18    20    1
   20     1    21    1
   21    18    21    1
   22    21    22    1
   23    21    23    1
   24    13    24    1
   25    24    25    1
@<TRIPOS>SUBSTRUCTURE
       1 MOL1            1 RESIDUE      1      MOL     
@<SCITEGIC>MOL_PROPERTY
VConf Rank
SciTegic.value.IntegerValue
512

@<SCITEGIC>MOL_PROPERTY
Conf_Id
SciTegic.value.IntegerValue
15

@<SCITEGIC>MOL_PROPERTY
Delta U+W
SciTegic.value.DoubleValue
-1.271

@<SCITEGIC>MOL_PROPERTY
U+W
SciTegic.value.DoubleValue
9.643

@<SCITEGIC>MOL_PROPERTY
Grad RMS
SciTegic.value.DoubleValue
0.000000

@<SCITEGIC>MOL_PROPERTY
U
SciTegic.value.DoubleValue
11.413

@<SCITEGIC>MOL_PROPERTY
W
SciTegic.value.DoubleValue
-1.770

@<SCITEGIC>MOL_PROPERTY
W(PB)
SciTegic.value.DoubleValue
-3.908

@<SCITEGIC>MOL_PROPERTY
W(SA)
SciTegic.value.DoubleValue
2.138

@<SCITEGIC>MOL_PROPERTY
Valence
SciTegic.value.DoubleValue
17.496

@<SCITEGIC>MOL_PROPERTY
Coulomb
SciTegic.value.DoubleValue
-8.736

@<SCITEGIC>MOL_PROPERTY
VdW
SciTegic.value.DoubleValue
2.653

@<SCITEGIC>MOL_PROPERTY
VdW6
SciTegic.value.DoubleValue
-12.485

@<SCITEGIC>MOL_PROPERTY
VdW12
SciTegic.value.DoubleValue
15.138

@<SCITEGIC>MOL_PROPERTY
Bond
SciTegic.value.DoubleValue
0.414

@<SCITEGIC>MOL_PROPERTY
Angle
SciTegic.value.DoubleValue
5.295

@<SCITEGIC>MOL_PROPERTY
Pdih
SciTegic.value.DoubleValue
11.787

@<SCITEGIC>MOL_PROPERTY
Idih
SciTegic.value.DoubleValue
0.000

@<SCITEGIC>MOL_PROPERTY
Tether
SciTegic.value.DoubleValue
0.000

@<TRIPOS>MOLECULE
guest-s17_confgen4.mol2 : confsearch ligand conformer 513
          25          25           1
SMALL
USER_CHARGES
 
@<TRIPOS>ATOM
       1    C1      20.431635   19.818249   20.821797 C.3        1 MOL1        -0.1684
       2    H1      20.384730   20.321205   19.846186 H          1 MOL1         0.0833
       3    H2      20.466595   18.747750   20.583108 H          1 MOL1         0.0833
       4    C2      21.750781   20.270476   21.501627 C.3        1 MOL1        -0.1684
       5    H3      22.590179   19.865457   20.920081 H          1 MOL1         0.0833
       6    H4      21.833953   21.363130   21.424410 H          1 MOL1         0.0833
       7    C3      21.938604   19.873282   22.985639 C.3        1 MOL1        -0.1684
       8    H5      21.357651   20.550194   23.622865 H          1 MOL1         0.0833
       9    H6      22.985969   20.060952   23.258755 H          1 MOL1         0.0833
      10    C4      21.601480   18.390897   23.292777 C.3        1 MOL1        -0.1760
      11    H7      21.436728   17.827512   22.367658 H          1 MOL1         0.0833
      12    H8      22.480929   17.923641   23.754771 H          1 MOL1         0.0833
      13    C5      20.408102   18.190904   24.255128 C.3        1 MOL1         0.1219
      14    H9      20.747553   18.459680   25.265752 H          1 MOL1         0.0790
      15    C6      19.135254   19.027342   23.964077 C.3        1 MOL1        -0.1760
      16    H10     18.343186   18.645006   24.621938 H          1 MOL1         0.0833
      17    H11     19.284692   20.063628   24.290099 H          1 MOL1         0.0833
      18    C7      18.599174   19.008677   22.507605 C.3        1 MOL1        -0.1684
      19    H12     17.509449   19.134147   22.570049 H          1 MOL1         0.0833
      20    H13     18.750045   18.026312   22.041762 H          1 MOL1         0.0833
      21    C8      19.128737   20.146648   21.591983 C.3        1 MOL1        -0.1684
      22    H14     19.230243   21.088799   22.147172 H          1 MOL1         0.0833
      23    H15     18.352052   20.335937   20.838255 H          1 MOL1         0.0833
      24    O1      20.055133   16.814788   24.243941 O.3        1 MOL1        -0.5508
      25    H16     19.671784   16.643933   23.360201 H          1 MOL1         0.3780
@<TRIPOS>BOND
    1     1     2    1
    2     1     3    1
    3     1     4    1
    4     4     5    1
    5     4     6    1
    6     4     7    1
    7     7     8    1
    8     7     9    1
    9     7    10    1
   10    10    11    1
   11    10    12    1
   12    10    13    1
   13    13    14    1
   14    13    15    1
   15    15    16    1
   16    15    17    1
   17    15    18    1
   18    18    19    1
   19    18    20    1
   20     1    21    1
   21    18    21    1
   22    21    22    1
   23    21    23    1
   24    13    24    1
   25    24    25    1
@<TRIPOS>SUBSTRUCTURE
       1 MOL1            1 RESIDUE      1      MOL     
@<SCITEGIC>MOL_PROPERTY
VConf Rank
SciTegic.value.IntegerValue
513

@<SCITEGIC>MOL_PROPERTY
Conf_Id
SciTegic.value.IntegerValue
115

@<SCITEGIC>MOL_PROPERTY
Delta U+W
SciTegic.value.DoubleValue
0.038

@<SCITEGIC>MOL_PROPERTY
U+W
SciTegic.value.DoubleValue
10.952

@<SCITEGIC>MOL_PROPERTY
Grad RMS
SciTegic.value.DoubleValue
0.000000

@<SCITEGIC>MOL_PROPERTY
U
SciTegic.value.DoubleValue
12.526

@<SCITEGIC>MOL_PROPERTY
W
SciTegic.value.DoubleValue
-1.575

@<SCITEGIC>MOL_PROPERTY
W(PB)
SciTegic.value.DoubleValue
-3.698

@<SCITEGIC>MOL_PROPERTY
W(SA)
SciTegic.value.DoubleValue
2.123

@<SCITEGIC>MOL_PROPERTY
Valence
SciTegic.value.DoubleValue
19.016

@<SCITEGIC>MOL_PROPERTY
Coulomb
SciTegic.value.DoubleValue
-9.226

@<SCITEGIC>MOL_PROPERTY
VdW
SciTegic.value.DoubleValue
2.737

@<SCITEGIC>MOL_PROPERTY
VdW6
SciTegic.value.DoubleValue
-12.612

@<SCITEGIC>MOL_PROPERTY
VdW12
SciTegic.value.DoubleValue
15.349

@<SCITEGIC>MOL_PROPERTY
Bond
SciTegic.value.DoubleValue
0.421

@<SCITEGIC>MOL_PROPERTY
Angle
SciTegic.value.DoubleValue
4.883

@<SCITEGIC>MOL_PROPERTY
Pdih
SciTegic.value.DoubleValue
13.711

@<SCITEGIC>MOL_PROPERTY
Idih
SciTegic.value.DoubleValue
0.000

@<SCITEGIC>MOL_PROPERTY
Tether
SciTegic.value.DoubleValue
0.000

@<TRIPOS>MOLECULE
guest-s17_confgen4.mol2 : confsearch ligand conformer 514
          25          25           1
SMALL
USER_CHARGES
 
@<TRIPOS>ATOM
       1    C1      19.169413   19.911442   24.331908 C.3        1 MOL1        -0.1684
       2    H1      18.256717   20.298390   24.805450 H          1 MOL1         0.0833
       3    H2      19.808707   19.572838   25.158423 H          1 MOL1         0.0833
       4    C2      19.839908   21.091814   23.591168 C.3        1 MOL1        -0.1684
       5    H3      19.150307   21.509453   22.845097 H          1 MOL1         0.0833
       6    H4      19.999467   21.892625   24.326179 H          1 MOL1         0.0833
       7    C3      21.202866   20.768158   22.936579 C.3        1 MOL1        -0.1684
       8    H5      21.808377   20.142597   23.605913 H          1 MOL1         0.0833
       9    H6      21.754970   21.713417   22.842613 H          1 MOL1         0.0833
      10    C4      21.098726   20.146341   21.517975 C.3        1 MOL1        -0.1760
      11    H7      20.086165   20.253083   21.109151 H          1 MOL1         0.0833
      12    H8      21.745536   20.735693   20.854002 H          1 MOL1         0.0833
      13    C5      21.550002   18.670880   21.432430 C.3        1 MOL1         0.1219
      14    H9      22.395349   18.517015   22.118276 H          1 MOL1         0.0790
      15    C6      20.446391   17.639752   21.756852 C.3        1 MOL1        -0.1760
      16    H10     19.619539   17.738493   21.041201 H          1 MOL1         0.0833
      17    H11     20.868122   16.639925   21.589813 H          1 MOL1         0.0833
      18    C7      19.904068   17.681103   23.206281 C.3        1 MOL1        -0.1684
      19    H12     20.727420   17.822839   23.919045 H          1 MOL1         0.0833
      20    H13     19.493917   16.686681   23.430180 H          1 MOL1         0.0833
      21    C8      18.769788   18.713178   23.439160 C.3        1 MOL1        -0.1684
      22    H14     17.947811   18.188792   23.945695 H          1 MOL1         0.0833
      23    H15     18.346545   19.067030   22.489696 H          1 MOL1         0.0833
      24    O1      21.990084   18.421582   20.102833 O.3        1 MOL1        -0.5508
      25    H16     22.321647   17.499637   20.082380 H          1 MOL1         0.3780
@<TRIPOS>BOND
    1     1     2    1
    2     1     3    1
    3     1     4    1
    4     4     5    1
    5     4     6    1
    6     4     7    1
    7     7     8    1
    8     7     9    1
    9     7    10    1
   10    10    11    1
   11    10    12    1
   12    10    13    1
   13    13    14    1
   14    13    15    1
   15    15    16    1
   16    15    17    1
   17    15    18    1
   18    18    19    1
   19    18    20    1
   20     1    21    1
   21    18    21    1
   22    21    22    1
   23    21    23    1
   24    13    24    1
   25    24    25    1
@<TRIPOS>SUBSTRUCTURE
       1 MOL1            1 RESIDUE      1      MOL     
@<SCITEGIC>MOL_PROPERTY
VConf Rank
SciTegic.value.IntegerValue
514

@<SCITEGIC>MOL_PROPERTY
Conf_Id
SciTegic.value.IntegerValue
30

@<SCITEGIC>MOL_PROPERTY
Delta U+W
SciTegic.value.DoubleValue
0.000

@<SCITEGIC>MOL_PROPERTY
U+W
SciTegic.value.DoubleValue
10.913

@<SCITEGIC>MOL_PROPERTY
Grad RMS
SciTegic.value.DoubleValue
0.000000

@<SCITEGIC>MOL_PROPERTY
U
SciTegic.value.DoubleValue
13.140

@<SCITEGIC>MOL_PROPERTY
W
SciTegic.value.DoubleValue
-2.227

@<SCITEGIC>MOL_PROPERTY
W(PB)
SciTegic.value.DoubleValue
-4.367

@<SCITEGIC>MOL_PROPERTY
W(SA)
SciTegic.value.DoubleValue
2.140

@<SCITEGIC>MOL_PROPERTY
Valence
SciTegic.value.DoubleValue
19.155

@<SCITEGIC>MOL_PROPERTY
Coulomb
SciTegic.value.DoubleValue
-8.157

@<SCITEGIC>MOL_PROPERTY
VdW
SciTegic.value.DoubleValue
2.142

@<SCITEGIC>MOL_PROPERTY
VdW6
SciTegic.value.DoubleValue
-11.576

@<SCITEGIC>MOL_PROPERTY
VdW12
SciTegic.value.DoubleValue
13.718

@<SCITEGIC>MOL_PROPERTY
Bond
SciTegic.value.DoubleValue
0.294

@<SCITEGIC>MOL_PROPERTY
Angle
SciTegic.value.DoubleValue
3.547

@<SCITEGIC>MOL_PROPERTY
Pdih
SciTegic.value.DoubleValue
15.314

@<SCITEGIC>MOL_PROPERTY
Idih
SciTegic.value.DoubleValue
0.000

@<SCITEGIC>MOL_PROPERTY
Tether
SciTegic.value.DoubleValue
0.000

@<TRIPOS>MOLECULE
guest-s17_confgen4.mol2 : confsearch ligand conformer 515
          25          25           1
SMALL
USER_CHARGES
 
@<TRIPOS>ATOM
       1    C1      19.058844   18.679083   21.004893 C.3        1 MOL1        -0.1684
       2    H1      19.264700   18.176875   20.049766 H          1 MOL1         0.0833
       3    H2      17.993043   18.943801   20.977258 H          1 MOL1         0.0833
       4    C2      19.882587   19.989302   21.058361 C.3        1 MOL1        -0.1684
       5    H3      19.798447   20.481943   20.080048 H          1 MOL1         0.0833
       6    H4      19.416190   20.689034   21.761499 H          1 MOL1         0.0833
       7    C3      21.384498   19.788950   21.383820 C.3        1 MOL1        -0.1684
       8    H5      21.982842   20.248388   20.585330 H          1 MOL1         0.0833
       9    H6      21.654166   18.726728   21.359329 H          1 MOL1         0.0833
      10    C4      21.827180   20.409373   22.733140 C.3        1 MOL1        -0.1760
      11    H7      22.841900   20.056692   22.960561 H          1 MOL1         0.0833
      12    H8      21.907666   21.496764   22.605585 H          1 MOL1         0.0833
      13    C5      20.914713   20.146296   23.957220 C.3        1 MOL1         0.1219
      14    H9      19.983869   20.717811   23.843702 H          1 MOL1         0.0790
      15    C6      20.556027   18.660210   24.202551 C.3        1 MOL1        -0.1760
      16    H10     21.376037   18.010223   23.871415 H          1 MOL1         0.0833
      17    H11     20.480212   18.501891   25.286610 H          1 MOL1         0.0833
      18    C7      19.203002   18.202317   23.588215 C.3        1 MOL1        -0.1684
      19    H12     18.446174   18.995343   23.657077 H          1 MOL1         0.0833
      20    H13     18.826749   17.385116   24.218972 H          1 MOL1         0.0833
      21    C8      19.291036   17.650604   22.143686 C.3        1 MOL1        -0.1684
      22    H14     18.523440   16.872449   22.032611 H          1 MOL1         0.0833
      23    H15     20.243587   17.124724   22.000769 H          1 MOL1         0.0833
      24    O1      21.597979   20.638756   25.103888 O.3        1 MOL1        -0.5508
      25    H16     20.983747   20.542628   25.861471 H          1 MOL1         0.3780
@<TRIPOS>BOND
    1     1     2    1
    2     1     3    1
    3     1     4    1
    4     4     5    1
    5     4     6    1
    6     4     7    1
    7     7     8    1
    8     7     9    1
    9     7    10    1
   10    10    11    1
   11    10    12    1
   12    10    13    1
   13    13    14    1
   14    13    15    1
   15    15    16    1
   16    15    17    1
   17    15    18    1
   18    18    19    1
   19    18    20    1
   20     1    21    1
   21    18    21    1
   22    21    22    1
   23    21    23    1
   24    13    24    1
   25    24    25    1
@<TRIPOS>SUBSTRUCTURE
       1 MOL1            1 RESIDUE      1      MOL     
@<SCITEGIC>MOL_PROPERTY
VConf Rank
SciTegic.value.IntegerValue
515

@<SCITEGIC>MOL_PROPERTY
Conf_Id
SciTegic.value.IntegerValue
162

@<SCITEGIC>MOL_PROPERTY
Delta U+W
SciTegic.value.DoubleValue
0.219

@<SCITEGIC>MOL_PROPERTY
U+W
SciTegic.value.DoubleValue
11.132

@<SCITEGIC>MOL_PROPERTY
Grad RMS
SciTegic.value.DoubleValue
0.000000

@<SCITEGIC>MOL_PROPERTY
U
SciTegic.value.DoubleValue
13.296

@<SCITEGIC>MOL_PROPERTY
W
SciTegic.value.DoubleValue
-2.164

@<SCITEGIC>MOL_PROPERTY
W(PB)
SciTegic.value.DoubleValue
-4.311

@<SCITEGIC>MOL_PROPERTY
W(SA)
SciTegic.value.DoubleValue
2.148

@<SCITEGIC>MOL_PROPERTY
Valence
SciTegic.value.DoubleValue
18.607

@<SCITEGIC>MOL_PROPERTY
Coulomb
SciTegic.value.DoubleValue
-8.339

@<SCITEGIC>MOL_PROPERTY
VdW
SciTegic.value.DoubleValue
3.028

@<SCITEGIC>MOL_PROPERTY
VdW6
SciTegic.value.DoubleValue
-12.271

@<SCITEGIC>MOL_PROPERTY
VdW12
SciTegic.value.DoubleValue
15.299

@<SCITEGIC>MOL_PROPERTY
Bond
SciTegic.value.DoubleValue
0.423

@<SCITEGIC>MOL_PROPERTY
Angle
SciTegic.value.DoubleValue
4.488

@<SCITEGIC>MOL_PROPERTY
Pdih
SciTegic.value.DoubleValue
13.696

@<SCITEGIC>MOL_PROPERTY
Idih
SciTegic.value.DoubleValue
0.000

@<SCITEGIC>MOL_PROPERTY
Tether
SciTegic.value.DoubleValue
0.000

@<TRIPOS>MOLECULE
guest-s17_confgen4.mol2 : confsearch ligand conformer 516
          25          25           1
SMALL
USER_CHARGES
 
@<TRIPOS>ATOM
       1    C1      19.952589   17.276184   22.525716 C.3        1 MOL1        -0.1684
       2    H1      19.706589   17.294275   23.594992 H          1 MOL1         0.0833
       3    H2      19.749500   16.243858   22.209449 H          1 MOL1         0.0833
       4    C2      18.994655   18.211970   21.747018 C.3        1 MOL1        -0.1684
       5    H3      19.423626   18.486745   20.774025 H          1 MOL1         0.0833
       6    H4      18.096180   17.624528   21.512938 H          1 MOL1         0.0833
       7    C3      18.519417   19.469763   22.526548 C.3        1 MOL1        -0.1684
       8    H5      18.358585   19.241155   23.588639 H          1 MOL1         0.0833
       9    H6      17.527679   19.731156   22.132515 H          1 MOL1         0.0833
      10    C4      19.412772   20.726743   22.361900 C.3        1 MOL1        -0.1760
      11    H7      19.843471   20.750305   21.353318 H          1 MOL1         0.0833
      12    H8      18.761998   21.609471   22.411884 H          1 MOL1         0.0833
      13    C5      20.516353   20.931323   23.430347 C.3        1 MOL1         0.1219
      14    H9      20.023834   21.203509   24.375032 H          1 MOL1         0.0790
      15    C6      21.424173   19.712234   23.719725 C.3        1 MOL1        -0.1760
      16    H10     22.277982   20.047571   24.322683 H          1 MOL1         0.0833
      17    H11     20.886816   19.015665   24.372118 H          1 MOL1         0.0833
      18    C7      21.959914   18.986688   22.457172 C.3        1 MOL1        -0.1684
      19    H12     23.057617   18.978324   22.493751 H          1 MOL1         0.0833
      20    H13     21.715437   19.549781   21.548730 H          1 MOL1         0.0833
      21    C8      21.468696   17.526360   22.309085 C.3        1 MOL1        -0.1684
      22    H14     22.023424   16.894775   23.016274 H          1 MOL1         0.0833
      23    H15     21.747800   17.170014   21.308170 H          1 MOL1         0.0833
      24    O1      21.334809   22.015551   23.007643 O.3        1 MOL1        -0.5508
      25    H16     22.026792   22.129372   23.691252 H          1 MOL1         0.3780
@<TRIPOS>BOND
    1     1     2    1
    2     1     3    1
    3     1     4    1
    4     4     5    1
    5     4     6    1
    6     4     7    1
    7     7     8    1
    8     7     9    1
    9     7    10    1
   10    10    11    1
   11    10    12    1
   12    10    13    1
   13    13    14    1
   14    13    15    1
   15    15    16    1
   16    15    17    1
   17    15    18    1
   18    18    19    1
   19    18    20    1
   20     1    21    1
   21    18    21    1
   22    21    22    1
   23    21    23    1
   24    13    24    1
   25    24    25    1
@<TRIPOS>SUBSTRUCTURE
       1 MOL1            1 RESIDUE      1      MOL     
@<SCITEGIC>MOL_PROPERTY
VConf Rank
SciTegic.value.IntegerValue
516

@<SCITEGIC>MOL_PROPERTY
Conf_Id
SciTegic.value.IntegerValue
155

@<SCITEGIC>MOL_PROPERTY
Delta U+W
SciTegic.value.DoubleValue
0.339

@<SCITEGIC>MOL_PROPERTY
U+W
SciTegic.value.DoubleValue
11.252

@<SCITEGIC>MOL_PROPERTY
Grad RMS
SciTegic.value.DoubleValue
0.000000

@<SCITEGIC>MOL_PROPERTY
U
SciTegic.value.DoubleValue
13.420

@<SCITEGIC>MOL_PROPERTY
W
SciTegic.value.DoubleValue
-2.167

@<SCITEGIC>MOL_PROPERTY
W(PB)
SciTegic.value.DoubleValue
-4.325

@<SCITEGIC>MOL_PROPERTY
W(SA)
SciTegic.value.DoubleValue
2.157

@<SCITEGIC>MOL_PROPERTY
Valence
SciTegic.value.DoubleValue
18.609

@<SCITEGIC>MOL_PROPERTY
Coulomb
SciTegic.value.DoubleValue
-8.052

@<SCITEGIC>MOL_PROPERTY
VdW
SciTegic.value.DoubleValue
2.863

@<SCITEGIC>MOL_PROPERTY
VdW6
SciTegic.value.DoubleValue
-12.524

@<SCITEGIC>MOL_PROPERTY
VdW12
SciTegic.value.DoubleValue
15.387

@<SCITEGIC>MOL_PROPERTY
Bond
SciTegic.value.DoubleValue
0.430

@<SCITEGIC>MOL_PROPERTY
Angle
SciTegic.value.DoubleValue
4.724

@<SCITEGIC>MOL_PROPERTY
Pdih
SciTegic.value.DoubleValue
13.455

@<SCITEGIC>MOL_PROPERTY
Idih
SciTegic.value.DoubleValue
0.000

@<SCITEGIC>MOL_PROPERTY
Tether
SciTegic.value.DoubleValue
0.000

@<TRIPOS>MOLECULE
guest-s17_confgen4.mol2 : confsearch ligand conformer 517
          25          25           1
SMALL
USER_CHARGES
 
@<TRIPOS>ATOM
       1    C1      20.750049   18.577630   20.816258 C.3        1 MOL1        -0.1684
       2    H1      20.061900   17.806618   20.444329 H          1 MOL1         0.0833
       3    H2      21.456341   18.759835   19.994835 H          1 MOL1         0.0833
       4    C2      19.966391   19.898029   21.038170 C.3        1 MOL1        -0.1684
       5    H3      20.669238   20.696634   21.295805 H          1 MOL1         0.0833
       6    H4      19.565010   20.213150   20.065387 H          1 MOL1         0.0833
       7    C3      18.772752   19.867649   22.036929 C.3        1 MOL1        -0.1684
       8    H5      17.885114   19.540254   21.478839 H          1 MOL1         0.0833
       9    H6      18.553704   20.894078   22.361242 H          1 MOL1         0.0833
      10    C4      18.885928   18.952766   23.286763 C.3        1 MOL1        -0.1760
      11    H7      17.907727   18.955976   23.785172 H          1 MOL1         0.0833
      12    H8      18.996065   17.914123   22.962967 H          1 MOL1         0.0833
      13    C5      19.964913   19.303480   24.353110 C.3        1 MOL1         0.1219
      14    H9      20.195582   18.384569   24.910931 H          1 MOL1         0.0790
      15    C6      21.302301   19.905181   23.853220 C.3        1 MOL1        -0.1760
      16    H10     21.100468   20.854615   23.348881 H          1 MOL1         0.0833
      17    H11     21.882306   20.200093   24.737667 H          1 MOL1         0.0833
      18    C7      22.228143   19.001725   22.984377 C.3        1 MOL1        -0.1684
      19    H12     22.854874   18.416519   23.671093 H          1 MOL1         0.0833
      20    H13     22.924772   19.640902   22.425374 H          1 MOL1         0.0833
      21    C8      21.564313   17.994934   22.008473 C.3        1 MOL1        -0.1684
      22    H14     20.962981   17.279402   22.578025 H          1 MOL1         0.0833
      23    H15     22.362746   17.373950   21.579797 H          1 MOL1         0.0833
      24    O1      19.396982   20.248272   25.253669 O.3        1 MOL1        -0.5508
      25    H16     18.578125   19.844490   25.608177 H          1 MOL1         0.3780
@<TRIPOS>BOND
    1     1     2    1
    2     1     3    1
    3     1     4    1
    4     4     5    1
    5     4     6    1
    6     4     7    1
    7     7     8    1
    8     7     9    1
    9     7    10    1
   10    10    11    1
   11    10    12    1
   12    10    13    1
   13    13    14    1
   14    13    15    1
   15    15    16    1
   16    15    17    1
   17    15    18    1
   18    18    19    1
   19    18    20    1
   20     1    21    1
   21    18    21    1
   22    21    22    1
   23    21    23    1
   24    13    24    1
   25    24    25    1
@<TRIPOS>SUBSTRUCTURE
       1 MOL1            1 RESIDUE      1      MOL     
@<SCITEGIC>MOL_PROPERTY
VConf Rank
SciTegic.value.IntegerValue
517

@<SCITEGIC>MOL_PROPERTY
Conf_Id
SciTegic.value.IntegerValue
146

@<SCITEGIC>MOL_PROPERTY
Delta U+W
SciTegic.value.DoubleValue
2.553

@<SCITEGIC>MOL_PROPERTY
U+W
SciTegic.value.DoubleValue
13.466

@<SCITEGIC>MOL_PROPERTY
Grad RMS
SciTegic.value.DoubleValue
0.000000

@<SCITEGIC>MOL_PROPERTY
U
SciTegic.value.DoubleValue
15.643

@<SCITEGIC>MOL_PROPERTY
W
SciTegic.value.DoubleValue
-2.176

@<SCITEGIC>MOL_PROPERTY
W(PB)
SciTegic.value.DoubleValue
-4.307

@<SCITEGIC>MOL_PROPERTY
W(SA)
SciTegic.value.DoubleValue
2.131

@<SCITEGIC>MOL_PROPERTY
Valence
SciTegic.value.DoubleValue
18.916

@<SCITEGIC>MOL_PROPERTY
Coulomb
SciTegic.value.DoubleValue
-7.506

@<SCITEGIC>MOL_PROPERTY
VdW
SciTegic.value.DoubleValue
4.232

@<SCITEGIC>MOL_PROPERTY
VdW6
SciTegic.value.DoubleValue
-13.632

@<SCITEGIC>MOL_PROPERTY
VdW12
SciTegic.value.DoubleValue
17.864

@<SCITEGIC>MOL_PROPERTY
Bond
SciTegic.value.DoubleValue
0.735

@<SCITEGIC>MOL_PROPERTY
Angle
SciTegic.value.DoubleValue
9.140

@<SCITEGIC>MOL_PROPERTY
Pdih
SciTegic.value.DoubleValue
9.042

@<SCITEGIC>MOL_PROPERTY
Idih
SciTegic.value.DoubleValue
0.000

@<SCITEGIC>MOL_PROPERTY
Tether
SciTegic.value.DoubleValue
0.000

@<TRIPOS>MOLECULE
guest-s17_confgen4.mol2 : confsearch ligand conformer 518
          25          25           1
SMALL
USER_CHARGES
 
@<TRIPOS>ATOM
       1    C1      18.573334   18.741109   21.665251 C.3        1 MOL1        -0.1684
       2    H1      17.795998   18.109504   22.116171 H          1 MOL1         0.0833
       3    H2      18.206280   18.990339   20.660230 H          1 MOL1         0.0833
       4    C2      19.869619   17.910739   21.491264 C.3        1 MOL1        -0.1684
       5    H3      19.631679   17.071380   20.823686 H          1 MOL1         0.0833
       6    H4      20.623565   18.490598   20.946768 H          1 MOL1         0.0833
       7    C3      20.474747   17.311219   22.785396 C.3        1 MOL1        -0.1684
       8    H5      21.309578   16.661135   22.489712 H          1 MOL1         0.0833
       9    H6      19.736345   16.650563   23.259462 H          1 MOL1         0.0833
      10    C4      21.005961   18.313611   23.843094 C.3        1 MOL1        -0.1760
      11    H7      20.181781   18.692510   24.455656 H          1 MOL1         0.0833
      12    H8      21.628870   17.742437   24.544721 H          1 MOL1         0.0833
      13    C5      21.835950   19.493050   23.273782 C.3        1 MOL1         0.1219
      14    H9      22.205309   19.233918   22.272449 H          1 MOL1         0.0790
      15    C6      21.064884   20.835608   23.204796 C.3        1 MOL1        -0.1760
      16    H10     20.668721   21.075377   24.200430 H          1 MOL1         0.0833
      17    H11     21.786989   21.629700   22.973878 H          1 MOL1         0.0833
      18    C7      19.920409   20.934880   22.159843 C.3        1 MOL1        -0.1684
      19    H12     20.298049   20.737814   21.148235 H          1 MOL1         0.0833
      20    H13     19.591450   21.982975   22.143539 H          1 MOL1         0.0833
      21    C8      18.677255   20.061833   22.471041 C.3        1 MOL1        -0.1684
      22    H14     17.779426   20.651521   22.240371 H          1 MOL1         0.0833
      23    H15     18.604636   19.864936   23.546579 H          1 MOL1         0.0833
      24    O1      22.959569   19.693692   24.123824 O.3        1 MOL1        -0.5508
      25    H16     23.500693   20.401448   23.715795 H          1 MOL1         0.3780
@<TRIPOS>BOND
    1     1     2    1
    2     1     3    1
    3     1     4    1
    4     4     5    1
    5     4     6    1
    6     4     7    1
    7     7     8    1
    8     7     9    1
    9     7    10    1
   10    10    11    1
   11    10    12    1
   12    10    13    1
   13    13    14    1
   14    13    15    1
   15    15    16    1
   16    15    17    1
   17    15    18    1
   18    18    19    1
   19    18    20    1
   20     1    21    1
   21    18    21    1
   22    21    22    1
   23    21    23    1
   24    13    24    1
   25    24    25    1
@<TRIPOS>SUBSTRUCTURE
       1 MOL1            1 RESIDUE      1      MOL     
@<SCITEGIC>MOL_PROPERTY
VConf Rank
SciTegic.value.IntegerValue
518

@<SCITEGIC>MOL_PROPERTY
Conf_Id
SciTegic.value.IntegerValue
62

@<SCITEGIC>MOL_PROPERTY
Delta U+W
SciTegic.value.DoubleValue
-1.779

@<SCITEGIC>MOL_PROPERTY
U+W
SciTegic.value.DoubleValue
9.134

@<SCITEGIC>MOL_PROPERTY
Grad RMS
SciTegic.value.DoubleValue
0.000000

@<SCITEGIC>MOL_PROPERTY
U
SciTegic.value.DoubleValue
11.364

@<SCITEGIC>MOL_PROPERTY
W
SciTegic.value.DoubleValue
-2.230

@<SCITEGIC>MOL_PROPERTY
W(PB)
SciTegic.value.DoubleValue
-4.359

@<SCITEGIC>MOL_PROPERTY
W(SA)
SciTegic.value.DoubleValue
2.129

@<SCITEGIC>MOL_PROPERTY
Valence
SciTegic.value.DoubleValue
16.582

@<SCITEGIC>MOL_PROPERTY
Coulomb
SciTegic.value.DoubleValue
-8.150

@<SCITEGIC>MOL_PROPERTY
VdW
SciTegic.value.DoubleValue
2.933

@<SCITEGIC>MOL_PROPERTY
VdW6
SciTegic.value.DoubleValue
-12.531

@<SCITEGIC>MOL_PROPERTY
VdW12
SciTegic.value.DoubleValue
15.464

@<SCITEGIC>MOL_PROPERTY
Bond
SciTegic.value.DoubleValue
0.439

@<SCITEGIC>MOL_PROPERTY
Angle
SciTegic.value.DoubleValue
5.099

@<SCITEGIC>MOL_PROPERTY
Pdih
SciTegic.value.DoubleValue
11.044

@<SCITEGIC>MOL_PROPERTY
Idih
SciTegic.value.DoubleValue
0.000

@<SCITEGIC>MOL_PROPERTY
Tether
SciTegic.value.DoubleValue
0.000

@<TRIPOS>MOLECULE
guest-s17_confgen4.mol2 : confsearch ligand conformer 519
          25          25           1
SMALL
USER_CHARGES
 
@<TRIPOS>ATOM
       1    C1      22.064114   18.792351   22.007437 C.3        1 MOL1        -0.1684
       2    H1      21.946669   19.863598   21.808033 H          1 MOL1         0.0833
       3    H2      23.054498   18.542796   21.603084 H          1 MOL1         0.0833
       4    C2      21.020470   17.975922   21.205000 C.3        1 MOL1        -0.1684
       5    H3      21.189190   18.183550   20.139490 H          1 MOL1         0.0833
       6    H4      21.221441   16.903792   21.334009 H          1 MOL1         0.0833
       7    C3      19.525091   18.247575   21.509573 C.3        1 MOL1        -0.1684
       8    H5      19.201194   17.676304   22.386917 H          1 MOL1         0.0833
       9    H6      18.943795   17.826357   20.677890 H          1 MOL1         0.0833
      10    C4      19.140399   19.743676   21.661261 C.3        1 MOL1        -0.1760
      11    H7      19.852116   20.389644   21.132644 H          1 MOL1         0.0833
      12    H8      18.182043   19.885884   21.144854 H          1 MOL1         0.0833
      13    C5      18.952864   20.224278   23.122509 C.3        1 MOL1         0.1219
      14    H9      18.241089   19.548932   23.618761 H          1 MOL1         0.0790
      15    C6      20.232426   20.298517   23.992635 C.3        1 MOL1        -0.1760
      16    H10     20.973470   20.962158   23.530873 H          1 MOL1         0.0833
      17    H11     19.951316   20.790610   24.933183 H          1 MOL1         0.0833
      18    C7      20.858677   18.925746   24.357161 C.3        1 MOL1        -0.1684
      19    H12     20.101919   18.134349   24.312975 H          1 MOL1         0.0833
      20    H13     21.162106   18.956860   25.412581 H          1 MOL1         0.0833
      21    C8      22.110382   18.529013   23.533292 C.3        1 MOL1        -0.1684
      22    H14     22.333497   17.468475   23.712073 H          1 MOL1         0.0833
      23    H15     22.967677   19.084941   23.936866 H          1 MOL1         0.0833
      24    O1      18.389340   21.529243   23.078544 O.3        1 MOL1        -0.5508
      25    H16     17.546410   21.457160   22.584153 H          1 MOL1         0.3780
@<TRIPOS>BOND
    1     1     2    1
    2     1     3    1
    3     1     4    1
    4     4     5    1
    5     4     6    1
    6     4     7    1
    7     7     8    1
    8     7     9    1
    9     7    10    1
   10    10    11    1
   11    10    12    1
   12    10    13    1
   13    13    14    1
   14    13    15    1
   15    15    16    1
   16    15    17    1
   17    15    18    1
   18    18    19    1
   19    18    20    1
   20     1    21    1
   21    18    21    1
   22    21    22    1
   23    21    23    1
   24    13    24    1
   25    24    25    1
@<TRIPOS>SUBSTRUCTURE
       1 MOL1            1 RESIDUE      1      MOL     
@<SCITEGIC>MOL_PROPERTY
VConf Rank
SciTegic.value.IntegerValue
519

@<SCITEGIC>MOL_PROPERTY
Conf_Id
SciTegic.value.IntegerValue
121

@<SCITEGIC>MOL_PROPERTY
Delta U+W
SciTegic.value.DoubleValue
-1.283

@<SCITEGIC>MOL_PROPERTY
U+W
SciTegic.value.DoubleValue
9.630

@<SCITEGIC>MOL_PROPERTY
Grad RMS
SciTegic.value.DoubleValue
0.000000

@<SCITEGIC>MOL_PROPERTY
U
SciTegic.value.DoubleValue
11.876

@<SCITEGIC>MOL_PROPERTY
W
SciTegic.value.DoubleValue
-2.246

@<SCITEGIC>MOL_PROPERTY
W(PB)
SciTegic.value.DoubleValue
-4.376

@<SCITEGIC>MOL_PROPERTY
W(SA)
SciTegic.value.DoubleValue
2.130

@<SCITEGIC>MOL_PROPERTY
Valence
SciTegic.value.DoubleValue
17.153

@<SCITEGIC>MOL_PROPERTY
Coulomb
SciTegic.value.DoubleValue
-7.966

@<SCITEGIC>MOL_PROPERTY
VdW
SciTegic.value.DoubleValue
2.689

@<SCITEGIC>MOL_PROPERTY
VdW6
SciTegic.value.DoubleValue
-12.458

@<SCITEGIC>MOL_PROPERTY
VdW12
SciTegic.value.DoubleValue
15.147

@<SCITEGIC>MOL_PROPERTY
Bond
SciTegic.value.DoubleValue
0.421

@<SCITEGIC>MOL_PROPERTY
Angle
SciTegic.value.DoubleValue
5.258

@<SCITEGIC>MOL_PROPERTY
Pdih
SciTegic.value.DoubleValue
11.475

@<SCITEGIC>MOL_PROPERTY
Idih
SciTegic.value.DoubleValue
0.000

@<SCITEGIC>MOL_PROPERTY
Tether
SciTegic.value.DoubleValue
0.000

@<TRIPOS>MOLECULE
guest-s17_confgen4.mol2 : confsearch ligand conformer 520
          25          25           1
SMALL
USER_CHARGES
 
@<TRIPOS>ATOM
       1    C1      20.951842   20.711395   21.668796 C.3        1 MOL1        -0.1684
       2    H1      20.180325   20.254919   21.038308 H          1 MOL1         0.0833
       3    H2      21.301179   21.579476   21.093437 H          1 MOL1         0.0833
       4    C2      22.156391   19.750612   21.829044 C.3        1 MOL1        -0.1684
       5    H3      22.556101   19.554384   20.824749 H          1 MOL1         0.0833
       6    H4      22.960404   20.264070   22.373477 H          1 MOL1         0.0833
       7    C3      21.884186   18.382813   22.505769 C.3        1 MOL1        -0.1684
       8    H5      21.906076   18.481950   23.596932 H          1 MOL1         0.0833
       9    H6      22.736769   17.730516   22.272190 H          1 MOL1         0.0833
      10    C4      20.585703   17.664284   22.050542 C.3        1 MOL1        -0.1760
      11    H7      20.280182   17.993921   21.050149 H          1 MOL1         0.0833
      12    H8      20.822109   16.597375   21.942716 H          1 MOL1         0.0833
      13    C5      19.399354   17.765416   23.041633 C.3        1 MOL1         0.1219
      14    H9      19.749166   17.429656   24.028485 H          1 MOL1         0.0790
      15    C6      18.755642   19.165534   23.205010 C.3        1 MOL1        -0.1760
      16    H10     18.399585   19.540032   22.237423 H          1 MOL1         0.0833
      17    H11     17.852644   19.040758   23.816868 H          1 MOL1         0.0833
      18    C7      19.649291   20.216801   23.916022 C.3        1 MOL1        -0.1684
      19    H12     20.394714   19.722650   24.549388 H          1 MOL1         0.0833
      20    H13     19.021908   20.780951   24.619689 H          1 MOL1         0.0833
      21    C8      20.328531   21.249643   22.980828 C.3        1 MOL1        -0.1684
      22    H14     21.093910   21.795552   23.548871 H          1 MOL1         0.0833
      23    H15     19.574110   21.998514   22.703466 H          1 MOL1         0.0833
      24    O1      18.386899   16.875228   22.588946 O.3        1 MOL1        -0.5508
      25    H16     17.671543   16.896122   23.258257 H          1 MOL1         0.3780
@<TRIPOS>BOND
    1     1     2    1
    2     1     3    1
    3     1     4    1
    4     4     5    1
    5     4     6    1
    6     4     7    1
    7     7     8    1
    8     7     9    1
    9     7    10    1
   10    10    11    1
   11    10    12    1
   12    10    13    1
   13    13    14    1
   14    13    15    1
   15    15    16    1
   16    15    17    1
   17    15    18    1
   18    18    19    1
   19    18    20    1
   20     1    21    1
   21    18    21    1
   22    21    22    1
   23    21    23    1
   24    13    24    1
   25    24    25    1
@<TRIPOS>SUBSTRUCTURE
       1 MOL1            1 RESIDUE      1      MOL     
@<SCITEGIC>MOL_PROPERTY
VConf Rank
SciTegic.value.IntegerValue
520

@<SCITEGIC>MOL_PROPERTY
Conf_Id
SciTegic.value.IntegerValue
24

@<SCITEGIC>MOL_PROPERTY
Delta U+W
SciTegic.value.DoubleValue
-1.236

@<SCITEGIC>MOL_PROPERTY
U+W
SciTegic.value.DoubleValue
9.678

@<SCITEGIC>MOL_PROPERTY
Grad RMS
SciTegic.value.DoubleValue
0.000000

@<SCITEGIC>MOL_PROPERTY
U
SciTegic.value.DoubleValue
11.876

@<SCITEGIC>MOL_PROPERTY
W
SciTegic.value.DoubleValue
-2.199

@<SCITEGIC>MOL_PROPERTY
W(PB)
SciTegic.value.DoubleValue
-4.335

@<SCITEGIC>MOL_PROPERTY
W(SA)
SciTegic.value.DoubleValue
2.137

@<SCITEGIC>MOL_PROPERTY
Valence
SciTegic.value.DoubleValue
17.153

@<SCITEGIC>MOL_PROPERTY
Coulomb
SciTegic.value.DoubleValue
-7.966

@<SCITEGIC>MOL_PROPERTY
VdW
SciTegic.value.DoubleValue
2.689

@<SCITEGIC>MOL_PROPERTY
VdW6
SciTegic.value.DoubleValue
-12.458

@<SCITEGIC>MOL_PROPERTY
VdW12
SciTegic.value.DoubleValue
15.147

@<SCITEGIC>MOL_PROPERTY
Bond
SciTegic.value.DoubleValue
0.421

@<SCITEGIC>MOL_PROPERTY
Angle
SciTegic.value.DoubleValue
5.258

@<SCITEGIC>MOL_PROPERTY
Pdih
SciTegic.value.DoubleValue
11.475

@<SCITEGIC>MOL_PROPERTY
Idih
SciTegic.value.DoubleValue
0.000

@<SCITEGIC>MOL_PROPERTY
Tether
SciTegic.value.DoubleValue
0.000

@<TRIPOS>MOLECULE
guest-s17_confgen4.mol2 : confsearch ligand conformer 521
          25          25           1
SMALL
USER_CHARGES
 
@<TRIPOS>ATOM
       1    C1      20.438217   18.190338   20.753194 C.3        1 MOL1        -0.1684
       2    H1      19.571169   17.822421   20.187825 H          1 MOL1         0.0833
       3    H2      21.321341   17.877438   20.179574 H          1 MOL1         0.0833
       4    C2      20.404856   19.741728   20.769790 C.3        1 MOL1        -0.1684
       5    H3      21.391908   20.146823   21.026541 H          1 MOL1         0.0833
       6    H4      20.229426   20.068660   19.735669 H          1 MOL1         0.0833
       7    C3      19.318401   20.388699   21.664051 C.3        1 MOL1        -0.1684
       8    H5      18.405499   19.777965   21.672393 H          1 MOL1         0.0833
       9    H6      19.031508   21.334183   21.183473 H          1 MOL1         0.0833
      10    C4      19.774096   20.737603   23.109227 C.3        1 MOL1        -0.1760
      11    H7      20.816685   21.080258   23.117893 H          1 MOL1         0.0833
      12    H8      19.176835   21.603785   23.425390 H          1 MOL1         0.0833
      13    C5      19.563262   19.612152   24.151334 C.3        1 MOL1         0.1219
      14    H9      18.709264   18.998962   23.834536 H          1 MOL1         0.0790
      15    C6      20.788830   18.695721   24.396175 C.3        1 MOL1        -0.1760
      16    H10     21.552924   19.250973   24.955841 H          1 MOL1         0.0833
      17    H11     20.466440   17.878577   25.054932 H          1 MOL1         0.0833
      18    C7      21.460668   18.076888   23.144647 C.3        1 MOL1        -0.1684
      19    H12     22.143710   17.285081   23.481176 H          1 MOL1         0.0833
      20    H13     22.109020   18.820764   22.667176 H          1 MOL1         0.0833
      21    C8      20.462787   17.472309   22.124809 C.3        1 MOL1        -0.1684
      22    H14     19.448555   17.435043   22.539056 H          1 MOL1         0.0833
      23    H15     20.731040   16.421082   21.952091 H          1 MOL1         0.0833
      24    O1      19.230629   20.212442   25.396611 O.3        1 MOL1        -0.5508
      25    H16     19.995794   20.769031   25.649006 H          1 MOL1         0.3780
@<TRIPOS>BOND
    1     1     2    1
    2     1     3    1
    3     1     4    1
    4     4     5    1
    5     4     6    1
    6     4     7    1
    7     7     8    1
    8     7     9    1
    9     7    10    1
   10    10    11    1
   11    10    12    1
   12    10    13    1
   13    13    14    1
   14    13    15    1
   15    15    16    1
   16    15    17    1
   17    15    18    1
   18    18    19    1
   19    18    20    1
   20     1    21    1
   21    18    21    1
   22    21    22    1
   23    21    23    1
   24    13    24    1
   25    24    25    1
@<TRIPOS>SUBSTRUCTURE
       1 MOL1            1 RESIDUE      1      MOL     
@<SCITEGIC>MOL_PROPERTY
VConf Rank
SciTegic.value.IntegerValue
521

@<SCITEGIC>MOL_PROPERTY
Conf_Id
SciTegic.value.IntegerValue
167

@<SCITEGIC>MOL_PROPERTY
Delta U+W
SciTegic.value.DoubleValue
0.388

@<SCITEGIC>MOL_PROPERTY
U+W
SciTegic.value.DoubleValue
11.301

@<SCITEGIC>MOL_PROPERTY
Grad RMS
SciTegic.value.DoubleValue
0.000000

@<SCITEGIC>MOL_PROPERTY
U
SciTegic.value.DoubleValue
13.202

@<SCITEGIC>MOL_PROPERTY
W
SciTegic.value.DoubleValue
-1.901

@<SCITEGIC>MOL_PROPERTY
W(PB)
SciTegic.value.DoubleValue
-4.065

@<SCITEGIC>MOL_PROPERTY
W(SA)
SciTegic.value.DoubleValue
2.163

@<SCITEGIC>MOL_PROPERTY
Valence
SciTegic.value.DoubleValue
18.957

@<SCITEGIC>MOL_PROPERTY
Coulomb
SciTegic.value.DoubleValue
-8.753

@<SCITEGIC>MOL_PROPERTY
VdW
SciTegic.value.DoubleValue
2.998

@<SCITEGIC>MOL_PROPERTY
VdW6
SciTegic.value.DoubleValue
-12.294

@<SCITEGIC>MOL_PROPERTY
VdW12
SciTegic.value.DoubleValue
15.292

@<SCITEGIC>MOL_PROPERTY
Bond
SciTegic.value.DoubleValue
0.419

@<SCITEGIC>MOL_PROPERTY
Angle
SciTegic.value.DoubleValue
4.543

@<SCITEGIC>MOL_PROPERTY
Pdih
SciTegic.value.DoubleValue
13.996

@<SCITEGIC>MOL_PROPERTY
Idih
SciTegic.value.DoubleValue
0.000

@<SCITEGIC>MOL_PROPERTY
Tether
SciTegic.value.DoubleValue
0.000

@<TRIPOS>MOLECULE
guest-s17_confgen4.mol2 : confsearch ligand conformer 522
          25          25           1
SMALL
USER_CHARGES
 
@<TRIPOS>ATOM
       1    C1      19.849996   17.352691   21.949002 C.3        1 MOL1        -0.1684
       2    H1      19.142648   16.700128   22.478459 H          1 MOL1         0.0833
       3    H2      20.158754   16.791694   21.056327 H          1 MOL1         0.0833
       4    C2      21.105907   17.556101   22.835916 C.3        1 MOL1        -0.1684
       5    H3      20.820268   17.692632   23.884999 H          1 MOL1         0.0833
       6    H4      21.663397   16.609450   22.826360 H          1 MOL1         0.0833
       7    C3      22.066995   18.685360   22.382126 C.3        1 MOL1        -0.1684
       8    H5      21.975305   18.872273   21.304430 H          1 MOL1         0.0833
       9    H6      23.093907   18.321582   22.523627 H          1 MOL1         0.0833
      10    C4      21.941422   20.009795   23.183594 C.3        1 MOL1        -0.1760
      11    H7      22.077101   19.803379   24.253279 H          1 MOL1         0.0833
      12    H8      22.785522   20.650766   22.896472 H          1 MOL1         0.0833
      13    C5      20.641573   20.828153   22.983366 C.3        1 MOL1         0.1219
      14    H9      20.490451   21.005384   21.910097 H          1 MOL1         0.0790
      15    C6      19.376966   20.166155   23.589381 C.3        1 MOL1        -0.1760
      16    H10     19.662289   19.453917   24.370137 H          1 MOL1         0.0833
      17    H11     18.783632   20.924694   24.117127 H          1 MOL1         0.0833
      18    C7      18.437115   19.485217   22.560902 C.3        1 MOL1        -0.1684
      19    H12     17.860310   20.273003   22.057282 H          1 MOL1         0.0833
      20    H13     17.699993   18.875551   23.100819 H          1 MOL1         0.0833
      21    C8      19.107865   18.622718   21.462239 C.3        1 MOL1        -0.1684
      22    H14     19.770536   19.236427   20.841451 H          1 MOL1         0.0833
      23    H15     18.314589   18.293751   20.777174 H          1 MOL1         0.0833
      24    O1      20.832204   22.087281   23.617731 O.3        1 MOL1        -0.5508
      25    H16     20.033267   22.621741   23.426498 H          1 MOL1         0.3780
@<TRIPOS>BOND
    1     1     2    1
    2     1     3    1
    3     1     4    1
    4     4     5    1
    5     4     6    1
    6     4     7    1
    7     7     8    1
    8     7     9    1
    9     7    10    1
   10    10    11    1
   11    10    12    1
   12    10    13    1
   13    13    14    1
   14    13    15    1
   15    15    16    1
   16    15    17    1
   17    15    18    1
   18    18    19    1
   19    18    20    1
   20     1    21    1
   21    18    21    1
   22    21    22    1
   23    21    23    1
   24    13    24    1
   25    24    25    1
@<TRIPOS>SUBSTRUCTURE
       1 MOL1            1 RESIDUE      1      MOL     
@<SCITEGIC>MOL_PROPERTY
VConf Rank
SciTegic.value.IntegerValue
522

@<SCITEGIC>MOL_PROPERTY
Conf_Id
SciTegic.value.IntegerValue
60

@<SCITEGIC>MOL_PROPERTY
Delta U+W
SciTegic.value.DoubleValue
-1.838

@<SCITEGIC>MOL_PROPERTY
U+W
SciTegic.value.DoubleValue
9.075

@<SCITEGIC>MOL_PROPERTY
Grad RMS
SciTegic.value.DoubleValue
0.000000

@<SCITEGIC>MOL_PROPERTY
U
SciTegic.value.DoubleValue
11.150

@<SCITEGIC>MOL_PROPERTY
W
SciTegic.value.DoubleValue
-2.074

@<SCITEGIC>MOL_PROPERTY
W(PB)
SciTegic.value.DoubleValue
-4.196

@<SCITEGIC>MOL_PROPERTY
W(SA)
SciTegic.value.DoubleValue
2.121

@<SCITEGIC>MOL_PROPERTY
Valence
SciTegic.value.DoubleValue
16.582

@<SCITEGIC>MOL_PROPERTY
Coulomb
SciTegic.value.DoubleValue
-8.361

@<SCITEGIC>MOL_PROPERTY
VdW
SciTegic.value.DoubleValue
2.928

@<SCITEGIC>MOL_PROPERTY
VdW6
SciTegic.value.DoubleValue
-12.539

@<SCITEGIC>MOL_PROPERTY
VdW12
SciTegic.value.DoubleValue
15.467

@<SCITEGIC>MOL_PROPERTY
Bond
SciTegic.value.DoubleValue
0.441

@<SCITEGIC>MOL_PROPERTY
Angle
SciTegic.value.DoubleValue
5.093

@<SCITEGIC>MOL_PROPERTY
Pdih
SciTegic.value.DoubleValue
11.049

@<SCITEGIC>MOL_PROPERTY
Idih
SciTegic.value.DoubleValue
0.000

@<SCITEGIC>MOL_PROPERTY
Tether
SciTegic.value.DoubleValue
0.000

@<TRIPOS>MOLECULE
guest-s17_confgen4.mol2 : confsearch ligand conformer 523
          25          25           1
SMALL
USER_CHARGES
 
@<TRIPOS>ATOM
       1    C1      20.128511   18.667212   20.667912 C.3        1 MOL1        -0.1684
       2    H1      19.306790   18.024882   20.323397 H          1 MOL1         0.0833
       3    H2      20.731701   18.880465   19.774826 H          1 MOL1         0.0833
       4    C2      21.023457   17.869923   21.649780 C.3        1 MOL1        -0.1684
       5    H3      21.425041   17.008884   21.098271 H          1 MOL1         0.0833
       6    H4      21.906954   18.458153   21.922850 H          1 MOL1         0.0833
       7    C3      20.323621   17.317511   22.917037 C.3        1 MOL1        -0.1684
       8    H5      21.049181   16.685336   23.447001 H          1 MOL1         0.0833
       9    H6      19.507360   16.646484   22.617052 H          1 MOL1         0.0833
      10    C4      19.773517   18.359570   23.925134 C.3        1 MOL1        -0.1760
      11    H7      18.799851   18.731600   23.590705 H          1 MOL1         0.0833
      12    H8      19.553706   17.822838   24.857627 H          1 MOL1         0.0833
      13    C5      20.724415   19.547524   24.223933 C.3        1 MOL1         0.1219
      14    H9      21.752500   19.280097   23.945226 H          1 MOL1         0.0790
      15    C6      20.332874   20.865781   23.510982 C.3        1 MOL1        -0.1760
      16    H10     19.294286   21.117620   23.762289 H          1 MOL1         0.0833
      17    H11     20.944646   21.670369   23.940117 H          1 MOL1         0.0833
      18    C7      20.516642   20.910911   21.969411 C.3        1 MOL1        -0.1684
      19    H12     21.558754   20.702043   21.695280 H          1 MOL1         0.0833
      20    H13     20.340385   21.949043   21.656170 H          1 MOL1         0.0833
      21    C8      19.538790   20.010694   21.170499 C.3        1 MOL1        -0.1684
      22    H14     19.208480   20.568936   20.283767 H          1 MOL1         0.0833
      23    H15     18.619518   19.839640   21.741887 H          1 MOL1         0.0833
      24    O1      20.696167   19.798981   25.623982 O.3        1 MOL1        -0.5508
      25    H16     21.011567   18.981193   26.062457 H          1 MOL1         0.3780
@<TRIPOS>BOND
    1     1     2    1
    2     1     3    1
    3     1     4    1
    4     4     5    1
    5     4     6    1
    6     4     7    1
    7     7     8    1
    8     7     9    1
    9     7    10    1
   10    10    11    1
   11    10    12    1
   12    10    13    1
   13    13    14    1
   14    13    15    1
   15    15    16    1
   16    15    17    1
   17    15    18    1
   18    18    19    1
   19    18    20    1
   20     1    21    1
   21    18    21    1
   22    21    22    1
   23    21    23    1
   24    13    24    1
   25    24    25    1
@<TRIPOS>SUBSTRUCTURE
       1 MOL1            1 RESIDUE      1      MOL     
@<SCITEGIC>MOL_PROPERTY
VConf Rank
SciTegic.value.IntegerValue
523

@<SCITEGIC>MOL_PROPERTY
Conf_Id
SciTegic.value.IntegerValue
129

@<SCITEGIC>MOL_PROPERTY
Delta U+W
SciTegic.value.DoubleValue
-1.846

@<SCITEGIC>MOL_PROPERTY
U+W
SciTegic.value.DoubleValue
9.067

@<SCITEGIC>MOL_PROPERTY
Grad RMS
SciTegic.value.DoubleValue
0.000000

@<SCITEGIC>MOL_PROPERTY
U
SciTegic.value.DoubleValue
11.150

@<SCITEGIC>MOL_PROPERTY
W
SciTegic.value.DoubleValue
-2.083

@<SCITEGIC>MOL_PROPERTY
W(PB)
SciTegic.value.DoubleValue
-4.217

@<SCITEGIC>MOL_PROPERTY
W(SA)
SciTegic.value.DoubleValue
2.134

@<SCITEGIC>MOL_PROPERTY
Valence
SciTegic.value.DoubleValue
16.583

@<SCITEGIC>MOL_PROPERTY
Coulomb
SciTegic.value.DoubleValue
-8.361

@<SCITEGIC>MOL_PROPERTY
VdW
SciTegic.value.DoubleValue
2.928

@<SCITEGIC>MOL_PROPERTY
VdW6
SciTegic.value.DoubleValue
-12.539

@<SCITEGIC>MOL_PROPERTY
VdW12
SciTegic.value.DoubleValue
15.467

@<SCITEGIC>MOL_PROPERTY
Bond
SciTegic.value.DoubleValue
0.441

@<SCITEGIC>MOL_PROPERTY
Angle
SciTegic.value.DoubleValue
5.093

@<SCITEGIC>MOL_PROPERTY
Pdih
SciTegic.value.DoubleValue
11.049

@<SCITEGIC>MOL_PROPERTY
Idih
SciTegic.value.DoubleValue
0.000

@<SCITEGIC>MOL_PROPERTY
Tether
SciTegic.value.DoubleValue
0.000

@<TRIPOS>MOLECULE
guest-s17_confgen4.mol2 : confsearch ligand conformer 524
          25          25           1
SMALL
USER_CHARGES
 
@<TRIPOS>ATOM
       1    C1      21.914655   19.912094   23.670742 C.3        1 MOL1        -0.1684
       2    H1      21.977180   20.959983   23.994044 H          1 MOL1         0.0833
       3    H2      22.844243   19.439619   24.016507 H          1 MOL1         0.0833
       4    C2      21.914742   19.853599   22.122583 C.3        1 MOL1        -0.1684
       5    H3      22.859771   20.296720   21.779992 H          1 MOL1         0.0833
       6    H4      21.958373   18.813363   21.780231 H          1 MOL1         0.0833
       7    C3      20.766976   20.612603   21.410675 C.3        1 MOL1        -0.1684
       8    H5      20.967448   20.577402   20.331034 H          1 MOL1         0.0833
       9    H6      20.808329   21.674972   21.686643 H          1 MOL1         0.0833
      10    C4      19.326256   20.087571   21.642931 C.3        1 MOL1        -0.1760
      11    H7      18.934152   20.467726   22.591759 H          1 MOL1         0.0833
      12    H8      18.690300   20.549278   20.875466 H          1 MOL1         0.0833
      13    C5      19.170649   18.546180   21.576040 C.3        1 MOL1         0.1219
      14    H9      20.019469   18.111813   21.031339 H          1 MOL1         0.0790
      15    C6      19.045209   17.858221   22.958746 C.3        1 MOL1        -0.1760
      16    H10     18.216339   18.310928   23.518430 H          1 MOL1         0.0833
      17    H11     18.752899   16.813709   22.786165 H          1 MOL1         0.0833
      18    C7      20.315150   17.843059   23.852076 C.3        1 MOL1        -0.1684
      19    H12     21.150779   17.356084   23.333063 H          1 MOL1         0.0833
      20    H13     20.094984   17.194846   24.711328 H          1 MOL1         0.0833
      21    C8      20.734789   19.228186   24.408736 C.3        1 MOL1        -0.1684
      22    H14     21.042162   19.096721   25.455297 H          1 MOL1         0.0833
      23    H15     19.870648   19.899976   24.461268 H          1 MOL1         0.0833
      24    O1      17.985202   18.250502   20.848405 O.3        1 MOL1        -0.5508
      25    H16     17.244666   18.643253   21.354661 H          1 MOL1         0.3780
@<TRIPOS>BOND
    1     1     2    1
    2     1     3    1
    3     1     4    1
    4     4     5    1
    5     4     6    1
    6     4     7    1
    7     7     8    1
    8     7     9    1
    9     7    10    1
   10    10    11    1
   11    10    12    1
   12    10    13    1
   13    13    14    1
   14    13    15    1
   15    15    16    1
   16    15    17    1
   17    15    18    1
   18    18    19    1
   19    18    20    1
   20     1    21    1
   21    18    21    1
   22    21    22    1
   23    21    23    1
   24    13    24    1
   25    24    25    1
@<TRIPOS>SUBSTRUCTURE
       1 MOL1            1 RESIDUE      1      MOL     
@<SCITEGIC>MOL_PROPERTY
VConf Rank
SciTegic.value.IntegerValue
524

@<SCITEGIC>MOL_PROPERTY
Conf_Id
SciTegic.value.IntegerValue
140

@<SCITEGIC>MOL_PROPERTY
Delta U+W
SciTegic.value.DoubleValue
-1.702

@<SCITEGIC>MOL_PROPERTY
U+W
SciTegic.value.DoubleValue
9.211

@<SCITEGIC>MOL_PROPERTY
Grad RMS
SciTegic.value.DoubleValue
0.000000

@<SCITEGIC>MOL_PROPERTY
U
SciTegic.value.DoubleValue
11.181

@<SCITEGIC>MOL_PROPERTY
W
SciTegic.value.DoubleValue
-1.969

@<SCITEGIC>MOL_PROPERTY
W(PB)
SciTegic.value.DoubleValue
-4.093

@<SCITEGIC>MOL_PROPERTY
W(SA)
SciTegic.value.DoubleValue
2.124

@<SCITEGIC>MOL_PROPERTY
Valence
SciTegic.value.DoubleValue
16.954

@<SCITEGIC>MOL_PROPERTY
Coulomb
SciTegic.value.DoubleValue
-8.661

@<SCITEGIC>MOL_PROPERTY
VdW
SciTegic.value.DoubleValue
2.887

@<SCITEGIC>MOL_PROPERTY
VdW6
SciTegic.value.DoubleValue
-12.561

@<SCITEGIC>MOL_PROPERTY
VdW12
SciTegic.value.DoubleValue
15.448

@<SCITEGIC>MOL_PROPERTY
Bond
SciTegic.value.DoubleValue
0.433

@<SCITEGIC>MOL_PROPERTY
Angle
SciTegic.value.DoubleValue
5.120

@<SCITEGIC>MOL_PROPERTY
Pdih
SciTegic.value.DoubleValue
11.401

@<SCITEGIC>MOL_PROPERTY
Idih
SciTegic.value.DoubleValue
0.000

@<SCITEGIC>MOL_PROPERTY
Tether
SciTegic.value.DoubleValue
0.000

@<TRIPOS>MOLECULE
guest-s17_confgen4.mol2 : confsearch ligand conformer 525
          25          25           1
SMALL
USER_CHARGES
 
@<TRIPOS>ATOM
       1    C1      20.784767   17.232338   23.109745 C.3        1 MOL1        -0.1684
       2    H1      20.201165   16.656997   23.841112 H          1 MOL1         0.0833
       3    H2      21.585232   16.558909   22.774083 H          1 MOL1         0.0833
       4    C2      21.449763   18.433373   23.830677 C.3        1 MOL1        -0.1684
       5    H3      20.754522   18.887963   24.545373 H          1 MOL1         0.0833
       6    H4      22.256832   18.027255   24.455785 H          1 MOL1         0.0833
       7    C3      22.058421   19.514007   22.899918 C.3        1 MOL1        -0.1684
       8    H5      22.325650   19.089606   21.923564 H          1 MOL1         0.0833
       9    H6      23.011286   19.833364   23.343792 H          1 MOL1         0.0833
      10    C4      21.189057   20.788936   22.727363 C.3        1 MOL1        -0.1760
      11    H7      20.973959   21.214924   23.716041 H          1 MOL1         0.0833
      12    H8      21.802921   21.536873   22.207751 H          1 MOL1         0.0833
      13    C5      19.867122   20.632258   21.934374 C.3        1 MOL1         0.1219
      14    H9      20.082362   20.177854   20.958126 H          1 MOL1         0.0790
      15    C6      18.778674   19.805724   22.666967 C.3        1 MOL1        -0.1760
      16    H10     18.962909   19.807716   23.746130 H          1 MOL1         0.0833
      17    H11     17.806557   20.303865   22.550943 H          1 MOL1         0.0833
      18    C7      18.604225   18.351601   22.156706 C.3        1 MOL1        -0.1684
      19    H12     18.031520   18.390672   21.219938 H          1 MOL1         0.0833
      20    H13     17.975826   17.797306   22.866896 H          1 MOL1         0.0833
      21    C8      19.897181   17.544529   21.878916 C.3        1 MOL1        -0.1684
      22    H14     20.490286   18.026691   21.093455 H          1 MOL1         0.0833
      23    H15     19.593414   16.582539   21.444052 H          1 MOL1         0.0833
      24    O1      19.354344   21.938862   21.706329 O.3        1 MOL1        -0.5508
      25    H16     19.174748   22.323455   22.588812 H          1 MOL1         0.3780
@<TRIPOS>BOND
    1     1     2    1
    2     1     3    1
    3     1     4    1
    4     4     5    1
    5     4     6    1
    6     4     7    1
    7     7     8    1
    8     7     9    1
    9     7    10    1
   10    10    11    1
   11    10    12    1
   12    10    13    1
   13    13    14    1
   14    13    15    1
   15    15    16    1
   16    15    17    1
   17    15    18    1
   18    18    19    1
   19    18    20    1
   20     1    21    1
   21    18    21    1
   22    21    22    1
   23    21    23    1
   24    13    24    1
   25    24    25    1
@<TRIPOS>SUBSTRUCTURE
       1 MOL1            1 RESIDUE      1      MOL     
@<SCITEGIC>MOL_PROPERTY
VConf Rank
SciTegic.value.IntegerValue
525

@<SCITEGIC>MOL_PROPERTY
Conf_Id
SciTegic.value.IntegerValue
68

@<SCITEGIC>MOL_PROPERTY
Delta U+W
SciTegic.value.DoubleValue
-1.765

@<SCITEGIC>MOL_PROPERTY
U+W
SciTegic.value.DoubleValue
9.148

@<SCITEGIC>MOL_PROPERTY
Grad RMS
SciTegic.value.DoubleValue
0.000000

@<SCITEGIC>MOL_PROPERTY
U
SciTegic.value.DoubleValue
11.181

@<SCITEGIC>MOL_PROPERTY
W
SciTegic.value.DoubleValue
-2.032

@<SCITEGIC>MOL_PROPERTY
W(PB)
SciTegic.value.DoubleValue
-4.147

@<SCITEGIC>MOL_PROPERTY
W(SA)
SciTegic.value.DoubleValue
2.114

@<SCITEGIC>MOL_PROPERTY
Valence
SciTegic.value.DoubleValue
16.955

@<SCITEGIC>MOL_PROPERTY
Coulomb
SciTegic.value.DoubleValue
-8.661

@<SCITEGIC>MOL_PROPERTY
VdW
SciTegic.value.DoubleValue
2.887

@<SCITEGIC>MOL_PROPERTY
VdW6
SciTegic.value.DoubleValue
-12.561

@<SCITEGIC>MOL_PROPERTY
VdW12
SciTegic.value.DoubleValue
15.448

@<SCITEGIC>MOL_PROPERTY
Bond
SciTegic.value.DoubleValue
0.433

@<SCITEGIC>MOL_PROPERTY
Angle
SciTegic.value.DoubleValue
5.121

@<SCITEGIC>MOL_PROPERTY
Pdih
SciTegic.value.DoubleValue
11.402

@<SCITEGIC>MOL_PROPERTY
Idih
SciTegic.value.DoubleValue
0.000

@<SCITEGIC>MOL_PROPERTY
Tether
SciTegic.value.DoubleValue
0.000

@<TRIPOS>MOLECULE
guest-s17_confgen4.mol2 : confsearch ligand conformer 526
          25          25           1
SMALL
USER_CHARGES
 
@<TRIPOS>ATOM
       1    C1      21.257460   20.120169   23.920323 C.3        1 MOL1        -0.1684
       2    H1      21.872847   20.749716   24.577626 H          1 MOL1         0.0833
       3    H2      21.224411   19.149410   24.427695 H          1 MOL1         0.0833
       4    C2      21.982631   19.997582   22.554892 C.3        1 MOL1        -0.1684
       5    H3      21.611499   20.744325   21.841275 H          1 MOL1         0.0833
       6    H4      23.037734   20.257320   22.717106 H          1 MOL1         0.0833
       7    C3      21.957364   18.578184   21.929373 C.3        1 MOL1        -0.1684
       8    H5      22.377428   17.857426   22.644305 H          1 MOL1         0.0833
       9    H6      22.645752   18.578647   21.073246 H          1 MOL1         0.0833
      10    C4      20.582067   18.061742   21.428972 C.3        1 MOL1        -0.1760
      11    H7      20.160058   18.754232   20.690784 H          1 MOL1         0.0833
      12    H8      20.775709   17.133012   20.875279 H          1 MOL1         0.0833
      13    C5      19.559399   17.761715   22.555480 C.3        1 MOL1         0.1219
      14    H9      20.097325   17.636039   23.502257 H          1 MOL1         0.0790
      15    C6      18.458732   18.836038   22.735497 C.3        1 MOL1        -0.1760
      16    H10     17.714589   18.709513   21.938115 H          1 MOL1         0.0833
      17    H11     17.928832   18.634892   23.675620 H          1 MOL1         0.0833
      18    C7      18.907922   20.319944   22.717752 C.3        1 MOL1        -0.1684
      19    H12     18.001116   20.936788   22.780449 H          1 MOL1         0.0833
      20    H13     19.349332   20.575366   21.747585 H          1 MOL1         0.0833
      21    C8      19.846215   20.761092   23.868896 C.3        1 MOL1        -0.1684
      22    H14     19.343789   20.594557   24.831404 H          1 MOL1         0.0833
      23    H15     19.975881   21.848975   23.787069 H          1 MOL1         0.0833
      24    O1      18.910887   16.530397   22.262273 O.3        1 MOL1        -0.5508
      25    H16     18.451617   16.656053   21.406604 H          1 MOL1         0.3780
@<TRIPOS>BOND
    1     1     2    1
    2     1     3    1
    3     1     4    1
    4     4     5    1
    5     4     6    1
    6     4     7    1
    7     7     8    1
    8     7     9    1
    9     7    10    1
   10    10    11    1
   11    10    12    1
   12    10    13    1
   13    13    14    1
   14    13    15    1
   15    15    16    1
   16    15    17    1
   17    15    18    1
   18    18    19    1
   19    18    20    1
   20     1    21    1
   21    18    21    1
   22    21    22    1
   23    21    23    1
   24    13    24    1
   25    24    25    1
@<TRIPOS>SUBSTRUCTURE
       1 MOL1            1 RESIDUE      1      MOL     
@<SCITEGIC>MOL_PROPERTY
VConf Rank
SciTegic.value.IntegerValue
526

@<SCITEGIC>MOL_PROPERTY
Conf_Id
SciTegic.value.IntegerValue
165

@<SCITEGIC>MOL_PROPERTY
Delta U+W
SciTegic.value.DoubleValue
-1.999

@<SCITEGIC>MOL_PROPERTY
U+W
SciTegic.value.DoubleValue
8.915

@<SCITEGIC>MOL_PROPERTY
Grad RMS
SciTegic.value.DoubleValue
0.000000

@<SCITEGIC>MOL_PROPERTY
U
SciTegic.value.DoubleValue
10.935

@<SCITEGIC>MOL_PROPERTY
W
SciTegic.value.DoubleValue
-2.020

@<SCITEGIC>MOL_PROPERTY
W(PB)
SciTegic.value.DoubleValue
-4.135

@<SCITEGIC>MOL_PROPERTY
W(SA)
SciTegic.value.DoubleValue
2.115

@<SCITEGIC>MOL_PROPERTY
Valence
SciTegic.value.DoubleValue
16.757

@<SCITEGIC>MOL_PROPERTY
Coulomb
SciTegic.value.DoubleValue
-8.731

@<SCITEGIC>MOL_PROPERTY
VdW
SciTegic.value.DoubleValue
2.908

@<SCITEGIC>MOL_PROPERTY
VdW6
SciTegic.value.DoubleValue
-12.597

@<SCITEGIC>MOL_PROPERTY
VdW12
SciTegic.value.DoubleValue
15.506

@<SCITEGIC>MOL_PROPERTY
Bond
SciTegic.value.DoubleValue
0.434

@<SCITEGIC>MOL_PROPERTY
Angle
SciTegic.value.DoubleValue
5.069

@<SCITEGIC>MOL_PROPERTY
Pdih
SciTegic.value.DoubleValue
11.254

@<SCITEGIC>MOL_PROPERTY
Idih
SciTegic.value.DoubleValue
0.000

@<SCITEGIC>MOL_PROPERTY
Tether
SciTegic.value.DoubleValue
0.000

@<TRIPOS>MOLECULE
guest-s17_confgen4.mol2 : confsearch ligand conformer 527
          25          25           1
SMALL
USER_CHARGES
 
@<TRIPOS>ATOM
       1    C1      22.115283   18.963389   22.896468 C.3        1 MOL1        -0.1684
       2    H1      23.177884   18.770360   23.098217 H          1 MOL1         0.0833
       3    H2      22.122187   19.658392   22.049281 H          1 MOL1         0.0833
       4    C2      21.529733   19.644188   24.161021 C.3        1 MOL1        -0.1684
       5    H3      21.939527   19.126514   25.039138 H          1 MOL1         0.0833
       6    H4      21.909534   20.673165   24.220397 H          1 MOL1         0.0833
       7    C3      19.987755   19.657046   24.310950 C.3        1 MOL1        -0.1684
       8    H5      19.758200   20.084655   25.296421 H          1 MOL1         0.0833
       9    H6      19.601069   18.632550   24.357594 H          1 MOL1         0.0833
      10    C4      19.207409   20.483313   23.256258 C.3        1 MOL1        -0.1760
      11    H7      18.150829   20.485489   23.556507 H          1 MOL1         0.0833
      12    H8      19.539084   21.528298   23.308380 H          1 MOL1         0.0833
      13    C5      19.290808   20.009666   21.784367 C.3        1 MOL1         0.1219
      14    H9      20.251752   20.320792   21.358167 H          1 MOL1         0.0790
      15    C6      19.123958   18.480814   21.586992 C.3        1 MOL1        -0.1760
      16    H10     18.589621   18.033907   22.433678 H          1 MOL1         0.0833
      17    H11     18.473753   18.312250   20.717882 H          1 MOL1         0.0833
      18    C7      20.447673   17.717281   21.315356 C.3        1 MOL1        -0.1684
      19    H12     20.950361   18.161014   20.445073 H          1 MOL1         0.0833
      20    H13     20.186951   16.693497   21.014253 H          1 MOL1         0.0833
      21    C8      21.450590   17.620788   22.495066 C.3        1 MOL1        -0.1684
      22    H14     22.251022   16.937473   22.179790 H          1 MOL1         0.0833
      23    H15     20.985728   17.134700   23.362379 H          1 MOL1         0.0833
      24    O1      18.258382   20.673632   21.064118 O.3        1 MOL1        -0.5508
      25    H16     18.414446   21.635414   21.169269 H          1 MOL1         0.3780
@<TRIPOS>BOND
    1     1     2    1
    2     1     3    1
    3     1     4    1
    4     4     5    1
    5     4     6    1
    6     4     7    1
    7     7     8    1
    8     7     9    1
    9     7    10    1
   10    10    11    1
   11    10    12    1
   12    10    13    1
   13    13    14    1
   14    13    15    1
   15    15    16    1
   16    15    17    1
   17    15    18    1
   18    18    19    1
   19    18    20    1
   20     1    21    1
   21    18    21    1
   22    21    22    1
   23    21    23    1
   24    13    24    1
   25    24    25    1
@<TRIPOS>SUBSTRUCTURE
       1 MOL1            1 RESIDUE      1      MOL     
@<SCITEGIC>MOL_PROPERTY
VConf Rank
SciTegic.value.IntegerValue
527

@<SCITEGIC>MOL_PROPERTY
Conf_Id
SciTegic.value.IntegerValue
133

@<SCITEGIC>MOL_PROPERTY
Delta U+W
SciTegic.value.DoubleValue
-2.139

@<SCITEGIC>MOL_PROPERTY
U+W
SciTegic.value.DoubleValue
8.774

@<SCITEGIC>MOL_PROPERTY
Grad RMS
SciTegic.value.DoubleValue
0.000000

@<SCITEGIC>MOL_PROPERTY
U
SciTegic.value.DoubleValue
10.905

@<SCITEGIC>MOL_PROPERTY
W
SciTegic.value.DoubleValue
-2.131

@<SCITEGIC>MOL_PROPERTY
W(PB)
SciTegic.value.DoubleValue
-4.281

@<SCITEGIC>MOL_PROPERTY
W(SA)
SciTegic.value.DoubleValue
2.150

@<SCITEGIC>MOL_PROPERTY
Valence
SciTegic.value.DoubleValue
16.378

@<SCITEGIC>MOL_PROPERTY
Coulomb
SciTegic.value.DoubleValue
-8.448

@<SCITEGIC>MOL_PROPERTY
VdW
SciTegic.value.DoubleValue
2.976

@<SCITEGIC>MOL_PROPERTY
VdW6
SciTegic.value.DoubleValue
-12.570

@<SCITEGIC>MOL_PROPERTY
VdW12
SciTegic.value.DoubleValue
15.545

@<SCITEGIC>MOL_PROPERTY
Bond
SciTegic.value.DoubleValue
0.439

@<SCITEGIC>MOL_PROPERTY
Angle
SciTegic.value.DoubleValue
5.049

@<SCITEGIC>MOL_PROPERTY
Pdih
SciTegic.value.DoubleValue
10.889

@<SCITEGIC>MOL_PROPERTY
Idih
SciTegic.value.DoubleValue
0.000

@<SCITEGIC>MOL_PROPERTY
Tether
SciTegic.value.DoubleValue
0.000

@<TRIPOS>MOLECULE
guest-s17_confgen4.mol2 : confsearch ligand conformer 528
          25          25           1
SMALL
USER_CHARGES
 
@<TRIPOS>ATOM
       1    C1      19.385330   18.314404   21.354939 C.3        1 MOL1        -0.1684
       2    H1      18.794151   17.836697   20.561598 H          1 MOL1         0.0833
       3    H2      19.995729   17.501801   21.764686 H          1 MOL1         0.0833
       4    C2      18.403460   18.853294   22.427809 C.3        1 MOL1        -0.1684
       5    H3      18.166389   19.910362   22.251704 H          1 MOL1         0.0833
       6    H4      17.450503   18.321787   22.299806 H          1 MOL1         0.0833
       7    C3      18.853610   18.627443   23.895198 C.3        1 MOL1        -0.1684
       8    H5      19.036750   17.556716   24.059487 H          1 MOL1         0.0833
       9    H6      18.007784   18.884766   24.547223 H          1 MOL1         0.0833
      10    C4      20.085711   19.438167   24.378565 C.3        1 MOL1        -0.1760
      11    H7      19.911463   20.513294   24.252632 H          1 MOL1         0.0833
      12    H8      20.162286   19.286465   25.463763 H          1 MOL1         0.0833
      13    C5      21.429295   19.016886   23.729343 C.3        1 MOL1         0.1219
      14    H9      21.322676   18.008313   23.313086 H          1 MOL1         0.0790
      15    C6      21.940467   19.974087   22.624710 C.3        1 MOL1        -0.1760
      16    H10     22.368748   20.861127   23.110769 H          1 MOL1         0.0833
      17    H11     22.770434   19.488481   22.095504 H          1 MOL1         0.0833
      18    C7      20.904541   20.470371   21.583275 C.3        1 MOL1        -0.1684
      19    H12     21.416861   21.189255   20.929492 H          1 MOL1         0.0833
      20    H13     20.118047   21.055141   22.073952 H          1 MOL1         0.0833
      21    C8      20.279072   19.383299   20.673657 C.3        1 MOL1        -0.1684
      22    H14     21.075532   18.876799   20.111804 H          1 MOL1         0.0833
      23    H15     19.667757   19.899009   19.920435 H          1 MOL1         0.0833
      24    O1      22.425668   18.967116   24.744367 O.3        1 MOL1        -0.5508
      25    H16     23.250106   18.655836   24.315597 H          1 MOL1         0.3780
@<TRIPOS>BOND
    1     1     2    1
    2     1     3    1
    3     1     4    1
    4     4     5    1
    5     4     6    1
    6     4     7    1
    7     7     8    1
    8     7     9    1
    9     7    10    1
   10    10    11    1
   11    10    12    1
   12    10    13    1
   13    13    14    1
   14    13    15    1
   15    15    16    1
   16    15    17    1
   17    15    18    1
   18    18    19    1
   19    18    20    1
   20     1    21    1
   21    18    21    1
   22    21    22    1
   23    21    23    1
   24    13    24    1
   25    24    25    1
@<TRIPOS>SUBSTRUCTURE
       1 MOL1            1 RESIDUE      1      MOL     
@<SCITEGIC>MOL_PROPERTY
VConf Rank
SciTegic.value.IntegerValue
528

@<SCITEGIC>MOL_PROPERTY
Conf_Id
SciTegic.value.IntegerValue
95

@<SCITEGIC>MOL_PROPERTY
Delta U+W
SciTegic.value.DoubleValue
-2.190

@<SCITEGIC>MOL_PROPERTY
U+W
SciTegic.value.DoubleValue
8.723

@<SCITEGIC>MOL_PROPERTY
Grad RMS
SciTegic.value.DoubleValue
0.000000

@<SCITEGIC>MOL_PROPERTY
U
SciTegic.value.DoubleValue
10.905

@<SCITEGIC>MOL_PROPERTY
W
SciTegic.value.DoubleValue
-2.182

@<SCITEGIC>MOL_PROPERTY
W(PB)
SciTegic.value.DoubleValue
-4.296

@<SCITEGIC>MOL_PROPERTY
W(SA)
SciTegic.value.DoubleValue
2.114

@<SCITEGIC>MOL_PROPERTY
Valence
SciTegic.value.DoubleValue
16.377

@<SCITEGIC>MOL_PROPERTY
Coulomb
SciTegic.value.DoubleValue
-8.448

@<SCITEGIC>MOL_PROPERTY
VdW
SciTegic.value.DoubleValue
2.976

@<SCITEGIC>MOL_PROPERTY
VdW6
SciTegic.value.DoubleValue
-12.570

@<SCITEGIC>MOL_PROPERTY
VdW12
SciTegic.value.DoubleValue
15.546

@<SCITEGIC>MOL_PROPERTY
Bond
SciTegic.value.DoubleValue
0.439

@<SCITEGIC>MOL_PROPERTY
Angle
SciTegic.value.DoubleValue
5.049

@<SCITEGIC>MOL_PROPERTY
Pdih
SciTegic.value.DoubleValue
10.889

@<SCITEGIC>MOL_PROPERTY
Idih
SciTegic.value.DoubleValue
0.000

@<SCITEGIC>MOL_PROPERTY
Tether
SciTegic.value.DoubleValue
0.000

@<TRIPOS>MOLECULE
guest-s17_confgen4.mol2 : confsearch ligand conformer 529
          25          25           1
SMALL
USER_CHARGES
 
@<TRIPOS>ATOM
       1    C1      19.385311   18.941570   24.227445 C.3        1 MOL1        -0.1684
       2    H1      18.929738   18.861050   25.223875 H          1 MOL1         0.0833
       3    H2      18.875160   18.163022   23.651385 H          1 MOL1         0.0833
       4    C2      20.898402   18.612803   24.390804 C.3        1 MOL1        -0.1684
       5    H3      21.214477   19.001317   25.368605 H          1 MOL1         0.0833
       6    H4      21.021341   17.523270   24.456191 H          1 MOL1         0.0833
       7    C3      21.889257   19.178066   23.339529 C.3        1 MOL1        -0.1684
       8    H5      22.906578   18.946005   23.683076 H          1 MOL1         0.0833
       9    H6      21.855006   20.271844   23.362021 H          1 MOL1         0.0833
      10    C4      21.765887   18.648928   21.879627 C.3        1 MOL1        -0.1760
      11    H7      22.244576   19.366602   21.200530 H          1 MOL1         0.0833
      12    H8      22.369188   17.733800   21.817726 H          1 MOL1         0.0833
      13    C5      20.354090   18.305651   21.340476 C.3        1 MOL1         0.1219
      14    H9      19.910807   17.555683   22.003699 H          1 MOL1         0.0790
      15    C6      19.362022   19.490186   21.158077 C.3        1 MOL1        -0.1760
      16    H10     19.539758   19.930328   20.167623 H          1 MOL1         0.0833
      17    H11     18.343291   19.083798   21.121699 H          1 MOL1         0.0833
      18    C7      19.403386   20.655787   22.183105 C.3        1 MOL1        -0.1684
      19    H12     18.714611   21.434356   21.827956 H          1 MOL1         0.0833
      20    H13     20.383177   21.141702   22.138746 H          1 MOL1         0.0833
      21    C8      19.010798   20.334108   23.654806 C.3        1 MOL1        -0.1684
      22    H14     17.919014   20.428708   23.731795 H          1 MOL1         0.0833
      23    H15     19.418679   21.115611   24.310038 H          1 MOL1         0.0833
      24    O1      20.522582   17.695387   20.066191 O.3        1 MOL1        -0.5508
      25    H16     21.095944   16.912364   20.201054 H          1 MOL1         0.3780
@<TRIPOS>BOND
    1     1     2    1
    2     1     3    1
    3     1     4    1
    4     4     5    1
    5     4     6    1
    6     4     7    1
    7     7     8    1
    8     7     9    1
    9     7    10    1
   10    10    11    1
   11    10    12    1
   12    10    13    1
   13    13    14    1
   14    13    15    1
   15    15    16    1
   16    15    17    1
   17    15    18    1
   18    18    19    1
   19    18    20    1
   20     1    21    1
   21    18    21    1
   22    21    22    1
   23    21    23    1
   24    13    24    1
   25    24    25    1
@<TRIPOS>SUBSTRUCTURE
       1 MOL1            1 RESIDUE      1      MOL     
@<SCITEGIC>MOL_PROPERTY
VConf Rank
SciTegic.value.IntegerValue
529

@<SCITEGIC>MOL_PROPERTY
Conf_Id
SciTegic.value.IntegerValue
161

@<SCITEGIC>MOL_PROPERTY
Delta U+W
SciTegic.value.DoubleValue
2.120

@<SCITEGIC>MOL_PROPERTY
U+W
SciTegic.value.DoubleValue
13.033

@<SCITEGIC>MOL_PROPERTY
Grad RMS
SciTegic.value.DoubleValue
0.000000

@<SCITEGIC>MOL_PROPERTY
U
SciTegic.value.DoubleValue
15.076

@<SCITEGIC>MOL_PROPERTY
W
SciTegic.value.DoubleValue
-2.043

@<SCITEGIC>MOL_PROPERTY
W(PB)
SciTegic.value.DoubleValue
-4.186

@<SCITEGIC>MOL_PROPERTY
W(SA)
SciTegic.value.DoubleValue
2.143

@<SCITEGIC>MOL_PROPERTY
Valence
SciTegic.value.DoubleValue
18.884

@<SCITEGIC>MOL_PROPERTY
Coulomb
SciTegic.value.DoubleValue
-8.074

@<SCITEGIC>MOL_PROPERTY
VdW
SciTegic.value.DoubleValue
4.266

@<SCITEGIC>MOL_PROPERTY
VdW6
SciTegic.value.DoubleValue
-13.486

@<SCITEGIC>MOL_PROPERTY
VdW12
SciTegic.value.DoubleValue
17.752

@<SCITEGIC>MOL_PROPERTY
Bond
SciTegic.value.DoubleValue
0.713

@<SCITEGIC>MOL_PROPERTY
Angle
SciTegic.value.DoubleValue
8.955

@<SCITEGIC>MOL_PROPERTY
Pdih
SciTegic.value.DoubleValue
9.215

@<SCITEGIC>MOL_PROPERTY
Idih
SciTegic.value.DoubleValue
0.000

@<SCITEGIC>MOL_PROPERTY
Tether
SciTegic.value.DoubleValue
0.000

@<TRIPOS>MOLECULE
guest-s17_confgen4.mol2 : confsearch ligand conformer 530
          25          25           1
SMALL
USER_CHARGES
 
@<TRIPOS>ATOM
       1    C1      20.386862   21.007491   23.442177 C.3        1 MOL1        -0.1684
       2    H1      20.297162   21.889543   24.090964 H          1 MOL1         0.0833
       3    H2      20.712233   21.405623   22.472714 H          1 MOL1         0.0833
       4    C2      18.982221   20.368528   23.306578 C.3        1 MOL1        -0.1684
       5    H3      18.790942   19.667828   24.130362 H          1 MOL1         0.0833
       6    H4      18.250579   21.177597   23.438020 H          1 MOL1         0.0833
       7    C3      18.684262   19.712314   21.929648 C.3        1 MOL1        -0.1684
       8    H5      19.129619   20.291704   21.109740 H          1 MOL1         0.0833
       9    H6      17.598457   19.778439   21.775196 H          1 MOL1         0.0833
      10    C4      19.063207   18.213124   21.814304 C.3        1 MOL1        -0.1760
      11    H7      18.909403   17.715045   22.779306 H          1 MOL1         0.0833
      12    H8      18.344040   17.738869   21.133485 H          1 MOL1         0.0833
      13    C5      20.473074   17.904401   21.249686 C.3        1 MOL1         0.1219
      14    H9      20.472575   18.162725   20.181022 H          1 MOL1         0.0790
      15    C6      21.656356   18.652398   21.906367 C.3        1 MOL1        -0.1760
      16    H10     22.589682   18.176593   21.576828 H          1 MOL1         0.0833
      17    H11     21.707837   19.666709   21.496144 H          1 MOL1         0.0833
      18    C7      21.630640   18.682764   23.458027 C.3        1 MOL1        -0.1684
      19    H12     22.564656   18.244747   23.835497 H          1 MOL1         0.0833
      20    H13     20.837303   18.039201   23.854945 H          1 MOL1         0.0833
      21    C8      21.486056   20.101848   24.058006 C.3        1 MOL1        -0.1684
      22    H14     22.448858   20.622983   23.967232 H          1 MOL1         0.0833
      23    H15     21.300973   20.002174   25.136241 H          1 MOL1         0.0833
      24    O1      20.702520   16.508689   21.382759 O.3        1 MOL1        -0.5508
      25    H16     20.833426   16.348719   22.339358 H          1 MOL1         0.3780
@<TRIPOS>BOND
    1     1     2    1
    2     1     3    1
    3     1     4    1
    4     4     5    1
    5     4     6    1
    6     4     7    1
    7     7     8    1
    8     7     9    1
    9     7    10    1
   10    10    11    1
   11    10    12    1
   12    10    13    1
   13    13    14    1
   14    13    15    1
   15    15    16    1
   16    15    17    1
   17    15    18    1
   18    18    19    1
   19    18    20    1
   20     1    21    1
   21    18    21    1
   22    21    22    1
   23    21    23    1
   24    13    24    1
   25    24    25    1
@<TRIPOS>SUBSTRUCTURE
       1 MOL1            1 RESIDUE      1      MOL     
@<SCITEGIC>MOL_PROPERTY
VConf Rank
SciTegic.value.IntegerValue
530

@<SCITEGIC>MOL_PROPERTY
Conf_Id
SciTegic.value.IntegerValue
164

@<SCITEGIC>MOL_PROPERTY
Delta U+W
SciTegic.value.DoubleValue
0.008

@<SCITEGIC>MOL_PROPERTY
U+W
SciTegic.value.DoubleValue
10.922

@<SCITEGIC>MOL_PROPERTY
Grad RMS
SciTegic.value.DoubleValue
0.000000

@<SCITEGIC>MOL_PROPERTY
U
SciTegic.value.DoubleValue
12.433

@<SCITEGIC>MOL_PROPERTY
W
SciTegic.value.DoubleValue
-1.511

@<SCITEGIC>MOL_PROPERTY
W(PB)
SciTegic.value.DoubleValue
-3.669

@<SCITEGIC>MOL_PROPERTY
W(SA)
SciTegic.value.DoubleValue
2.157

@<SCITEGIC>MOL_PROPERTY
Valence
SciTegic.value.DoubleValue
19.007

@<SCITEGIC>MOL_PROPERTY
Coulomb
SciTegic.value.DoubleValue
-9.373

@<SCITEGIC>MOL_PROPERTY
VdW
SciTegic.value.DoubleValue
2.799

@<SCITEGIC>MOL_PROPERTY
VdW6
SciTegic.value.DoubleValue
-12.597

@<SCITEGIC>MOL_PROPERTY
VdW12
SciTegic.value.DoubleValue
15.396

@<SCITEGIC>MOL_PROPERTY
Bond
SciTegic.value.DoubleValue
0.425

@<SCITEGIC>MOL_PROPERTY
Angle
SciTegic.value.DoubleValue
4.784

@<SCITEGIC>MOL_PROPERTY
Pdih
SciTegic.value.DoubleValue
13.799

@<SCITEGIC>MOL_PROPERTY
Idih
SciTegic.value.DoubleValue
0.000

@<SCITEGIC>MOL_PROPERTY
Tether
SciTegic.value.DoubleValue
0.000

@<TRIPOS>MOLECULE
guest-s17_confgen4.mol2 : confsearch ligand conformer 531
          25          25           1
SMALL
USER_CHARGES
 
@<TRIPOS>ATOM
       1    C1      22.079012   19.573512   22.403880 C.3        1 MOL1        -0.1684
       2    H1      22.050298   18.596774   22.899946 H          1 MOL1         0.0833
       3    H2      23.148733   19.782904   22.267776 H          1 MOL1         0.0833
       4    C2      21.510915   20.671110   23.337830 C.3        1 MOL1        -0.1684
       5    H3      22.134088   20.688012   24.242414 H          1 MOL1         0.0833
       6    H4      21.645465   21.654033   22.866381 H          1 MOL1         0.0833
       7    C3      20.033407   20.524962   23.783223 C.3        1 MOL1        -0.1684
       8    H5      19.358989   20.922483   23.016281 H          1 MOL1         0.0833
       9    H6      19.888370   21.188266   24.646933 H          1 MOL1         0.0833
      10    C4      19.604238   19.091580   24.195543 C.3        1 MOL1        -0.1760
      11    H7      20.469438   18.500644   24.519584 H          1 MOL1         0.0833
      12    H8      18.967047   19.185141   25.085191 H          1 MOL1         0.0833
      13    C5      18.782187   18.325099   23.129141 C.3        1 MOL1         0.1219
      14    H9      17.932484   18.956561   22.832730 H          1 MOL1         0.0790
      15    C6      19.538473   17.899962   21.845487 C.3        1 MOL1        -0.1760
      16    H10     20.401503   17.269823   22.092233 H          1 MOL1         0.0833
      17    H11     18.860372   17.252424   21.273550 H          1 MOL1         0.0833
      18    C7      19.953132   19.070114   20.914045 C.3        1 MOL1        -0.1684
      19    H12     19.304695   19.938654   21.076006 H          1 MOL1         0.0833
      20    H13     19.754911   18.769195   19.876182 H          1 MOL1         0.0833
      21    C8      21.445316   19.482275   20.993269 C.3        1 MOL1        -0.1684
      22    H14     21.578502   20.440433   20.472980 H          1 MOL1         0.0833
      23    H15     22.027096   18.748930   20.418256 H          1 MOL1         0.0833
      24    O1      18.275534   17.146802   23.740793 O.3        1 MOL1        -0.5508
      25    H16     19.054437   16.609114   23.991769 H          1 MOL1         0.3780
@<TRIPOS>BOND
    1     1     2    1
    2     1     3    1
    3     1     4    1
    4     4     5    1
    5     4     6    1
    6     4     7    1
    7     7     8    1
    8     7     9    1
    9     7    10    1
   10    10    11    1
   11    10    12    1
   12    10    13    1
   13    13    14    1
   14    13    15    1
   15    15    16    1
   16    15    17    1
   17    15    18    1
   18    18    19    1
   19    18    20    1
   20     1    21    1
   21    18    21    1
   22    21    22    1
   23    21    23    1
   24    13    24    1
   25    24    25    1
@<TRIPOS>SUBSTRUCTURE
       1 MOL1            1 RESIDUE      1      MOL     
@<SCITEGIC>MOL_PROPERTY
VConf Rank
SciTegic.value.IntegerValue
531

@<SCITEGIC>MOL_PROPERTY
Conf_Id
SciTegic.value.IntegerValue
15

@<SCITEGIC>MOL_PROPERTY
Delta U+W
SciTegic.value.DoubleValue
-1.271

@<SCITEGIC>MOL_PROPERTY
U+W
SciTegic.value.DoubleValue
9.643

@<SCITEGIC>MOL_PROPERTY
Grad RMS
SciTegic.value.DoubleValue
0.000000

@<SCITEGIC>MOL_PROPERTY
U
SciTegic.value.DoubleValue
11.413

@<SCITEGIC>MOL_PROPERTY
W
SciTegic.value.DoubleValue
-1.770

@<SCITEGIC>MOL_PROPERTY
W(PB)
SciTegic.value.DoubleValue
-3.908

@<SCITEGIC>MOL_PROPERTY
W(SA)
SciTegic.value.DoubleValue
2.138

@<SCITEGIC>MOL_PROPERTY
Valence
SciTegic.value.DoubleValue
17.496

@<SCITEGIC>MOL_PROPERTY
Coulomb
SciTegic.value.DoubleValue
-8.736

@<SCITEGIC>MOL_PROPERTY
VdW
SciTegic.value.DoubleValue
2.653

@<SCITEGIC>MOL_PROPERTY
VdW6
SciTegic.value.DoubleValue
-12.485

@<SCITEGIC>MOL_PROPERTY
VdW12
SciTegic.value.DoubleValue
15.138

@<SCITEGIC>MOL_PROPERTY
Bond
SciTegic.value.DoubleValue
0.414

@<SCITEGIC>MOL_PROPERTY
Angle
SciTegic.value.DoubleValue
5.295

@<SCITEGIC>MOL_PROPERTY
Pdih
SciTegic.value.DoubleValue
11.787

@<SCITEGIC>MOL_PROPERTY
Idih
SciTegic.value.DoubleValue
0.000

@<SCITEGIC>MOL_PROPERTY
Tether
SciTegic.value.DoubleValue
0.000

@<TRIPOS>MOLECULE
guest-s17_confgen4.mol2 : confsearch ligand conformer 532
          25          25           1
SMALL
USER_CHARGES
 
@<TRIPOS>ATOM
       1    C1      18.922317   20.271033   23.401790 C.3        1 MOL1        -0.1684
       2    H1      18.010217   20.822873   23.667359 H          1 MOL1         0.0833
       3    H2      19.732032   20.806429   23.913529 H          1 MOL1         0.0833
       4    C2      18.767223   18.837424   23.974098 C.3        1 MOL1        -0.1684
       5    H3      18.772253   18.905735   25.070516 H          1 MOL1         0.0833
       6    H4      17.774610   18.452257   23.703651 H          1 MOL1         0.0833
       7    C3      19.826762   17.797214   23.537436 C.3        1 MOL1        -0.1684
       8    H5      19.594166   17.438288   22.528059 H          1 MOL1         0.0833
       9    H6      19.721543   16.912926   24.180670 H          1 MOL1         0.0833
      10    C4      21.289100   18.306379   23.625597 C.3        1 MOL1        -0.1760
      11    H7      21.336177   19.273768   24.137780 H          1 MOL1         0.0833
      12    H8      21.857435   17.619873   24.266613 H          1 MOL1         0.0833
      13    C5      22.022051   18.389499   22.266869 C.3        1 MOL1         0.1219
      14    H9      22.259992   17.362601   21.954308 H          1 MOL1         0.0790
      15    C6      21.245764   19.053051   21.100012 C.3        1 MOL1        -0.1760
      16    H10     21.958329   19.183883   20.274502 H          1 MOL1         0.0833
      17    H11     20.495178   18.357740   20.705453 H          1 MOL1         0.0833
      18    C7      20.586174   20.428551   21.386341 C.3        1 MOL1        -0.1684
      19    H12     20.587310   20.983381   20.438024 H          1 MOL1         0.0833
      20    H13     21.199430   21.027760   22.071671 H          1 MOL1         0.0833
      21    C8      19.110178   20.368288   21.867572 C.3        1 MOL1        -0.1684
      22    H14     18.557296   19.569633   21.355072 H          1 MOL1         0.0833
      23    H15     18.632499   21.304254   21.546690 H          1 MOL1         0.0833
      24    O1      23.237041   19.099772   22.461088 O.3        1 MOL1        -0.5508
      25    H16     22.979560   20.025936   22.642935 H          1 MOL1         0.3780
@<TRIPOS>BOND
    1     1     2    1
    2     1     3    1
    3     1     4    1
    4     4     5    1
    5     4     6    1
    6     4     7    1
    7     7     8    1
    8     7     9    1
    9     7    10    1
   10    10    11    1
   11    10    12    1
   12    10    13    1
   13    13    14    1
   14    13    15    1
   15    15    16    1
   16    15    17    1
   17    15    18    1
   18    18    19    1
   19    18    20    1
   20     1    21    1
   21    18    21    1
   22    21    22    1
   23    21    23    1
   24    13    24    1
   25    24    25    1
@<TRIPOS>SUBSTRUCTURE
       1 MOL1            1 RESIDUE      1      MOL     
@<SCITEGIC>MOL_PROPERTY
VConf Rank
SciTegic.value.IntegerValue
532

@<SCITEGIC>MOL_PROPERTY
Conf_Id
SciTegic.value.IntegerValue
115

@<SCITEGIC>MOL_PROPERTY
Delta U+W
SciTegic.value.DoubleValue
0.038

@<SCITEGIC>MOL_PROPERTY
U+W
SciTegic.value.DoubleValue
10.952

@<SCITEGIC>MOL_PROPERTY
Grad RMS
SciTegic.value.DoubleValue
0.000000

@<SCITEGIC>MOL_PROPERTY
U
SciTegic.value.DoubleValue
12.526

@<SCITEGIC>MOL_PROPERTY
W
SciTegic.value.DoubleValue
-1.575

@<SCITEGIC>MOL_PROPERTY
W(PB)
SciTegic.value.DoubleValue
-3.698

@<SCITEGIC>MOL_PROPERTY
W(SA)
SciTegic.value.DoubleValue
2.123

@<SCITEGIC>MOL_PROPERTY
Valence
SciTegic.value.DoubleValue
19.016

@<SCITEGIC>MOL_PROPERTY
Coulomb
SciTegic.value.DoubleValue
-9.226

@<SCITEGIC>MOL_PROPERTY
VdW
SciTegic.value.DoubleValue
2.737

@<SCITEGIC>MOL_PROPERTY
VdW6
SciTegic.value.DoubleValue
-12.612

@<SCITEGIC>MOL_PROPERTY
VdW12
SciTegic.value.DoubleValue
15.349

@<SCITEGIC>MOL_PROPERTY
Bond
SciTegic.value.DoubleValue
0.421

@<SCITEGIC>MOL_PROPERTY
Angle
SciTegic.value.DoubleValue
4.883

@<SCITEGIC>MOL_PROPERTY
Pdih
SciTegic.value.DoubleValue
13.711

@<SCITEGIC>MOL_PROPERTY
Idih
SciTegic.value.DoubleValue
0.000

@<SCITEGIC>MOL_PROPERTY
Tether
SciTegic.value.DoubleValue
0.000

@<TRIPOS>MOLECULE
guest-s17_confgen4.mol2 : confsearch ligand conformer 533
          25          25           1
SMALL
USER_CHARGES
 
@<TRIPOS>ATOM
       1    C1      21.677572   18.898026   24.286189 C.3        1 MOL1        -0.1684
       2    H1      22.101482   18.292953   25.099315 H          1 MOL1         0.0833
       3    H2      22.376348   19.733896   24.146518 H          1 MOL1         0.0833
       4    C2      20.307629   19.426561   24.771413 C.3        1 MOL1        -0.1684
       5    H3      19.648501   18.586123   25.027942 H          1 MOL1         0.0833
       6    H4      20.478538   19.965503   25.713396 H          1 MOL1         0.0833
       7    C3      19.591168   20.388769   23.795845 C.3        1 MOL1        -0.1684
       8    H5      20.311159   21.091738   23.356042 H          1 MOL1         0.0833
       9    H6      18.904999   21.008078   24.389807 H          1 MOL1         0.0833
      10    C4      18.749421   19.679100   22.701417 C.3        1 MOL1        -0.1760
      11    H7      18.605108   18.616945   22.935530 H          1 MOL1         0.0833
      12    H8      17.744530   20.122155   22.722756 H          1 MOL1         0.0833
      13    C5      19.305237   19.833147   21.267788 C.3        1 MOL1         0.1219
      14    H9      19.744237   20.835542   21.162169 H          1 MOL1         0.0790
      15    C6      20.361136   18.778275   20.869345 C.3        1 MOL1        -0.1760
      16    H10     19.920401   17.773429   20.909695 H          1 MOL1         0.0833
      17    H11     20.618729   18.949300   19.815871 H          1 MOL1         0.0833
      18    C7      21.677399   18.815601   21.683426 C.3        1 MOL1        -0.1684
      19    H12     21.996368   19.853510   21.847845 H          1 MOL1         0.0833
      20    H13     22.461209   18.366382   21.058067 H          1 MOL1         0.0833
      21    C8      21.633302   18.019449   23.013915 C.3        1 MOL1        -0.1684
      22    H14     22.517961   17.368231   23.036201 H          1 MOL1         0.0833
      23    H15     20.771747   17.339436   23.047574 H          1 MOL1         0.0833
      24    O1      18.217562   19.713397   20.358792 O.3        1 MOL1        -0.5508
      25    H16     18.580099   19.867211   19.461439 H          1 MOL1         0.3780
@<TRIPOS>BOND
    1     1     2    1
    2     1     3    1
    3     1     4    1
    4     4     5    1
    5     4     6    1
    6     4     7    1
    7     7     8    1
    8     7     9    1
    9     7    10    1
   10    10    11    1
   11    10    12    1
   12    10    13    1
   13    13    14    1
   14    13    15    1
   15    15    16    1
   16    15    17    1
   17    15    18    1
   18    18    19    1
   19    18    20    1
   20     1    21    1
   21    18    21    1
   22    21    22    1
   23    21    23    1
   24    13    24    1
   25    24    25    1
@<TRIPOS>SUBSTRUCTURE
       1 MOL1            1 RESIDUE      1      MOL     
@<SCITEGIC>MOL_PROPERTY
VConf Rank
SciTegic.value.IntegerValue
533

@<SCITEGIC>MOL_PROPERTY
Conf_Id
SciTegic.value.IntegerValue
30

@<SCITEGIC>MOL_PROPERTY
Delta U+W
SciTegic.value.DoubleValue
0.000

@<SCITEGIC>MOL_PROPERTY
U+W
SciTegic.value.DoubleValue
10.913

@<SCITEGIC>MOL_PROPERTY
Grad RMS
SciTegic.value.DoubleValue
0.000000

@<SCITEGIC>MOL_PROPERTY
U
SciTegic.value.DoubleValue
13.140

@<SCITEGIC>MOL_PROPERTY
W
SciTegic.value.DoubleValue
-2.227

@<SCITEGIC>MOL_PROPERTY
W(PB)
SciTegic.value.DoubleValue
-4.367

@<SCITEGIC>MOL_PROPERTY
W(SA)
SciTegic.value.DoubleValue
2.140

@<SCITEGIC>MOL_PROPERTY
Valence
SciTegic.value.DoubleValue
19.155

@<SCITEGIC>MOL_PROPERTY
Coulomb
SciTegic.value.DoubleValue
-8.157

@<SCITEGIC>MOL_PROPERTY
VdW
SciTegic.value.DoubleValue
2.142

@<SCITEGIC>MOL_PROPERTY
VdW6
SciTegic.value.DoubleValue
-11.576

@<SCITEGIC>MOL_PROPERTY
VdW12
SciTegic.value.DoubleValue
13.718

@<SCITEGIC>MOL_PROPERTY
Bond
SciTegic.value.DoubleValue
0.294

@<SCITEGIC>MOL_PROPERTY
Angle
SciTegic.value.DoubleValue
3.547

@<SCITEGIC>MOL_PROPERTY
Pdih
SciTegic.value.DoubleValue
15.314

@<SCITEGIC>MOL_PROPERTY
Idih
SciTegic.value.DoubleValue
0.000

@<SCITEGIC>MOL_PROPERTY
Tether
SciTegic.value.DoubleValue
0.000

@<TRIPOS>MOLECULE
guest-s17_confgen4.mol2 : confsearch ligand conformer 534
          25          25           1
SMALL
USER_CHARGES
 
@<TRIPOS>ATOM
       1    C1      18.530332   20.227546   23.348886 C.3        1 MOL1        -0.1684
       2    H1      18.110559   21.227851   23.175576 H          1 MOL1         0.0833
       3    H2      17.861244   19.746809   24.075512 H          1 MOL1         0.0833
       4    C2      19.924132   20.386734   24.004680 C.3        1 MOL1        -0.1684
       5    H3      19.845703   21.158136   24.782920 H          1 MOL1         0.0833
       6    H4      20.182091   19.470507   24.548317 H          1 MOL1         0.0833
       7    C3      21.052593   20.788851   23.021482 C.3        1 MOL1        -0.1684
       8    H5      21.529719   21.707612   23.388788 H          1 MOL1         0.0833
       9    H6      20.642760   21.059236   22.041397 H          1 MOL1         0.0833
      10    C4      22.153626   19.712138   22.848365 C.3        1 MOL1        -0.1760
      11    H7      22.793943   20.003505   22.005240 H          1 MOL1         0.0833
      12    H8      22.798664   19.729130   23.736512 H          1 MOL1         0.0833
      13    C5      21.678370   18.252255   22.640875 C.3        1 MOL1         0.1219
      14    H9      21.261707   17.870439   23.582466 H          1 MOL1         0.0790
      15    C6      20.628810   18.055591   21.519696 C.3        1 MOL1        -0.1760
      16    H10     20.781450   18.792495   20.720806 H          1 MOL1         0.0833
      17    H11     20.808699   17.078720   21.051339 H          1 MOL1         0.0833
      18    C7      19.149613   18.055928   21.998993 C.3        1 MOL1        -0.1684
      19    H12     19.047564   17.562560   22.975002 H          1 MOL1         0.0833
      20    H13     18.586190   17.428098   21.294988 H          1 MOL1         0.0833
      21    C8      18.463517   19.444430   22.010678 C.3        1 MOL1        -0.1684
      22    H14     17.399567   19.296733   21.779890 H          1 MOL1         0.0833
      23    H15     18.845187   20.058008   21.184737 H          1 MOL1         0.0833
      24    O1      22.828145   17.477791   22.320813 O.3        1 MOL1        -0.5508
      25    H16     22.534450   16.544198   22.269818 H          1 MOL1         0.3780
@<TRIPOS>BOND
    1     1     2    1
    2     1     3    1
    3     1     4    1
    4     4     5    1
    5     4     6    1
    6     4     7    1
    7     7     8    1
    8     7     9    1
    9     7    10    1
   10    10    11    1
   11    10    12    1
   12    10    13    1
   13    13    14    1
   14    13    15    1
   15    15    16    1
   16    15    17    1
   17    15    18    1
   18    18    19    1
   19    18    20    1
   20     1    21    1
   21    18    21    1
   22    21    22    1
   23    21    23    1
   24    13    24    1
   25    24    25    1
@<TRIPOS>SUBSTRUCTURE
       1 MOL1            1 RESIDUE      1      MOL     
@<SCITEGIC>MOL_PROPERTY
VConf Rank
SciTegic.value.IntegerValue
534

@<SCITEGIC>MOL_PROPERTY
Conf_Id
SciTegic.value.IntegerValue
162

@<SCITEGIC>MOL_PROPERTY
Delta U+W
SciTegic.value.DoubleValue
0.219

@<SCITEGIC>MOL_PROPERTY
U+W
SciTegic.value.DoubleValue
11.132

@<SCITEGIC>MOL_PROPERTY
Grad RMS
SciTegic.value.DoubleValue
0.000000

@<SCITEGIC>MOL_PROPERTY
U
SciTegic.value.DoubleValue
13.296

@<SCITEGIC>MOL_PROPERTY
W
SciTegic.value.DoubleValue
-2.164

@<SCITEGIC>MOL_PROPERTY
W(PB)
SciTegic.value.DoubleValue
-4.311

@<SCITEGIC>MOL_PROPERTY
W(SA)
SciTegic.value.DoubleValue
2.148

@<SCITEGIC>MOL_PROPERTY
Valence
SciTegic.value.DoubleValue
18.607

@<SCITEGIC>MOL_PROPERTY
Coulomb
SciTegic.value.DoubleValue
-8.339

@<SCITEGIC>MOL_PROPERTY
VdW
SciTegic.value.DoubleValue
3.028

@<SCITEGIC>MOL_PROPERTY
VdW6
SciTegic.value.DoubleValue
-12.271

@<SCITEGIC>MOL_PROPERTY
VdW12
SciTegic.value.DoubleValue
15.299

@<SCITEGIC>MOL_PROPERTY
Bond
SciTegic.value.DoubleValue
0.423

@<SCITEGIC>MOL_PROPERTY
Angle
SciTegic.value.DoubleValue
4.488

@<SCITEGIC>MOL_PROPERTY
Pdih
SciTegic.value.DoubleValue
13.696

@<SCITEGIC>MOL_PROPERTY
Idih
SciTegic.value.DoubleValue
0.000

@<SCITEGIC>MOL_PROPERTY
Tether
SciTegic.value.DoubleValue
0.000

@<TRIPOS>MOLECULE
guest-s17_confgen4.mol2 : confsearch ligand conformer 535
          25          25           1
SMALL
USER_CHARGES
 
@<TRIPOS>ATOM
       1    C1      20.616509   21.162616   22.204886 C.3        1 MOL1        -0.1684
       2    H1      20.307378   21.404573   23.229625 H          1 MOL1         0.0833
       3    H2      20.866302   22.131834   21.751909 H          1 MOL1         0.0833
       4    C2      21.903618   20.300994   22.230550 C.3        1 MOL1        -0.1684
       5    H3      22.029853   19.760484   21.282844 H          1 MOL1         0.0833
       6    H4      22.751891   20.997276   22.283108 H          1 MOL1         0.0833
       7    C3      22.033389   19.341141   23.446035 C.3        1 MOL1        -0.1684
       8    H5      21.634369   19.801641   24.359757 H          1 MOL1         0.0833
       9    H6      23.108047   19.209457   23.632852 H          1 MOL1         0.0833
      10    C4      21.437864   17.924541   23.236793 C.3        1 MOL1        -0.1760
      11    H7      21.560206   17.617878   22.190712 H          1 MOL1         0.0833
      12    H8      22.047977   17.216024   23.812103 H          1 MOL1         0.0833
      13    C5      19.972353   17.719395   23.696702 C.3        1 MOL1         0.1219
      14    H9      19.958347   17.741794   24.795972 H          1 MOL1         0.0790
      15    C6      18.946213   18.766645   23.202377 C.3        1 MOL1        -0.1760
      16    H10     17.936000   18.393899   23.415757 H          1 MOL1         0.0833
      17    H11     19.037897   19.670533   23.814061 H          1 MOL1         0.0833
      18    C7      19.042702   19.108375   21.691951 C.3        1 MOL1        -0.1684
      19    H12     18.071245   18.905717   21.221250 H          1 MOL1         0.0833
      20    H13     19.744656   18.437426   21.182835 H          1 MOL1         0.0833
      21    C8      19.426378   20.578829   21.398115 C.3        1 MOL1        -0.1684
      22    H14     18.548345   21.214337   21.576793 H          1 MOL1         0.0833
      23    H15     19.646555   20.668527   20.325647 H          1 MOL1         0.0833
      24    O1      19.554689   16.432723   23.256096 O.3        1 MOL1        -0.5508
      25    H16     18.627928   16.320661   23.552193 H          1 MOL1         0.3780
@<TRIPOS>BOND
    1     1     2    1
    2     1     3    1
    3     1     4    1
    4     4     5    1
    5     4     6    1
    6     4     7    1
    7     7     8    1
    8     7     9    1
    9     7    10    1
   10    10    11    1
   11    10    12    1
   12    10    13    1
   13    13    14    1
   14    13    15    1
   15    15    16    1
   16    15    17    1
   17    15    18    1
   18    18    19    1
   19    18    20    1
   20     1    21    1
   21    18    21    1
   22    21    22    1
   23    21    23    1
   24    13    24    1
   25    24    25    1
@<TRIPOS>SUBSTRUCTURE
       1 MOL1            1 RESIDUE      1      MOL     
@<SCITEGIC>MOL_PROPERTY
VConf Rank
SciTegic.value.IntegerValue
535

@<SCITEGIC>MOL_PROPERTY
Conf_Id
SciTegic.value.IntegerValue
155

@<SCITEGIC>MOL_PROPERTY
Delta U+W
SciTegic.value.DoubleValue
0.339

@<SCITEGIC>MOL_PROPERTY
U+W
SciTegic.value.DoubleValue
11.252

@<SCITEGIC>MOL_PROPERTY
Grad RMS
SciTegic.value.DoubleValue
0.000000

@<SCITEGIC>MOL_PROPERTY
U
SciTegic.value.DoubleValue
13.420

@<SCITEGIC>MOL_PROPERTY
W
SciTegic.value.DoubleValue
-2.167

@<SCITEGIC>MOL_PROPERTY
W(PB)
SciTegic.value.DoubleValue
-4.325

@<SCITEGIC>MOL_PROPERTY
W(SA)
SciTegic.value.DoubleValue
2.157

@<SCITEGIC>MOL_PROPERTY
Valence
SciTegic.value.DoubleValue
18.609

@<SCITEGIC>MOL_PROPERTY
Coulomb
SciTegic.value.DoubleValue
-8.052

@<SCITEGIC>MOL_PROPERTY
VdW
SciTegic.value.DoubleValue
2.863

@<SCITEGIC>MOL_PROPERTY
VdW6
SciTegic.value.DoubleValue
-12.524

@<SCITEGIC>MOL_PROPERTY
VdW12
SciTegic.value.DoubleValue
15.387

@<SCITEGIC>MOL_PROPERTY
Bond
SciTegic.value.DoubleValue
0.430

@<SCITEGIC>MOL_PROPERTY
Angle
SciTegic.value.DoubleValue
4.724

@<SCITEGIC>MOL_PROPERTY
Pdih
SciTegic.value.DoubleValue
13.455

@<SCITEGIC>MOL_PROPERTY
Idih
SciTegic.value.DoubleValue
0.000

@<SCITEGIC>MOL_PROPERTY
Tether
SciTegic.value.DoubleValue
0.000

@<TRIPOS>MOLECULE
guest-s17_confgen4.mol2 : confsearch ligand conformer 536
          25          25           1
SMALL
USER_CHARGES
 
@<TRIPOS>ATOM
       1    C1      20.267275   17.543323   21.576715 C.3        1 MOL1        -0.1684
       2    H1      21.151602   17.364729   20.950290 H          1 MOL1         0.0833
       3    H2      19.602065   16.688441   21.393803 H          1 MOL1         0.0833
       4    C2      20.678937   17.482472   23.071255 C.3        1 MOL1        -0.1684
       5    H3      19.782198   17.543237   23.696001 H          1 MOL1         0.0833
       6    H4      21.061743   16.472010   23.269098 H          1 MOL1         0.0833
       7    C3      21.763591   18.486061   23.560694 C.3        1 MOL1        -0.1684
       8    H5      22.744335   18.031594   23.365367 H          1 MOL1         0.0833
       9    H6      21.695387   18.579221   24.653117 H          1 MOL1         0.0833
      10    C4      21.787255   19.905020   22.929901 C.3        1 MOL1        -0.1760
      11    H7      22.693358   20.409171   23.290605 H          1 MOL1         0.0833
      12    H8      21.963625   19.817175   21.854294 H          1 MOL1         0.0833
      13    C5      20.577505   20.846167   23.203859 C.3        1 MOL1         0.1219
      14    H9      20.541046   21.589042   22.394182 H          1 MOL1         0.0790
      15    C6      19.174269   20.199682   23.320161 C.3        1 MOL1        -0.1760
      16    H10     19.171249   19.501634   24.162325 H          1 MOL1         0.0833
      17    H11     18.473985   20.985486   23.632795 H          1 MOL1         0.0833
      18    C7      18.570565   19.534712   22.046717 C.3        1 MOL1        -0.1684
      19    H12     18.058936   20.321708   21.476005 H          1 MOL1         0.0833
      20    H13     17.781226   18.834689   22.352057 H          1 MOL1         0.0833
      21    C8      19.535705   18.818989   21.065425 C.3        1 MOL1        -0.1684
      22    H14     20.251209   19.544362   20.665593 H          1 MOL1         0.0833
      23    H15     18.951516   18.523095   20.183354 H          1 MOL1         0.0833
      24    O1      20.822919   21.525983   24.430156 O.3        1 MOL1        -0.5508
      25    H16     21.687225   21.976869   24.335716 H          1 MOL1         0.3780
@<TRIPOS>BOND
    1     1     2    1
    2     1     3    1
    3     1     4    1
    4     4     5    1
    5     4     6    1
    6     4     7    1
    7     7     8    1
    8     7     9    1
    9     7    10    1
   10    10    11    1
   11    10    12    1
   12    10    13    1
   13    13    14    1
   14    13    15    1
   15    15    16    1
   16    15    17    1
   17    15    18    1
   18    18    19    1
   19    18    20    1
   20     1    21    1
   21    18    21    1
   22    21    22    1
   23    21    23    1
   24    13    24    1
   25    24    25    1
@<TRIPOS>SUBSTRUCTURE
       1 MOL1            1 RESIDUE      1      MOL     
@<SCITEGIC>MOL_PROPERTY
VConf Rank
SciTegic.value.IntegerValue
536

@<SCITEGIC>MOL_PROPERTY
Conf_Id
SciTegic.value.IntegerValue
146

@<SCITEGIC>MOL_PROPERTY
Delta U+W
SciTegic.value.DoubleValue
2.553

@<SCITEGIC>MOL_PROPERTY
U+W
SciTegic.value.DoubleValue
13.466

@<SCITEGIC>MOL_PROPERTY
Grad RMS
SciTegic.value.DoubleValue
0.000000

@<SCITEGIC>MOL_PROPERTY
U
SciTegic.value.DoubleValue
15.643

@<SCITEGIC>MOL_PROPERTY
W
SciTegic.value.DoubleValue
-2.176

@<SCITEGIC>MOL_PROPERTY
W(PB)
SciTegic.value.DoubleValue
-4.307

@<SCITEGIC>MOL_PROPERTY
W(SA)
SciTegic.value.DoubleValue
2.131

@<SCITEGIC>MOL_PROPERTY
Valence
SciTegic.value.DoubleValue
18.916

@<SCITEGIC>MOL_PROPERTY
Coulomb
SciTegic.value.DoubleValue
-7.506

@<SCITEGIC>MOL_PROPERTY
VdW
SciTegic.value.DoubleValue
4.232

@<SCITEGIC>MOL_PROPERTY
VdW6
SciTegic.value.DoubleValue
-13.632

@<SCITEGIC>MOL_PROPERTY
VdW12
SciTegic.value.DoubleValue
17.864

@<SCITEGIC>MOL_PROPERTY
Bond
SciTegic.value.DoubleValue
0.735

@<SCITEGIC>MOL_PROPERTY
Angle
SciTegic.value.DoubleValue
9.140

@<SCITEGIC>MOL_PROPERTY
Pdih
SciTegic.value.DoubleValue
9.042

@<SCITEGIC>MOL_PROPERTY
Idih
SciTegic.value.DoubleValue
0.000

@<SCITEGIC>MOL_PROPERTY
Tether
SciTegic.value.DoubleValue
0.000

@<TRIPOS>MOLECULE
guest-s17_confgen4.mol2 : confsearch ligand conformer 537
          25          25           1
SMALL
USER_CHARGES
 
@<TRIPOS>ATOM
       1    C1      19.394432   20.765939   23.734476 C.3        1 MOL1        -0.1684
       2    H1      18.304518   20.901321   23.750726 H          1 MOL1         0.0833
       3    H2      19.801623   21.565330   24.368576 H          1 MOL1         0.0833
       4    C2      19.917970   21.004873   22.296089 C.3        1 MOL1        -0.1684
       5    H3      19.662316   22.037969   22.023774 H          1 MOL1         0.0833
       6    H4      21.013509   20.978805   22.279933 H          1 MOL1         0.0833
       7    C3      19.335722   20.082278   21.196003 C.3        1 MOL1        -0.1684
       8    H5      19.707514   20.446190   20.228367 H          1 MOL1         0.0833
       9    H6      18.244617   20.203373   21.160387 H          1 MOL1         0.0833
      10    C4      19.671680   18.571318   21.295172 C.3        1 MOL1        -0.1760
      11    H7      18.999295   18.077931   22.004070 H          1 MOL1         0.0833
      12    H8      19.424304   18.121360   20.324154 H          1 MOL1         0.0833
      13    C5      21.147489   18.246519   21.642403 C.3        1 MOL1         0.1219
      14    H9      21.779482   19.114998   21.413114 H          1 MOL1         0.0790
      15    C6      21.373364   17.822147   23.115717 C.3        1 MOL1        -0.1760
      16    H10     20.716108   16.974743   23.351599 H          1 MOL1         0.0833
      17    H11     22.397521   17.436633   23.204170 H          1 MOL1         0.0833
      18    C7      21.199778   18.922554   24.197648 C.3        1 MOL1        -0.1684
      19    H12     21.875416   19.766397   24.007276 H          1 MOL1         0.0833
      20    H13     21.540044   18.492436   25.149593 H          1 MOL1         0.0833
      21    C8      19.742099   19.410269   24.402082 C.3        1 MOL1        -0.1684
      22    H14     19.569701   19.528646   25.480647 H          1 MOL1         0.0833
      23    H15     19.030398   18.635207   24.096167 H          1 MOL1         0.0833
      24    O1      21.566571   17.162597   20.820922 O.3        1 MOL1        -0.5508
      25    H16     22.515624   17.012065   21.012911 H          1 MOL1         0.3780
@<TRIPOS>BOND
    1     1     2    1
    2     1     3    1
    3     1     4    1
    4     4     5    1
    5     4     6    1
    6     4     7    1
    7     7     8    1
    8     7     9    1
    9     7    10    1
   10    10    11    1
   11    10    12    1
   12    10    13    1
   13    13    14    1
   14    13    15    1
   15    15    16    1
   16    15    17    1
   17    15    18    1
   18    18    19    1
   19    18    20    1
   20     1    21    1
   21    18    21    1
   22    21    22    1
   23    21    23    1
   24    13    24    1
   25    24    25    1
@<TRIPOS>SUBSTRUCTURE
       1 MOL1            1 RESIDUE      1      MOL     
@<SCITEGIC>MOL_PROPERTY
VConf Rank
SciTegic.value.IntegerValue
537

@<SCITEGIC>MOL_PROPERTY
Conf_Id
SciTegic.value.IntegerValue
62

@<SCITEGIC>MOL_PROPERTY
Delta U+W
SciTegic.value.DoubleValue
-1.779

@<SCITEGIC>MOL_PROPERTY
U+W
SciTegic.value.DoubleValue
9.134

@<SCITEGIC>MOL_PROPERTY
Grad RMS
SciTegic.value.DoubleValue
0.000000

@<SCITEGIC>MOL_PROPERTY
U
SciTegic.value.DoubleValue
11.364

@<SCITEGIC>MOL_PROPERTY
W
SciTegic.value.DoubleValue
-2.230

@<SCITEGIC>MOL_PROPERTY
W(PB)
SciTegic.value.DoubleValue
-4.359

@<SCITEGIC>MOL_PROPERTY
W(SA)
SciTegic.value.DoubleValue
2.129

@<SCITEGIC>MOL_PROPERTY
Valence
SciTegic.value.DoubleValue
16.582

@<SCITEGIC>MOL_PROPERTY
Coulomb
SciTegic.value.DoubleValue
-8.150

@<SCITEGIC>MOL_PROPERTY
VdW
SciTegic.value.DoubleValue
2.933

@<SCITEGIC>MOL_PROPERTY
VdW6
SciTegic.value.DoubleValue
-12.531

@<SCITEGIC>MOL_PROPERTY
VdW12
SciTegic.value.DoubleValue
15.464

@<SCITEGIC>MOL_PROPERTY
Bond
SciTegic.value.DoubleValue
0.439

@<SCITEGIC>MOL_PROPERTY
Angle
SciTegic.value.DoubleValue
5.099

@<SCITEGIC>MOL_PROPERTY
Pdih
SciTegic.value.DoubleValue
11.044

@<SCITEGIC>MOL_PROPERTY
Idih
SciTegic.value.DoubleValue
0.000

@<SCITEGIC>MOL_PROPERTY
Tether
SciTegic.value.DoubleValue
0.000

@<TRIPOS>MOLECULE
guest-s17_confgen4.mol2 : confsearch ligand conformer 538
          25          25           1
SMALL
USER_CHARGES
 
@<TRIPOS>ATOM
       1    C1      18.776477   18.861314   23.587683 C.3        1 MOL1        -0.1684
       2    H1      18.808945   19.953081   23.497597 H          1 MOL1         0.0833
       3    H2      17.851639   18.657183   24.144141 H          1 MOL1         0.0833
       4    C2      19.956299   18.355519   24.454774 C.3        1 MOL1        -0.1684
       5    H3      19.859260   18.820334   25.445440 H          1 MOL1         0.0833
       6    H4      19.846996   17.275377   24.621634 H          1 MOL1         0.0833
       7    C3      21.388417   18.641854   23.935382 C.3        1 MOL1        -0.1684
       8    H5      21.689495   17.886355   23.200829 H          1 MOL1         0.0833
       9    H6      22.074858   18.492269   24.780041 H          1 MOL1         0.0833
      10    C4      21.616376   20.070278   23.372397 C.3        1 MOL1        -0.1760
      11    H7      20.894140   20.780330   23.793650 H          1 MOL1         0.0833
      12    H8      22.597214   20.407740   23.732146 H          1 MOL1         0.0833
      13    C5      21.633904   20.167001   21.825875 C.3        1 MOL1         0.1219
      14    H9      22.361692   19.437055   21.443143 H          1 MOL1         0.0790
      15    C6      20.284221   19.923958   21.105322 C.3        1 MOL1        -0.1760
      16    H10     19.525592   20.631649   21.460910 H          1 MOL1         0.0833
      17    H11     20.437413   20.173370   20.046957 H          1 MOL1         0.0833
      18    C7      19.761488   18.463610   21.166184 C.3        1 MOL1        -0.1684
      19    H12     20.590410   17.765250   21.327823 H          1 MOL1         0.0833
      20    H13     19.368540   18.198636   20.175059 H          1 MOL1         0.0833
      21    C8      18.626667   18.208459   22.190881 C.3        1 MOL1        -0.1684
      22    H14     18.490109   17.125031   22.309281 H          1 MOL1         0.0833
      23    H15     17.689870   18.579763   21.753360 H          1 MOL1         0.0833
      24    O1      22.073758   21.474493   21.480305 O.3        1 MOL1        -0.5508
      25    H16     22.958414   21.591822   21.884986 H          1 MOL1         0.3780
@<TRIPOS>BOND
    1     1     2    1
    2     1     3    1
    3     1     4    1
    4     4     5    1
    5     4     6    1
    6     4     7    1
    7     7     8    1
    8     7     9    1
    9     7    10    1
   10    10    11    1
   11    10    12    1
   12    10    13    1
   13    13    14    1
   14    13    15    1
   15    15    16    1
   16    15    17    1
   17    15    18    1
   18    18    19    1
   19    18    20    1
   20     1    21    1
   21    18    21    1
   22    21    22    1
   23    21    23    1
   24    13    24    1
   25    24    25    1
@<TRIPOS>SUBSTRUCTURE
       1 MOL1            1 RESIDUE      1      MOL     
@<SCITEGIC>MOL_PROPERTY
VConf Rank
SciTegic.value.IntegerValue
538

@<SCITEGIC>MOL_PROPERTY
Conf_Id
SciTegic.value.IntegerValue
121

@<SCITEGIC>MOL_PROPERTY
Delta U+W
SciTegic.value.DoubleValue
-1.283

@<SCITEGIC>MOL_PROPERTY
U+W
SciTegic.value.DoubleValue
9.630

@<SCITEGIC>MOL_PROPERTY
Grad RMS
SciTegic.value.DoubleValue
0.000000

@<SCITEGIC>MOL_PROPERTY
U
SciTegic.value.DoubleValue
11.876

@<SCITEGIC>MOL_PROPERTY
W
SciTegic.value.DoubleValue
-2.246

@<SCITEGIC>MOL_PROPERTY
W(PB)
SciTegic.value.DoubleValue
-4.376

@<SCITEGIC>MOL_PROPERTY
W(SA)
SciTegic.value.DoubleValue
2.130

@<SCITEGIC>MOL_PROPERTY
Valence
SciTegic.value.DoubleValue
17.153

@<SCITEGIC>MOL_PROPERTY
Coulomb
SciTegic.value.DoubleValue
-7.966

@<SCITEGIC>MOL_PROPERTY
VdW
SciTegic.value.DoubleValue
2.689

@<SCITEGIC>MOL_PROPERTY
VdW6
SciTegic.value.DoubleValue
-12.458

@<SCITEGIC>MOL_PROPERTY
VdW12
SciTegic.value.DoubleValue
15.147

@<SCITEGIC>MOL_PROPERTY
Bond
SciTegic.value.DoubleValue
0.421

@<SCITEGIC>MOL_PROPERTY
Angle
SciTegic.value.DoubleValue
5.258

@<SCITEGIC>MOL_PROPERTY
Pdih
SciTegic.value.DoubleValue
11.475

@<SCITEGIC>MOL_PROPERTY
Idih
SciTegic.value.DoubleValue
0.000

@<SCITEGIC>MOL_PROPERTY
Tether
SciTegic.value.DoubleValue
0.000

@<TRIPOS>MOLECULE
guest-s17_confgen4.mol2 : confsearch ligand conformer 539
          25          25           1
SMALL
USER_CHARGES
 
@<TRIPOS>ATOM
       1    C1      22.086530   19.912604   22.531999 C.3        1 MOL1        -0.1684
       2    H1      22.016941   19.548690   23.563429 H          1 MOL1         0.0833
       3    H2      23.116513   20.282727   22.438292 H          1 MOL1         0.0833
       4    C2      21.141964   21.122198   22.321288 C.3        1 MOL1        -0.1684
       5    H3      21.454188   21.908876   23.021671 H          1 MOL1         0.0833
       6    H4      21.302626   21.537707   21.317284 H          1 MOL1         0.0833
       7    C3      19.625123   20.878806   22.528361 C.3        1 MOL1        -0.1684
       8    H5      19.175527   20.457462   21.622117 H          1 MOL1         0.0833
       9    H6      19.150994   21.863798   22.637628 H          1 MOL1         0.0833
      10    C4      19.254013   20.022430   23.768712 C.3        1 MOL1        -0.1760
      11    H7      20.039383   20.070200   24.532716 H          1 MOL1         0.0833
      12    H8      18.371932   20.483076   24.232982 H          1 MOL1         0.0833
      13    C5      18.884437   18.549798   23.461007 C.3        1 MOL1         0.1219
      14    H9      18.099309   18.548388   22.691233 H          1 MOL1         0.0790
      15    C6      20.039323   17.636097   22.978537 C.3        1 MOL1        -0.1760
      16    H10     20.848891   17.616955   23.718460 H          1 MOL1         0.0833
      17    H11     19.652222   16.609215   22.946767 H          1 MOL1         0.0833
      18    C7      20.584516   17.964306   21.562786 C.3        1 MOL1        -0.1684
      19    H12     19.825325   18.486905   20.969901 H          1 MOL1         0.0833
      20    H13     20.745765   17.017612   21.029127 H          1 MOL1         0.0833
      21    C8      21.926605   18.739317   21.533261 C.3        1 MOL1        -0.1684
      22    H14     22.104880   19.104596   20.512829 H          1 MOL1         0.0833
      23    H15     22.733190   18.021809   21.736959 H          1 MOL1         0.0833
      24    O1      18.355658   17.983489   24.653530 O.3        1 MOL1        -0.5508
      25    H16     18.062712   17.075513   24.430120 H          1 MOL1         0.3780
@<TRIPOS>BOND
    1     1     2    1
    2     1     3    1
    3     1     4    1
    4     4     5    1
    5     4     6    1
    6     4     7    1
    7     7     8    1
    8     7     9    1
    9     7    10    1
   10    10    11    1
   11    10    12    1
   12    10    13    1
   13    13    14    1
   14    13    15    1
   15    15    16    1
   16    15    17    1
   17    15    18    1
   18    18    19    1
   19    18    20    1
   20     1    21    1
   21    18    21    1
   22    21    22    1
   23    21    23    1
   24    13    24    1
   25    24    25    1
@<TRIPOS>SUBSTRUCTURE
       1 MOL1            1 RESIDUE      1      MOL     
@<SCITEGIC>MOL_PROPERTY
VConf Rank
SciTegic.value.IntegerValue
539

@<SCITEGIC>MOL_PROPERTY
Conf_Id
SciTegic.value.IntegerValue
24

@<SCITEGIC>MOL_PROPERTY
Delta U+W
SciTegic.value.DoubleValue
-1.236

@<SCITEGIC>MOL_PROPERTY
U+W
SciTegic.value.DoubleValue
9.678

@<SCITEGIC>MOL_PROPERTY
Grad RMS
SciTegic.value.DoubleValue
0.000000

@<SCITEGIC>MOL_PROPERTY
U
SciTegic.value.DoubleValue
11.876

@<SCITEGIC>MOL_PROPERTY
W
SciTegic.value.DoubleValue
-2.199

@<SCITEGIC>MOL_PROPERTY
W(PB)
SciTegic.value.DoubleValue
-4.335

@<SCITEGIC>MOL_PROPERTY
W(SA)
SciTegic.value.DoubleValue
2.137

@<SCITEGIC>MOL_PROPERTY
Valence
SciTegic.value.DoubleValue
17.153

@<SCITEGIC>MOL_PROPERTY
Coulomb
SciTegic.value.DoubleValue
-7.966

@<SCITEGIC>MOL_PROPERTY
VdW
SciTegic.value.DoubleValue
2.689

@<SCITEGIC>MOL_PROPERTY
VdW6
SciTegic.value.DoubleValue
-12.458

@<SCITEGIC>MOL_PROPERTY
VdW12
SciTegic.value.DoubleValue
15.147

@<SCITEGIC>MOL_PROPERTY
Bond
SciTegic.value.DoubleValue
0.421

@<SCITEGIC>MOL_PROPERTY
Angle
SciTegic.value.DoubleValue
5.258

@<SCITEGIC>MOL_PROPERTY
Pdih
SciTegic.value.DoubleValue
11.475

@<SCITEGIC>MOL_PROPERTY
Idih
SciTegic.value.DoubleValue
0.000

@<SCITEGIC>MOL_PROPERTY
Tether
SciTegic.value.DoubleValue
0.000

@<TRIPOS>MOLECULE
guest-s17_confgen4.mol2 : confsearch ligand conformer 540
          25          25           1
SMALL
USER_CHARGES
 
@<TRIPOS>ATOM
       1    C1      19.061714   18.377494   21.060814 C.3        1 MOL1        -0.1684
       2    H1      17.963649   18.409261   21.065409 H          1 MOL1         0.0833
       3    H2      19.338855   17.816692   20.157737 H          1 MOL1         0.0833
       4    C2      19.604924   19.823345   20.910351 C.3        1 MOL1        -0.1684
       5    H3      20.650481   19.810702   20.577268 H          1 MOL1         0.0833
       6    H4      19.053447   20.287206   20.081031 H          1 MOL1         0.0833
       7    C3      19.455904   20.737997   22.151263 C.3        1 MOL1        -0.1684
       8    H5      18.530362   20.508290   22.696297 H          1 MOL1         0.0833
       9    H6      19.326822   21.763240   21.777876 H          1 MOL1         0.0833
      10    C4      20.681293   20.757659   23.108323 C.3        1 MOL1        -0.1760
      11    H7      21.619486   20.690047   22.542902 H          1 MOL1         0.0833
      12    H8      20.693358   21.749166   23.581311 H          1 MOL1         0.0833
      13    C5      20.648297   19.696556   24.235288 C.3        1 MOL1         0.1219
      14    H9      19.599941   19.473347   24.473620 H          1 MOL1         0.0790
      15    C6      21.395489   18.374744   23.924927 C.3        1 MOL1        -0.1760
      16    H10     22.478326   18.554704   23.946144 H          1 MOL1         0.0833
      17    H11     21.189530   17.675811   24.746325 H          1 MOL1         0.0833
      18    C7      21.048336   17.672203   22.588304 C.3        1 MOL1        -0.1684
      19    H12     21.466396   16.656789   22.618622 H          1 MOL1         0.0833
      20    H13     21.574533   18.166392   21.763328 H          1 MOL1         0.0833
      21    C8      19.528739   17.575768   22.300419 C.3        1 MOL1        -0.1684
      22    H14     18.941031   17.875834   23.175756 H          1 MOL1         0.0833
      23    H15     19.268208   16.520755   22.139354 H          1 MOL1         0.0833
      24    O1      21.249030   20.257670   25.395452 O.3        1 MOL1        -0.5508
      25    H16     22.174713   20.467251   25.154289 H          1 MOL1         0.3780
@<TRIPOS>BOND
    1     1     2    1
    2     1     3    1
    3     1     4    1
    4     4     5    1
    5     4     6    1
    6     4     7    1
    7     7     8    1
    8     7     9    1
    9     7    10    1
   10    10    11    1
   11    10    12    1
   12    10    13    1
   13    13    14    1
   14    13    15    1
   15    15    16    1
   16    15    17    1
   17    15    18    1
   18    18    19    1
   19    18    20    1
   20     1    21    1
   21    18    21    1
   22    21    22    1
   23    21    23    1
   24    13    24    1
   25    24    25    1
@<TRIPOS>SUBSTRUCTURE
       1 MOL1            1 RESIDUE      1      MOL     
@<SCITEGIC>MOL_PROPERTY
VConf Rank
SciTegic.value.IntegerValue
540

@<SCITEGIC>MOL_PROPERTY
Conf_Id
SciTegic.value.IntegerValue
167

@<SCITEGIC>MOL_PROPERTY
Delta U+W
SciTegic.value.DoubleValue
0.388

@<SCITEGIC>MOL_PROPERTY
U+W
SciTegic.value.DoubleValue
11.301

@<SCITEGIC>MOL_PROPERTY
Grad RMS
SciTegic.value.DoubleValue
0.000000

@<SCITEGIC>MOL_PROPERTY
U
SciTegic.value.DoubleValue
13.202

@<SCITEGIC>MOL_PROPERTY
W
SciTegic.value.DoubleValue
-1.901

@<SCITEGIC>MOL_PROPERTY
W(PB)
SciTegic.value.DoubleValue
-4.065

@<SCITEGIC>MOL_PROPERTY
W(SA)
SciTegic.value.DoubleValue
2.163

@<SCITEGIC>MOL_PROPERTY
Valence
SciTegic.value.DoubleValue
18.957

@<SCITEGIC>MOL_PROPERTY
Coulomb
SciTegic.value.DoubleValue
-8.753

@<SCITEGIC>MOL_PROPERTY
VdW
SciTegic.value.DoubleValue
2.998

@<SCITEGIC>MOL_PROPERTY
VdW6
SciTegic.value.DoubleValue
-12.294

@<SCITEGIC>MOL_PROPERTY
VdW12
SciTegic.value.DoubleValue
15.292

@<SCITEGIC>MOL_PROPERTY
Bond
SciTegic.value.DoubleValue
0.419

@<SCITEGIC>MOL_PROPERTY
Angle
SciTegic.value.DoubleValue
4.543

@<SCITEGIC>MOL_PROPERTY
Pdih
SciTegic.value.DoubleValue
13.996

@<SCITEGIC>MOL_PROPERTY
Idih
SciTegic.value.DoubleValue
0.000

@<SCITEGIC>MOL_PROPERTY
Tether
SciTegic.value.DoubleValue
0.000

@<TRIPOS>MOLECULE
guest-s17_confgen4.mol2 : confsearch ligand conformer 541
          25          25           1
SMALL
USER_CHARGES
 
@<TRIPOS>ATOM
       1    C1      22.325902   19.061803   23.048861 C.3        1 MOL1        -0.1684
       2    H1      22.848273   19.785951   23.688581 H          1 MOL1         0.0833
       3    H2      23.083999   18.320716   22.760769 H          1 MOL1         0.0833
       4    C2      21.854603   19.780594   21.757923 C.3        1 MOL1        -0.1684
       5    H3      21.465732   20.778222   21.990994 H          1 MOL1         0.0833
       6    H4      22.750150   19.972234   21.151043 H          1 MOL1         0.0833
       7    C3      20.842633   18.991777   20.886987 C.3        1 MOL1        -0.1684
       8    H5      20.940844   17.910682   21.049342 H          1 MOL1         0.0833
       9    H6      21.118466   19.149959   19.835417 H          1 MOL1         0.0833
      10    C4      19.363259   19.439566   21.039253 C.3        1 MOL1        -0.1760
      11    H7      19.284246   20.514845   20.832431 H          1 MOL1         0.0833
      12    H8      18.784936   18.942890   20.248910 H          1 MOL1         0.0833
      13    C5      18.673760   19.128606   22.391031 C.3        1 MOL1         0.1219
      14    H9      18.782478   18.058292   22.611856 H          1 MOL1         0.0790
      15    C6      19.207107   19.967141   23.581462 C.3        1 MOL1        -0.1760
      16    H10     19.684798   20.881015   23.214148 H          1 MOL1         0.0833
      17    H11     18.362314   20.325594   24.184603 H          1 MOL1         0.0833
      18    C7      20.163743   19.210654   24.539241 C.3        1 MOL1        -0.1684
      19    H12     19.553484   18.565131   25.185638 H          1 MOL1         0.0833
      20    H13     20.643145   19.936105   25.210394 H          1 MOL1         0.0833
      21    C8      21.251813   18.322111   23.885434 C.3        1 MOL1        -0.1684
      22    H14     20.792020   17.522676   23.293283 H          1 MOL1         0.0833
      23    H15     21.775076   17.798200   24.696935 H          1 MOL1         0.0833
      24    O1      17.288006   19.409971   22.233923 O.3        1 MOL1        -0.5508
      25    H16     16.851226   19.145106   23.070336 H          1 MOL1         0.3780
@<TRIPOS>BOND
    1     1     2    1
    2     1     3    1
    3     1     4    1
    4     4     5    1
    5     4     6    1
    6     4     7    1
    7     7     8    1
    8     7     9    1
    9     7    10    1
   10    10    11    1
   11    10    12    1
   12    10    13    1
   13    13    14    1
   14    13    15    1
   15    15    16    1
   16    15    17    1
   17    15    18    1
   18    18    19    1
   19    18    20    1
   20     1    21    1
   21    18    21    1
   22    21    22    1
   23    21    23    1
   24    13    24    1
   25    24    25    1
@<TRIPOS>SUBSTRUCTURE
       1 MOL1            1 RESIDUE      1      MOL     
@<SCITEGIC>MOL_PROPERTY
VConf Rank
SciTegic.value.IntegerValue
541

@<SCITEGIC>MOL_PROPERTY
Conf_Id
SciTegic.value.IntegerValue
60

@<SCITEGIC>MOL_PROPERTY
Delta U+W
SciTegic.value.DoubleValue
-1.838

@<SCITEGIC>MOL_PROPERTY
U+W
SciTegic.value.DoubleValue
9.075

@<SCITEGIC>MOL_PROPERTY
Grad RMS
SciTegic.value.DoubleValue
0.000000

@<SCITEGIC>MOL_PROPERTY
U
SciTegic.value.DoubleValue
11.150

@<SCITEGIC>MOL_PROPERTY
W
SciTegic.value.DoubleValue
-2.074

@<SCITEGIC>MOL_PROPERTY
W(PB)
SciTegic.value.DoubleValue
-4.196

@<SCITEGIC>MOL_PROPERTY
W(SA)
SciTegic.value.DoubleValue
2.121

@<SCITEGIC>MOL_PROPERTY
Valence
SciTegic.value.DoubleValue
16.582

@<SCITEGIC>MOL_PROPERTY
Coulomb
SciTegic.value.DoubleValue
-8.361

@<SCITEGIC>MOL_PROPERTY
VdW
SciTegic.value.DoubleValue
2.928

@<SCITEGIC>MOL_PROPERTY
VdW6
SciTegic.value.DoubleValue
-12.539

@<SCITEGIC>MOL_PROPERTY
VdW12
SciTegic.value.DoubleValue
15.467

@<SCITEGIC>MOL_PROPERTY
Bond
SciTegic.value.DoubleValue
0.441

@<SCITEGIC>MOL_PROPERTY
Angle
SciTegic.value.DoubleValue
5.093

@<SCITEGIC>MOL_PROPERTY
Pdih
SciTegic.value.DoubleValue
11.049

@<SCITEGIC>MOL_PROPERTY
Idih
SciTegic.value.DoubleValue
0.000

@<SCITEGIC>MOL_PROPERTY
Tether
SciTegic.value.DoubleValue
0.000

@<TRIPOS>MOLECULE
guest-s17_confgen4.mol2 : confsearch ligand conformer 542
          25          25           1
SMALL
USER_CHARGES
 
@<TRIPOS>ATOM
       1    C1      18.278568   19.196324   22.372617 C.3        1 MOL1        -0.1684
       2    H1      17.838025   19.022040   21.381632 H          1 MOL1         0.0833
       3    H2      17.429750   19.378712   23.045789 H          1 MOL1         0.0833
       4    C2      19.124830   20.493660   22.334900 C.3        1 MOL1        -0.1684
       5    H3      18.446269   21.317514   22.074820 H          1 MOL1         0.0833
       6    H4      19.486407   20.741637   23.339349 H          1 MOL1         0.0833
       7    C3      20.290478   20.519451   21.314375 C.3        1 MOL1        -0.1684
       8    H5      20.715951   21.532288   21.323218 H          1 MOL1         0.0833
       9    H6      19.889463   20.373872   20.302178 H          1 MOL1         0.0833
      10    C4      21.448167   19.514099   21.546289 C.3        1 MOL1        -0.1760
      11    H7      21.175294   18.527417   21.158638 H          1 MOL1         0.0833
      12    H8      22.285750   19.833255   20.911831 H          1 MOL1         0.0833
      13    C5      21.928462   19.395564   23.015979 C.3        1 MOL1         0.1219
      14    H9      21.611951   20.281140   23.583192 H          1 MOL1         0.0790
      15    C6      21.429065   18.122654   23.743790 C.3        1 MOL1        -0.1760
      16    H10     21.716081   17.237471   23.161283 H          1 MOL1         0.0833
      17    H11     21.978353   18.044237   24.691375 H          1 MOL1         0.0833
      18    C7      19.913343   18.053336   24.075501 C.3        1 MOL1        -0.1684
      19    H12     19.610466   18.908637   24.693155 H          1 MOL1         0.0833
      20    H13     19.765308   17.171816   24.714183 H          1 MOL1         0.0833
      21    C8      18.983764   17.897941   22.844006 C.3        1 MOL1        -0.1684
      22    H14     18.194519   17.178207   23.101119 H          1 MOL1         0.0833
      23    H15     19.521239   17.426620   22.013476 H          1 MOL1         0.0833
      24    O1      23.350571   19.353536   23.017462 O.3        1 MOL1        -0.5508
      25    H16     23.656641   20.194260   22.617437 H          1 MOL1         0.3780
@<TRIPOS>BOND
    1     1     2    1
    2     1     3    1
    3     1     4    1
    4     4     5    1
    5     4     6    1
    6     4     7    1
    7     7     8    1
    8     7     9    1
    9     7    10    1
   10    10    11    1
   11    10    12    1
   12    10    13    1
   13    13    14    1
   14    13    15    1
   15    15    16    1
   16    15    17    1
   17    15    18    1
   18    18    19    1
   19    18    20    1
   20     1    21    1
   21    18    21    1
   22    21    22    1
   23    21    23    1
   24    13    24    1
   25    24    25    1
@<TRIPOS>SUBSTRUCTURE
       1 MOL1            1 RESIDUE      1      MOL     
@<SCITEGIC>MOL_PROPERTY
VConf Rank
SciTegic.value.IntegerValue
542

@<SCITEGIC>MOL_PROPERTY
Conf_Id
SciTegic.value.IntegerValue
129

@<SCITEGIC>MOL_PROPERTY
Delta U+W
SciTegic.value.DoubleValue
-1.846

@<SCITEGIC>MOL_PROPERTY
U+W
SciTegic.value.DoubleValue
9.067

@<SCITEGIC>MOL_PROPERTY
Grad RMS
SciTegic.value.DoubleValue
0.000000

@<SCITEGIC>MOL_PROPERTY
U
SciTegic.value.DoubleValue
11.150

@<SCITEGIC>MOL_PROPERTY
W
SciTegic.value.DoubleValue
-2.083

@<SCITEGIC>MOL_PROPERTY
W(PB)
SciTegic.value.DoubleValue
-4.217

@<SCITEGIC>MOL_PROPERTY
W(SA)
SciTegic.value.DoubleValue
2.134

@<SCITEGIC>MOL_PROPERTY
Valence
SciTegic.value.DoubleValue
16.583

@<SCITEGIC>MOL_PROPERTY
Coulomb
SciTegic.value.DoubleValue
-8.361

@<SCITEGIC>MOL_PROPERTY
VdW
SciTegic.value.DoubleValue
2.928

@<SCITEGIC>MOL_PROPERTY
VdW6
SciTegic.value.DoubleValue
-12.539

@<SCITEGIC>MOL_PROPERTY
VdW12
SciTegic.value.DoubleValue
15.467

@<SCITEGIC>MOL_PROPERTY
Bond
SciTegic.value.DoubleValue
0.441

@<SCITEGIC>MOL_PROPERTY
Angle
SciTegic.value.DoubleValue
5.093

@<SCITEGIC>MOL_PROPERTY
Pdih
SciTegic.value.DoubleValue
11.049

@<SCITEGIC>MOL_PROPERTY
Idih
SciTegic.value.DoubleValue
0.000

@<SCITEGIC>MOL_PROPERTY
Tether
SciTegic.value.DoubleValue
0.000

@<TRIPOS>MOLECULE
guest-s17_confgen4.mol2 : confsearch ligand conformer 543
          25          25           1
SMALL
USER_CHARGES
 
@<TRIPOS>ATOM
       1    C1      18.262802   19.098218   23.132928 C.3        1 MOL1        -0.1684
       2    H1      17.941895   18.964202   24.174832 H          1 MOL1         0.0833
       3    H2      17.337752   19.150267   22.542595 H          1 MOL1         0.0833
       4    C2      19.036147   17.838182   22.669827 C.3        1 MOL1        -0.1684
       5    H3      18.345777   16.986872   22.743764 H          1 MOL1         0.0833
       6    H4      19.274159   17.907699   21.602251 H          1 MOL1         0.0833
       7    C3      20.301701   17.475369   23.486532 C.3        1 MOL1        -0.1684
       8    H5      20.667586   16.507809   23.116386 H          1 MOL1         0.0833
       9    H6      20.021045   17.306191   24.534915 H          1 MOL1         0.0833
      10    C4      21.482634   18.479468   23.436975 C.3        1 MOL1        -0.1760
      11    H7      21.311747   19.298591   24.142932 H          1 MOL1         0.0833
      12    H8      22.364574   17.955118   23.829219 H          1 MOL1         0.0833
      13    C5      21.806968   19.042298   22.028925 C.3        1 MOL1         0.1219
      14    H9      21.389127   18.378987   21.259966 H          1 MOL1         0.0790
      15    C6      21.299772   20.486474   21.788082 C.3        1 MOL1        -0.1760
      16    H10     21.691112   21.146982   22.572810 H          1 MOL1         0.0833
      17    H11     21.743805   20.843563   20.849170 H          1 MOL1         0.0833
      18    C7      19.763159   20.680669   21.677944 C.3        1 MOL1        -0.1684
      19    H12     19.349319   20.063126   20.870374 H          1 MOL1         0.0833
      20    H13     19.593106   21.718604   21.360550 H          1 MOL1         0.0833
      21    C8      18.984223   20.464474   23.001222 C.3        1 MOL1        -0.1684
      22    H14     18.213697   21.244137   23.075157 H          1 MOL1         0.0833
      23    H15     19.635082   20.642387   23.864662 H          1 MOL1         0.0833
      24    O1      23.220220   19.059640   21.872137 O.3        1 MOL1        -0.5508
      25    H16     23.567963   19.659086   22.564005 H          1 MOL1         0.3780
@<TRIPOS>BOND
    1     1     2    1
    2     1     3    1
    3     1     4    1
    4     4     5    1
    5     4     6    1
    6     4     7    1
    7     7     8    1
    8     7     9    1
    9     7    10    1
   10    10    11    1
   11    10    12    1
   12    10    13    1
   13    13    14    1
   14    13    15    1
   15    15    16    1
   16    15    17    1
   17    15    18    1
   18    18    19    1
   19    18    20    1
   20     1    21    1
   21    18    21    1
   22    21    22    1
   23    21    23    1
   24    13    24    1
   25    24    25    1
@<TRIPOS>SUBSTRUCTURE
       1 MOL1            1 RESIDUE      1      MOL     
@<SCITEGIC>MOL_PROPERTY
VConf Rank
SciTegic.value.IntegerValue
543

@<SCITEGIC>MOL_PROPERTY
Conf_Id
SciTegic.value.IntegerValue
140

@<SCITEGIC>MOL_PROPERTY
Delta U+W
SciTegic.value.DoubleValue
-1.702

@<SCITEGIC>MOL_PROPERTY
U+W
SciTegic.value.DoubleValue
9.211

@<SCITEGIC>MOL_PROPERTY
Grad RMS
SciTegic.value.DoubleValue
0.000000

@<SCITEGIC>MOL_PROPERTY
U
SciTegic.value.DoubleValue
11.181

@<SCITEGIC>MOL_PROPERTY
W
SciTegic.value.DoubleValue
-1.969

@<SCITEGIC>MOL_PROPERTY
W(PB)
SciTegic.value.DoubleValue
-4.093

@<SCITEGIC>MOL_PROPERTY
W(SA)
SciTegic.value.DoubleValue
2.124

@<SCITEGIC>MOL_PROPERTY
Valence
SciTegic.value.DoubleValue
16.954

@<SCITEGIC>MOL_PROPERTY
Coulomb
SciTegic.value.DoubleValue
-8.661

@<SCITEGIC>MOL_PROPERTY
VdW
SciTegic.value.DoubleValue
2.887

@<SCITEGIC>MOL_PROPERTY
VdW6
SciTegic.value.DoubleValue
-12.561

@<SCITEGIC>MOL_PROPERTY
VdW12
SciTegic.value.DoubleValue
15.448

@<SCITEGIC>MOL_PROPERTY
Bond
SciTegic.value.DoubleValue
0.433

@<SCITEGIC>MOL_PROPERTY
Angle
SciTegic.value.DoubleValue
5.120

@<SCITEGIC>MOL_PROPERTY
Pdih
SciTegic.value.DoubleValue
11.401

@<SCITEGIC>MOL_PROPERTY
Idih
SciTegic.value.DoubleValue
0.000

@<SCITEGIC>MOL_PROPERTY
Tether
SciTegic.value.DoubleValue
0.000

@<TRIPOS>MOLECULE
guest-s17_confgen4.mol2 : confsearch ligand conformer 544
          25          25           1
SMALL
USER_CHARGES
 
@<TRIPOS>ATOM
       1    C1      19.815154   17.170050   22.718956 C.3        1 MOL1        -0.1684
       2    H1      20.596217   16.405794   22.607778 H          1 MOL1         0.0833
       3    H2      18.875035   16.616174   22.846702 H          1 MOL1         0.0833
       4    C2      19.711383   17.977990   21.399520 C.3        1 MOL1        -0.1684
       5    H3      20.708047   18.183114   20.992839 H          1 MOL1         0.0833
       6    H4      19.242963   17.319964   20.654781 H          1 MOL1         0.0833
       7    C3      18.877457   19.282706   21.482169 C.3        1 MOL1        -0.1684
       8    H5      18.139030   19.229064   22.292505 H          1 MOL1         0.0833
       9    H6      18.285377   19.355087   20.559582 H          1 MOL1         0.0833
      10    C4      19.715872   20.585516   21.585911 C.3        1 MOL1        -0.1760
      11    H7      20.414433   20.632751   20.740337 H          1 MOL1         0.0833
      12    H8      19.027313   21.430483   21.451176 H          1 MOL1         0.0833
      13    C5      20.490059   20.815829   22.908212 C.3        1 MOL1         0.1219
      14    H9      19.793672   20.737653   23.753674 H          1 MOL1         0.0790
      15    C6      21.684328   19.850537   23.123859 C.3        1 MOL1        -0.1760
      16    H10     22.022636   19.445268   22.164774 H          1 MOL1         0.0833
      17    H11     22.544617   20.418198   23.503703 H          1 MOL1         0.0833
      18    C7      21.424227   18.698838   24.129447 C.3        1 MOL1        -0.1684
      19    H12     21.497898   19.115151   25.143502 H          1 MOL1         0.0833
      20    H13     22.237370   17.964766   24.049221 H          1 MOL1         0.0833
      21    C8      20.062295   17.967917   24.023770 C.3        1 MOL1        -0.1684
      22    H14     19.236499   18.664873   24.206841 H          1 MOL1         0.0833
      23    H15     20.010520   17.253791   24.856925 H          1 MOL1         0.0833
      24    O1      20.993583   22.145344   22.876414 O.3        1 MOL1        -0.5508
      25    H16     21.606758   22.190755   22.114248 H          1 MOL1         0.3780
@<TRIPOS>BOND
    1     1     2    1
    2     1     3    1
    3     1     4    1
    4     4     5    1
    5     4     6    1
    6     4     7    1
    7     7     8    1
    8     7     9    1
    9     7    10    1
   10    10    11    1
   11    10    12    1
   12    10    13    1
   13    13    14    1
   14    13    15    1
   15    15    16    1
   16    15    17    1
   17    15    18    1
   18    18    19    1
   19    18    20    1
   20     1    21    1
   21    18    21    1
   22    21    22    1
   23    21    23    1
   24    13    24    1
   25    24    25    1
@<TRIPOS>SUBSTRUCTURE
       1 MOL1            1 RESIDUE      1      MOL     
@<SCITEGIC>MOL_PROPERTY
VConf Rank
SciTegic.value.IntegerValue
544

@<SCITEGIC>MOL_PROPERTY
Conf_Id
SciTegic.value.IntegerValue
68

@<SCITEGIC>MOL_PROPERTY
Delta U+W
SciTegic.value.DoubleValue
-1.765

@<SCITEGIC>MOL_PROPERTY
U+W
SciTegic.value.DoubleValue
9.148

@<SCITEGIC>MOL_PROPERTY
Grad RMS
SciTegic.value.DoubleValue
0.000000

@<SCITEGIC>MOL_PROPERTY
U
SciTegic.value.DoubleValue
11.181

@<SCITEGIC>MOL_PROPERTY
W
SciTegic.value.DoubleValue
-2.032

@<SCITEGIC>MOL_PROPERTY
W(PB)
SciTegic.value.DoubleValue
-4.147

@<SCITEGIC>MOL_PROPERTY
W(SA)
SciTegic.value.DoubleValue
2.114

@<SCITEGIC>MOL_PROPERTY
Valence
SciTegic.value.DoubleValue
16.955

@<SCITEGIC>MOL_PROPERTY
Coulomb
SciTegic.value.DoubleValue
-8.661

@<SCITEGIC>MOL_PROPERTY
VdW
SciTegic.value.DoubleValue
2.887

@<SCITEGIC>MOL_PROPERTY
VdW6
SciTegic.value.DoubleValue
-12.561

@<SCITEGIC>MOL_PROPERTY
VdW12
SciTegic.value.DoubleValue
15.448

@<SCITEGIC>MOL_PROPERTY
Bond
SciTegic.value.DoubleValue
0.433

@<SCITEGIC>MOL_PROPERTY
Angle
SciTegic.value.DoubleValue
5.121

@<SCITEGIC>MOL_PROPERTY
Pdih
SciTegic.value.DoubleValue
11.402

@<SCITEGIC>MOL_PROPERTY
Idih
SciTegic.value.DoubleValue
0.000

@<SCITEGIC>MOL_PROPERTY
Tether
SciTegic.value.DoubleValue
0.000

@<TRIPOS>MOLECULE
guest-s17_confgen4.mol2 : confsearch ligand conformer 545
          25          25           1
SMALL
USER_CHARGES
 
@<TRIPOS>ATOM
       1    C1      22.095516   19.014147   22.536586 C.3        1 MOL1        -0.1684
       2    H1      23.191677   19.029526   22.463982 H          1 MOL1         0.0833
       3    H2      21.820159   17.988486   22.266236 H          1 MOL1         0.0833
       4    C2      21.530755   20.021433   21.501345 C.3        1 MOL1        -0.1684
       5    H3      21.340243   20.998645   21.963271 H          1 MOL1         0.0833
       6    H4      22.317657   20.205914   20.757187 H          1 MOL1         0.0833
       7    C3      20.281858   19.526395   20.725589 C.3        1 MOL1        -0.1684
       8    H5      20.513256   18.571619   20.233723 H          1 MOL1         0.0833
       9    H6      20.091274   20.238403   19.911000 H          1 MOL1         0.0833
      10    C4      18.969124   19.378552   21.540098 C.3        1 MOL1        -0.1760
      11    H7      18.705353   20.331204   22.014899 H          1 MOL1         0.0833
      12    H8      18.167075   19.186230   20.814604 H          1 MOL1         0.0833
      13    C5      18.983124   18.226895   22.578547 C.3        1 MOL1         0.1219
      14    H9      19.773003   17.515099   22.312124 H          1 MOL1         0.0790
      15    C6      19.181029   18.679183   24.046305 C.3        1 MOL1        -0.1760
      16    H10     18.231231   19.087388   24.416208 H          1 MOL1         0.0833
      17    H11     19.384740   17.790732   24.658058 H          1 MOL1         0.0833
      18    C7      20.277932   19.740702   24.318419 C.3        1 MOL1        -0.1684
      19    H12     20.227805   19.996465   25.385562 H          1 MOL1         0.0833
      20    H13     20.043123   20.676643   23.798625 H          1 MOL1         0.0833
      21    C8      21.734362   19.307758   24.015911 C.3        1 MOL1        -0.1684
      22    H14     21.986510   18.429448   24.625485 H          1 MOL1         0.0833
      23    H15     22.394924   20.111906   24.368049 H          1 MOL1         0.0833
      24    O1      17.741017   17.537838   22.507453 O.3        1 MOL1        -0.5508
      25    H16     17.047851   18.192522   22.730610 H          1 MOL1         0.3780
@<TRIPOS>BOND
    1     1     2    1
    2     1     3    1
    3     1     4    1
    4     4     5    1
    5     4     6    1
    6     4     7    1
    7     7     8    1
    8     7     9    1
    9     7    10    1
   10    10    11    1
   11    10    12    1
   12    10    13    1
   13    13    14    1
   14    13    15    1
   15    15    16    1
   16    15    17    1
   17    15    18    1
   18    18    19    1
   19    18    20    1
   20     1    21    1
   21    18    21    1
   22    21    22    1
   23    21    23    1
   24    13    24    1
   25    24    25    1
@<TRIPOS>SUBSTRUCTURE
       1 MOL1            1 RESIDUE      1      MOL     
@<SCITEGIC>MOL_PROPERTY
VConf Rank
SciTegic.value.IntegerValue
545

@<SCITEGIC>MOL_PROPERTY
Conf_Id
SciTegic.value.IntegerValue
165

@<SCITEGIC>MOL_PROPERTY
Delta U+W
SciTegic.value.DoubleValue
-1.999

@<SCITEGIC>MOL_PROPERTY
U+W
SciTegic.value.DoubleValue
8.915

@<SCITEGIC>MOL_PROPERTY
Grad RMS
SciTegic.value.DoubleValue
0.000000

@<SCITEGIC>MOL_PROPERTY
U
SciTegic.value.DoubleValue
10.935

@<SCITEGIC>MOL_PROPERTY
W
SciTegic.value.DoubleValue
-2.020

@<SCITEGIC>MOL_PROPERTY
W(PB)
SciTegic.value.DoubleValue
-4.135

@<SCITEGIC>MOL_PROPERTY
W(SA)
SciTegic.value.DoubleValue
2.115

@<SCITEGIC>MOL_PROPERTY
Valence
SciTegic.value.DoubleValue
16.757

@<SCITEGIC>MOL_PROPERTY
Coulomb
SciTegic.value.DoubleValue
-8.731

@<SCITEGIC>MOL_PROPERTY
VdW
SciTegic.value.DoubleValue
2.908

@<SCITEGIC>MOL_PROPERTY
VdW6
SciTegic.value.DoubleValue
-12.597

@<SCITEGIC>MOL_PROPERTY
VdW12
SciTegic.value.DoubleValue
15.506

@<SCITEGIC>MOL_PROPERTY
Bond
SciTegic.value.DoubleValue
0.434

@<SCITEGIC>MOL_PROPERTY
Angle
SciTegic.value.DoubleValue
5.069

@<SCITEGIC>MOL_PROPERTY
Pdih
SciTegic.value.DoubleValue
11.254

@<SCITEGIC>MOL_PROPERTY
Idih
SciTegic.value.DoubleValue
0.000

@<SCITEGIC>MOL_PROPERTY
Tether
SciTegic.value.DoubleValue
0.000

@<TRIPOS>MOLECULE
guest-s17_confgen4.mol2 : confsearch ligand conformer 546
          25          25           1
SMALL
USER_CHARGES
 
@<TRIPOS>ATOM
       1    C1      19.815868   17.420958   22.854555 C.3        1 MOL1        -0.1684
       2    H1      19.496611   16.389184   23.056054 H          1 MOL1         0.0833
       3    H2      20.027536   17.434074   21.779461 H          1 MOL1         0.0833
       4    C2      21.111066   17.663105   23.672649 C.3        1 MOL1        -0.1684
       5    H3      20.970058   17.209622   24.663343 H          1 MOL1         0.0833
       6    H4      21.936052   17.106729   23.207448 H          1 MOL1         0.0833
       7    C3      21.545457   19.133420   23.895846 C.3        1 MOL1        -0.1684
       8    H5      22.413984   19.119716   24.568285 H          1 MOL1         0.0833
       9    H6      20.774075   19.678200   24.452152 H          1 MOL1         0.0833
      10    C4      21.957185   19.922559   22.626290 C.3        1 MOL1        -0.1760
      11    H7      22.338848   20.898565   22.955318 H          1 MOL1         0.0833
      12    H8      22.803738   19.411347   22.150130 H          1 MOL1         0.0833
      13    C5      20.861750   20.166460   21.559382 C.3        1 MOL1         0.1219
      14    H9      20.714522   19.249987   20.976062 H          1 MOL1         0.0790
      15    C6      19.494842   20.625206   22.129732 C.3        1 MOL1        -0.1760
      16    H10     19.617952   21.081459   23.119072 H          1 MOL1         0.0833
      17    H11     19.104768   21.429207   21.491017 H          1 MOL1         0.0833
      18    C7      18.409436   19.516620   22.173547 C.3        1 MOL1        -0.1684
      19    H12     18.280165   19.095544   21.167083 H          1 MOL1         0.0833
      20    H13     17.451680   19.996387   22.417068 H          1 MOL1         0.0833
      21    C8      18.631249   18.364633   23.188729 C.3        1 MOL1        -0.1684
      22    H14     17.715598   17.757513   23.189198 H          1 MOL1         0.0833
      23    H15     18.714006   18.756787   24.210480 H          1 MOL1         0.0833
      24    O1      21.343798   21.173189   20.676409 O.3        1 MOL1        -0.5508
      25    H16     22.183294   20.838117   20.297712 H          1 MOL1         0.3780
@<TRIPOS>BOND
    1     1     2    1
    2     1     3    1
    3     1     4    1
    4     4     5    1
    5     4     6    1
    6     4     7    1
    7     7     8    1
    8     7     9    1
    9     7    10    1
   10    10    11    1
   11    10    12    1
   12    10    13    1
   13    13    14    1
   14    13    15    1
   15    15    16    1
   16    15    17    1
   17    15    18    1
   18    18    19    1
   19    18    20    1
   20     1    21    1
   21    18    21    1
   22    21    22    1
   23    21    23    1
   24    13    24    1
   25    24    25    1
@<TRIPOS>SUBSTRUCTURE
       1 MOL1            1 RESIDUE      1      MOL     
@<SCITEGIC>MOL_PROPERTY
VConf Rank
SciTegic.value.IntegerValue
546

@<SCITEGIC>MOL_PROPERTY
Conf_Id
SciTegic.value.IntegerValue
133

@<SCITEGIC>MOL_PROPERTY
Delta U+W
SciTegic.value.DoubleValue
-2.139

@<SCITEGIC>MOL_PROPERTY
U+W
SciTegic.value.DoubleValue
8.774

@<SCITEGIC>MOL_PROPERTY
Grad RMS
SciTegic.value.DoubleValue
0.000000

@<SCITEGIC>MOL_PROPERTY
U
SciTegic.value.DoubleValue
10.905

@<SCITEGIC>MOL_PROPERTY
W
SciTegic.value.DoubleValue
-2.131

@<SCITEGIC>MOL_PROPERTY
W(PB)
SciTegic.value.DoubleValue
-4.281

@<SCITEGIC>MOL_PROPERTY
W(SA)
SciTegic.value.DoubleValue
2.150

@<SCITEGIC>MOL_PROPERTY
Valence
SciTegic.value.DoubleValue
16.378

@<SCITEGIC>MOL_PROPERTY
Coulomb
SciTegic.value.DoubleValue
-8.448

@<SCITEGIC>MOL_PROPERTY
VdW
SciTegic.value.DoubleValue
2.976

@<SCITEGIC>MOL_PROPERTY
VdW6
SciTegic.value.DoubleValue
-12.570

@<SCITEGIC>MOL_PROPERTY
VdW12
SciTegic.value.DoubleValue
15.545

@<SCITEGIC>MOL_PROPERTY
Bond
SciTegic.value.DoubleValue
0.439

@<SCITEGIC>MOL_PROPERTY
Angle
SciTegic.value.DoubleValue
5.049

@<SCITEGIC>MOL_PROPERTY
Pdih
SciTegic.value.DoubleValue
10.889

@<SCITEGIC>MOL_PROPERTY
Idih
SciTegic.value.DoubleValue
0.000

@<SCITEGIC>MOL_PROPERTY
Tether
SciTegic.value.DoubleValue
0.000

@<TRIPOS>MOLECULE
guest-s17_confgen4.mol2 : confsearch ligand conformer 547
          25          25           1
SMALL
USER_CHARGES
 
@<TRIPOS>ATOM
       1    C1      20.672142   20.193148   21.141824 C.3        1 MOL1        -0.1684
       2    H1      20.853911   20.834383   20.268403 H          1 MOL1         0.0833
       3    H2      21.067885   19.214805   20.846804 H          1 MOL1         0.0833
       4    C2      19.140096   20.115329   21.370516 C.3        1 MOL1        -0.1684
       5    H3      18.811730   20.860156   22.106735 H          1 MOL1         0.0833
       6    H4      18.650896   20.407414   20.431165 H          1 MOL1         0.0833
       7    C3      18.606998   18.705666   21.738657 C.3        1 MOL1        -0.1684
       8    H5      18.906445   17.988566   20.962070 H          1 MOL1         0.0833
       9    H6      17.509842   18.742531   21.697875 H          1 MOL1         0.0833
      10    C4      19.009040   18.150580   23.131220 C.3        1 MOL1        -0.1760
      11    H7      18.690963   18.837083   23.924732 H          1 MOL1         0.0833
      12    H8      18.422022   17.236262   23.292354 H          1 MOL1         0.0833
      13    C5      20.512305   17.798951   23.275211 C.3        1 MOL1         0.1219
      14    H9      20.947155   17.679310   22.275987 H          1 MOL1         0.0790
      15    C6      21.343425   18.833141   24.073608 C.3        1 MOL1        -0.1760
      16    H10     21.132217   18.691468   25.142175 H          1 MOL1         0.0833
      17    H11     22.408831   18.604070   23.942638 H          1 MOL1         0.0833
      18    C7      21.109716   20.331171   23.749085 C.3        1 MOL1        -0.1684
      19    H12     21.718165   20.916693   24.451690 H          1 MOL1         0.0833
      20    H13     20.075760   20.615467   23.975808 H          1 MOL1         0.0833
      21    C8      21.491520   20.785463   22.317936 C.3        1 MOL1        -0.1684
      22    H14     22.557949   20.586521   22.145541 H          1 MOL1         0.0833
      23    H15     21.384967   21.878339   22.282241 H          1 MOL1         0.0833
      24    O1      20.621844   16.551324   23.951183 O.3        1 MOL1        -0.5508
      25    H16     21.576544   16.333070   23.987947 H          1 MOL1         0.3780
@<TRIPOS>BOND
    1     1     2    1
    2     1     3    1
    3     1     4    1
    4     4     5    1
    5     4     6    1
    6     4     7    1
    7     7     8    1
    8     7     9    1
    9     7    10    1
   10    10    11    1
   11    10    12    1
   12    10    13    1
   13    13    14    1
   14    13    15    1
   15    15    16    1
   16    15    17    1
   17    15    18    1
   18    18    19    1
   19    18    20    1
   20     1    21    1
   21    18    21    1
   22    21    22    1
   23    21    23    1
   24    13    24    1
   25    24    25    1
@<TRIPOS>SUBSTRUCTURE
       1 MOL1            1 RESIDUE      1      MOL     
@<SCITEGIC>MOL_PROPERTY
VConf Rank
SciTegic.value.IntegerValue
547

@<SCITEGIC>MOL_PROPERTY
Conf_Id
SciTegic.value.IntegerValue
95

@<SCITEGIC>MOL_PROPERTY
Delta U+W
SciTegic.value.DoubleValue
-2.190

@<SCITEGIC>MOL_PROPERTY
U+W
SciTegic.value.DoubleValue
8.723

@<SCITEGIC>MOL_PROPERTY
Grad RMS
SciTegic.value.DoubleValue
0.000000

@<SCITEGIC>MOL_PROPERTY
U
SciTegic.value.DoubleValue
10.905

@<SCITEGIC>MOL_PROPERTY
W
SciTegic.value.DoubleValue
-2.182

@<SCITEGIC>MOL_PROPERTY
W(PB)
SciTegic.value.DoubleValue
-4.296

@<SCITEGIC>MOL_PROPERTY
W(SA)
SciTegic.value.DoubleValue
2.114

@<SCITEGIC>MOL_PROPERTY
Valence
SciTegic.value.DoubleValue
16.377

@<SCITEGIC>MOL_PROPERTY
Coulomb
SciTegic.value.DoubleValue
-8.448

@<SCITEGIC>MOL_PROPERTY
VdW
SciTegic.value.DoubleValue
2.976

@<SCITEGIC>MOL_PROPERTY
VdW6
SciTegic.value.DoubleValue
-12.570

@<SCITEGIC>MOL_PROPERTY
VdW12
SciTegic.value.DoubleValue
15.546

@<SCITEGIC>MOL_PROPERTY
Bond
SciTegic.value.DoubleValue
0.439

@<SCITEGIC>MOL_PROPERTY
Angle
SciTegic.value.DoubleValue
5.049

@<SCITEGIC>MOL_PROPERTY
Pdih
SciTegic.value.DoubleValue
10.889

@<SCITEGIC>MOL_PROPERTY
Idih
SciTegic.value.DoubleValue
0.000

@<SCITEGIC>MOL_PROPERTY
Tether
SciTegic.value.DoubleValue
0.000

@<TRIPOS>MOLECULE
guest-s17_confgen4.mol2 : confsearch ligand conformer 548
          25          25           1
SMALL
USER_CHARGES
 
@<TRIPOS>ATOM
       1    C1      20.236881   17.352858   22.791324 C.3        1 MOL1        -0.1684
       2    H1      20.085882   16.265872   22.841941 H          1 MOL1         0.0833
       3    H2      21.162307   17.507147   23.355253 H          1 MOL1         0.0833
       4    C2      19.026942   18.014648   23.514027 C.3        1 MOL1        -0.1684
       5    H3      18.144195   17.392762   23.311648 H          1 MOL1         0.0833
       6    H4      19.183677   17.954299   24.599505 H          1 MOL1         0.0833
       7    C3      18.650459   19.469951   23.130818 C.3        1 MOL1        -0.1684
       8    H5      17.714031   19.718409   23.648687 H          1 MOL1         0.0833
       9    H6      18.374372   19.505059   22.072248 H          1 MOL1         0.0833
      10    C4      19.676255   20.590818   23.474218 C.3        1 MOL1        -0.1760
      11    H7      19.468155   21.466778   22.845919 H          1 MOL1         0.0833
      12    H8      19.471090   20.909111   24.504684 H          1 MOL1         0.0833
      13    C5      21.186618   20.254165   23.389601 C.3        1 MOL1         0.1219
      14    H9      21.383566   19.408557   24.056666 H          1 MOL1         0.0790
      15    C6      21.762359   19.947569   21.977117 C.3        1 MOL1        -0.1760
      16    H10     22.036445   20.902746   21.509326 H          1 MOL1         0.0833
      17    H11     22.704558   19.398724   22.100892 H          1 MOL1         0.0833
      18    C7      20.866782   19.188695   20.960717 C.3        1 MOL1        -0.1684
      19    H12     21.401249   19.164332   20.001309 H          1 MOL1         0.0833
      20    H13     19.978009   19.789325   20.743008 H          1 MOL1         0.0833
      21    C8      20.473716   17.721774   21.302986 C.3        1 MOL1        -0.1684
      22    H14     21.279807   17.071577   20.936476 H          1 MOL1         0.0833
      23    H15     19.586618   17.445912   20.716983 H          1 MOL1         0.0833
      24    O1      21.900750   21.372428   23.903523 O.3        1 MOL1        -0.5508
      25    H16     21.578362   21.518433   24.817200 H          1 MOL1         0.3780
@<TRIPOS>BOND
    1     1     2    1
    2     1     3    1
    3     1     4    1
    4     4     5    1
    5     4     6    1
    6     4     7    1
    7     7     8    1
    8     7     9    1
    9     7    10    1
   10    10    11    1
   11    10    12    1
   12    10    13    1
   13    13    14    1
   14    13    15    1
   15    15    16    1
   16    15    17    1
   17    15    18    1
   18    18    19    1
   19    18    20    1
   20     1    21    1
   21    18    21    1
   22    21    22    1
   23    21    23    1
   24    13    24    1
   25    24    25    1
@<TRIPOS>SUBSTRUCTURE
       1 MOL1            1 RESIDUE      1      MOL     
@<SCITEGIC>MOL_PROPERTY
VConf Rank
SciTegic.value.IntegerValue
548

@<SCITEGIC>MOL_PROPERTY
Conf_Id
SciTegic.value.IntegerValue
161

@<SCITEGIC>MOL_PROPERTY
Delta U+W
SciTegic.value.DoubleValue
2.120

@<SCITEGIC>MOL_PROPERTY
U+W
SciTegic.value.DoubleValue
13.033

@<SCITEGIC>MOL_PROPERTY
Grad RMS
SciTegic.value.DoubleValue
0.000000

@<SCITEGIC>MOL_PROPERTY
U
SciTegic.value.DoubleValue
15.076

@<SCITEGIC>MOL_PROPERTY
W
SciTegic.value.DoubleValue
-2.043

@<SCITEGIC>MOL_PROPERTY
W(PB)
SciTegic.value.DoubleValue
-4.186

@<SCITEGIC>MOL_PROPERTY
W(SA)
SciTegic.value.DoubleValue
2.143

@<SCITEGIC>MOL_PROPERTY
Valence
SciTegic.value.DoubleValue
18.884

@<SCITEGIC>MOL_PROPERTY
Coulomb
SciTegic.value.DoubleValue
-8.074

@<SCITEGIC>MOL_PROPERTY
VdW
SciTegic.value.DoubleValue
4.266

@<SCITEGIC>MOL_PROPERTY
VdW6
SciTegic.value.DoubleValue
-13.486

@<SCITEGIC>MOL_PROPERTY
VdW12
SciTegic.value.DoubleValue
17.752

@<SCITEGIC>MOL_PROPERTY
Bond
SciTegic.value.DoubleValue
0.713

@<SCITEGIC>MOL_PROPERTY
Angle
SciTegic.value.DoubleValue
8.955

@<SCITEGIC>MOL_PROPERTY
Pdih
SciTegic.value.DoubleValue
9.215

@<SCITEGIC>MOL_PROPERTY
Idih
SciTegic.value.DoubleValue
0.000

@<SCITEGIC>MOL_PROPERTY
Tether
SciTegic.value.DoubleValue
0.000

@<TRIPOS>MOLECULE
guest-s17_confgen4.mol2 : confsearch ligand conformer 549
          25          25           1
SMALL
USER_CHARGES
 
@<TRIPOS>ATOM
       1    C1      18.781160   18.047858   22.156906 C.3        1 MOL1        -0.1684
       2    H1      18.050369   17.400428   21.653155 H          1 MOL1         0.0833
       3    H2      18.294446   18.340888   23.095777 H          1 MOL1         0.0833
       4    C2      19.008086   19.295626   21.267380 C.3        1 MOL1        -0.1684
       5    H3      19.786510   19.103597   20.516802 H          1 MOL1         0.0833
       6    H4      18.083729   19.449899   20.693851 H          1 MOL1         0.0833
       7    C3      19.284295   20.616309   22.038637 C.3        1 MOL1        -0.1684
       8    H5      18.685292   20.671408   22.957574 H          1 MOL1         0.0833
       9    H6      18.919093   21.436038   21.404703 H          1 MOL1         0.0833
      10    C4      20.777564   20.910185   22.335721 C.3        1 MOL1        -0.1760
      11    H7      21.401131   20.535088   21.515091 H          1 MOL1         0.0833
      12    H8      20.912806   21.999701   22.318445 H          1 MOL1         0.0833
      13    C5      21.312344   20.422111   23.705985 C.3        1 MOL1         0.1219
      14    H9      20.856949   21.046710   24.487820 H          1 MOL1         0.0790
      15    C6      21.029196   18.946013   24.069090 C.3        1 MOL1        -0.1760
      16    H10     21.649205   18.679757   24.935566 H          1 MOL1         0.0833
      17    H11     19.999907   18.860402   24.433778 H          1 MOL1         0.0833
      18    C7      21.299485   17.928528   22.928521 C.3        1 MOL1        -0.1684
      19    H12     22.023059   17.182622   23.284604 H          1 MOL1         0.0833
      20    H13     21.788822   18.410013   22.074225 H          1 MOL1         0.0833
      21    C8      20.036301   17.180377   22.439320 C.3        1 MOL1        -0.1684
      22    H14     19.765758   16.420132   23.184736 H          1 MOL1         0.0833
      23    H15     20.296695   16.625385   21.527749 H          1 MOL1         0.0833
      24    O1      22.718977   20.620714   23.723452 O.3        1 MOL1        -0.5508
      25    H16     23.091764   19.950267   23.115719 H          1 MOL1         0.3780
@<TRIPOS>BOND
    1     1     2    1
    2     1     3    1
    3     1     4    1
    4     4     5    1
    5     4     6    1
    6     4     7    1
    7     7     8    1
    8     7     9    1
    9     7    10    1
   10    10    11    1
   11    10    12    1
   12    10    13    1
   13    13    14    1
   14    13    15    1
   15    15    16    1
   16    15    17    1
   17    15    18    1
   18    18    19    1
   19    18    20    1
   20     1    21    1
   21    18    21    1
   22    21    22    1
   23    21    23    1
   24    13    24    1
   25    24    25    1
@<TRIPOS>SUBSTRUCTURE
       1 MOL1            1 RESIDUE      1      MOL     
@<SCITEGIC>MOL_PROPERTY
VConf Rank
SciTegic.value.IntegerValue
549

@<SCITEGIC>MOL_PROPERTY
Conf_Id
SciTegic.value.IntegerValue
164

@<SCITEGIC>MOL_PROPERTY
Delta U+W
SciTegic.value.DoubleValue
0.008

@<SCITEGIC>MOL_PROPERTY
U+W
SciTegic.value.DoubleValue
10.922

@<SCITEGIC>MOL_PROPERTY
Grad RMS
SciTegic.value.DoubleValue
0.000000

@<SCITEGIC>MOL_PROPERTY
U
SciTegic.value.DoubleValue
12.433

@<SCITEGIC>MOL_PROPERTY
W
SciTegic.value.DoubleValue
-1.511

@<SCITEGIC>MOL_PROPERTY
W(PB)
SciTegic.value.DoubleValue
-3.669

@<SCITEGIC>MOL_PROPERTY
W(SA)
SciTegic.value.DoubleValue
2.157

@<SCITEGIC>MOL_PROPERTY
Valence
SciTegic.value.DoubleValue
19.007

@<SCITEGIC>MOL_PROPERTY
Coulomb
SciTegic.value.DoubleValue
-9.373

@<SCITEGIC>MOL_PROPERTY
VdW
SciTegic.value.DoubleValue
2.799

@<SCITEGIC>MOL_PROPERTY
VdW6
SciTegic.value.DoubleValue
-12.597

@<SCITEGIC>MOL_PROPERTY
VdW12
SciTegic.value.DoubleValue
15.396

@<SCITEGIC>MOL_PROPERTY
Bond
SciTegic.value.DoubleValue
0.425

@<SCITEGIC>MOL_PROPERTY
Angle
SciTegic.value.DoubleValue
4.784

@<SCITEGIC>MOL_PROPERTY
Pdih
SciTegic.value.DoubleValue
13.799

@<SCITEGIC>MOL_PROPERTY
Idih
SciTegic.value.DoubleValue
0.000

@<SCITEGIC>MOL_PROPERTY
Tether
SciTegic.value.DoubleValue
0.000

@<TRIPOS>MOLECULE
guest-s17_confgen4.mol2 : confsearch ligand conformer 550
          25          25           1
SMALL
USER_CHARGES
 
@<TRIPOS>ATOM
       1    C1      19.914042   18.670199   20.946760 C.3        1 MOL1        -0.1684
       2    H1      20.989277   18.490605   21.058727 H          1 MOL1         0.0833
       3    H2      19.683871   18.340596   19.924481 H          1 MOL1         0.0833
       4    C2      19.608747   20.187134   21.020395 C.3        1 MOL1        -0.1684
       5    H3      20.160317   20.673544   20.204258 H          1 MOL1         0.0833
       6    H4      18.545548   20.354363   20.800967 H          1 MOL1         0.0833
       7    C3      19.971256   20.917916   22.338464 C.3        1 MOL1        -0.1684
       8    H5      19.175584   20.789742   23.081122 H          1 MOL1         0.0833
       9    H6      19.973540   21.994933   22.121596 H          1 MOL1         0.0833
      10    C4      21.349087   20.543134   22.946657 C.3        1 MOL1        -0.1760
      11    H7      22.029668   20.165517   22.174003 H          1 MOL1         0.0833
      12    H8      21.808927   21.472128   23.309639 H          1 MOL1         0.0833
      13    C5      21.287315   19.568995   24.149866 C.3        1 MOL1         0.1219
      14    H9      20.591899   19.985615   24.892445 H          1 MOL1         0.0790
      15    C6      20.850267   18.114816   23.841919 C.3        1 MOL1        -0.1760
      16    H10     21.514450   17.657327   23.098720 H          1 MOL1         0.0833
      17    H11     20.999864   17.533560   24.761702 H          1 MOL1         0.0833
      18    C7      19.362252   17.953180   23.431473 C.3        1 MOL1        -0.1684
      19    H12     18.763739   18.784854   23.820273 H          1 MOL1         0.0833
      20    H13     18.960921   17.065281   23.938989 H          1 MOL1         0.0833
      21    C8      19.111097   17.764488   21.913552 C.3        1 MOL1        -0.1684
      22    H14     18.037532   17.881250   21.712728 H          1 MOL1         0.0833
      23    H15     19.348613   16.722022   21.661062 H          1 MOL1         0.0833
      24    O1      22.584293   19.515713   24.727973 O.3        1 MOL1        -0.5508
      25    H16     23.176535   19.141894   24.043653 H          1 MOL1         0.3780
@<TRIPOS>BOND
    1     1     2    1
    2     1     3    1
    3     1     4    1
    4     4     5    1
    5     4     6    1
    6     4     7    1
    7     7     8    1
    8     7     9    1
    9     7    10    1
   10    10    11    1
   11    10    12    1
   12    10    13    1
   13    13    14    1
   14    13    15    1
   15    15    16    1
   16    15    17    1
   17    15    18    1
   18    18    19    1
   19    18    20    1
   20     1    21    1
   21    18    21    1
   22    21    22    1
   23    21    23    1
   24    13    24    1
   25    24    25    1
@<TRIPOS>SUBSTRUCTURE
       1 MOL1            1 RESIDUE      1      MOL     
@<SCITEGIC>MOL_PROPERTY
VConf Rank
SciTegic.value.IntegerValue
550

@<SCITEGIC>MOL_PROPERTY
Conf_Id
SciTegic.value.IntegerValue
15

@<SCITEGIC>MOL_PROPERTY
Delta U+W
SciTegic.value.DoubleValue
-1.271

@<SCITEGIC>MOL_PROPERTY
U+W
SciTegic.value.DoubleValue
9.643

@<SCITEGIC>MOL_PROPERTY
Grad RMS
SciTegic.value.DoubleValue
0.000000

@<SCITEGIC>MOL_PROPERTY
U
SciTegic.value.DoubleValue
11.413

@<SCITEGIC>MOL_PROPERTY
W
SciTegic.value.DoubleValue
-1.770

@<SCITEGIC>MOL_PROPERTY
W(PB)
SciTegic.value.DoubleValue
-3.908

@<SCITEGIC>MOL_PROPERTY
W(SA)
SciTegic.value.DoubleValue
2.138

@<SCITEGIC>MOL_PROPERTY
Valence
SciTegic.value.DoubleValue
17.496

@<SCITEGIC>MOL_PROPERTY
Coulomb
SciTegic.value.DoubleValue
-8.736

@<SCITEGIC>MOL_PROPERTY
VdW
SciTegic.value.DoubleValue
2.653

@<SCITEGIC>MOL_PROPERTY
VdW6
SciTegic.value.DoubleValue
-12.485

@<SCITEGIC>MOL_PROPERTY
VdW12
SciTegic.value.DoubleValue
15.138

@<SCITEGIC>MOL_PROPERTY
Bond
SciTegic.value.DoubleValue
0.414

@<SCITEGIC>MOL_PROPERTY
Angle
SciTegic.value.DoubleValue
5.295

@<SCITEGIC>MOL_PROPERTY
Pdih
SciTegic.value.DoubleValue
11.787

@<SCITEGIC>MOL_PROPERTY
Idih
SciTegic.value.DoubleValue
0.000

@<SCITEGIC>MOL_PROPERTY
Tether
SciTegic.value.DoubleValue
0.000

@<TRIPOS>MOLECULE
guest-s17_confgen4.mol2 : confsearch ligand conformer 551
          25          25           1
SMALL
USER_CHARGES
 
@<TRIPOS>ATOM
       1    C1      21.503939   17.945223   21.814425 C.3        1 MOL1        -0.1684
       2    H1      22.149170   17.327753   21.174589 H          1 MOL1         0.0833
       3    H2      21.094495   17.247038   22.555409 H          1 MOL1         0.0833
       4    C2      22.417129   18.996029   22.499054 C.3        1 MOL1        -0.1684
       5    H3      23.092225   18.465884   23.184631 H          1 MOL1         0.0833
       6    H4      23.063829   19.454284   21.738426 H          1 MOL1         0.0833
       7    C3      21.707903   20.128964   23.279305 C.3        1 MOL1        -0.1684
       8    H5      21.338037   20.883410   22.575189 H          1 MOL1         0.0833
       9    H6      22.463101   20.653088   23.880767 H          1 MOL1         0.0833
      10    C4      20.575034   19.639090   24.218498 C.3        1 MOL1        -0.1760
      11    H7      20.572695   18.545890   24.291302 H          1 MOL1         0.0833
      12    H8      20.792344   19.989091   25.236080 H          1 MOL1         0.0833
      13    C5      19.164752   20.148494   23.841830 C.3        1 MOL1         0.1219
      14    H9      19.111240   21.211800   24.116319 H          1 MOL1         0.0790
      15    C6      18.765918   20.042736   22.347097 C.3        1 MOL1        -0.1760
      16    H10     17.695656   20.281088   22.283365 H          1 MOL1         0.0833
      17    H11     19.257248   20.835773   21.770728 H          1 MOL1         0.0833
      18    C7      18.994050   18.673107   21.653473 C.3        1 MOL1        -0.1684
      19    H12     18.218514   18.576614   20.881220 H          1 MOL1         0.0833
      20    H13     18.814678   17.841972   22.347628 H          1 MOL1         0.0833
      21    C8      20.362570   18.513784   20.935456 C.3        1 MOL1        -0.1684
      22    H14     20.670544   19.451745   20.454241 H          1 MOL1         0.0833
      23    H15     20.209157   17.801976   20.112675 H          1 MOL1         0.0833
      24    O1      18.212841   19.430104   24.613963 O.3        1 MOL1        -0.5508
      25    H16     18.227570   18.513608   24.271964 H          1 MOL1         0.3780
@<TRIPOS>BOND
    1     1     2    1
    2     1     3    1
    3     1     4    1
    4     4     5    1
    5     4     6    1
    6     4     7    1
    7     7     8    1
    8     7     9    1
    9     7    10    1
   10    10    11    1
   11    10    12    1
   12    10    13    1
   13    13    14    1
   14    13    15    1
   15    15    16    1
   16    15    17    1
   17    15    18    1
   18    18    19    1
   19    18    20    1
   20     1    21    1
   21    18    21    1
   22    21    22    1
   23    21    23    1
   24    13    24    1
   25    24    25    1
@<TRIPOS>SUBSTRUCTURE
       1 MOL1            1 RESIDUE      1      MOL     
@<SCITEGIC>MOL_PROPERTY
VConf Rank
SciTegic.value.IntegerValue
551

@<SCITEGIC>MOL_PROPERTY
Conf_Id
SciTegic.value.IntegerValue
115

@<SCITEGIC>MOL_PROPERTY
Delta U+W
SciTegic.value.DoubleValue
0.038

@<SCITEGIC>MOL_PROPERTY
U+W
SciTegic.value.DoubleValue
10.952

@<SCITEGIC>MOL_PROPERTY
Grad RMS
SciTegic.value.DoubleValue
0.000000

@<SCITEGIC>MOL_PROPERTY
U
SciTegic.value.DoubleValue
12.526

@<SCITEGIC>MOL_PROPERTY
W
SciTegic.value.DoubleValue
-1.575

@<SCITEGIC>MOL_PROPERTY
W(PB)
SciTegic.value.DoubleValue
-3.698

@<SCITEGIC>MOL_PROPERTY
W(SA)
SciTegic.value.DoubleValue
2.123

@<SCITEGIC>MOL_PROPERTY
Valence
SciTegic.value.DoubleValue
19.016

@<SCITEGIC>MOL_PROPERTY
Coulomb
SciTegic.value.DoubleValue
-9.226

@<SCITEGIC>MOL_PROPERTY
VdW
SciTegic.value.DoubleValue
2.737

@<SCITEGIC>MOL_PROPERTY
VdW6
SciTegic.value.DoubleValue
-12.612

@<SCITEGIC>MOL_PROPERTY
VdW12
SciTegic.value.DoubleValue
15.349

@<SCITEGIC>MOL_PROPERTY
Bond
SciTegic.value.DoubleValue
0.421

@<SCITEGIC>MOL_PROPERTY
Angle
SciTegic.value.DoubleValue
4.883

@<SCITEGIC>MOL_PROPERTY
Pdih
SciTegic.value.DoubleValue
13.711

@<SCITEGIC>MOL_PROPERTY
Idih
SciTegic.value.DoubleValue
0.000

@<SCITEGIC>MOL_PROPERTY
Tether
SciTegic.value.DoubleValue
0.000

@<TRIPOS>MOLECULE
guest-s17_confgen4.mol2 : confsearch ligand conformer 552
          25          25           1
SMALL
USER_CHARGES
 
@<TRIPOS>ATOM
       1    C1      20.149518   17.245910   21.936467 C.3        1 MOL1        -0.1684
       2    H1      20.280048   16.157487   22.009160 H          1 MOL1         0.0833
       3    H2      19.461545   17.404065   21.094947 H          1 MOL1         0.0833
       4    C2      21.533529   17.855139   21.612601 C.3        1 MOL1        -0.1684
       5    H3      22.254652   17.591948   22.398289 H          1 MOL1         0.0833
       6    H4      21.901344   17.367575   20.699370 H          1 MOL1         0.0833
       7    C3      21.539490   19.382554   21.372053 C.3        1 MOL1        -0.1684
       8    H5      20.670327   19.676971   20.768851 H          1 MOL1         0.0833
       9    H6      22.416384   19.614095   20.751886 H          1 MOL1         0.0833
      10    C4      21.646610   20.232784   22.666493 C.3        1 MOL1        -0.1760
      11    H7      21.938468   19.616006   23.525686 H          1 MOL1         0.0833
      12    H8      22.471510   20.943908   22.523654 H          1 MOL1         0.0833
      13    C5      20.375298   21.043153   23.005642 C.3        1 MOL1         0.1219
      14    H9      19.914615   21.390579   22.069834 H          1 MOL1         0.0790
      15    C6      19.319795   20.271520   23.828400 C.3        1 MOL1        -0.1760
      16    H10     19.745299   19.969980   24.794635 H          1 MOL1         0.0833
      17    H11     18.507950   20.971733   24.065085 H          1 MOL1         0.0833
      18    C7      18.689024   19.048441   23.119263 C.3        1 MOL1        -0.1684
      19    H12     18.477981   19.282805   22.067329 H          1 MOL1         0.0833
      20    H13     17.707260   18.873699   23.580602 H          1 MOL1         0.0833
      21    C8      19.504453   17.735858   23.254185 C.3        1 MOL1        -0.1684
      22    H14     18.811429   16.951910   23.589367 H          1 MOL1         0.0833
      23    H15     20.261236   17.811889   24.046224 H          1 MOL1         0.0833
      24    O1      20.767066   22.177299   23.769763 O.3        1 MOL1        -0.5508
      25    H16     19.957010   22.705448   23.928512 H          1 MOL1         0.3780
@<TRIPOS>BOND
    1     1     2    1
    2     1     3    1
    3     1     4    1
    4     4     5    1
    5     4     6    1
    6     4     7    1
    7     7     8    1
    8     7     9    1
    9     7    10    1
   10    10    11    1
   11    10    12    1
   12    10    13    1
   13    13    14    1
   14    13    15    1
   15    15    16    1
   16    15    17    1
   17    15    18    1
   18    18    19    1
   19    18    20    1
   20     1    21    1
   21    18    21    1
   22    21    22    1
   23    21    23    1
   24    13    24    1
   25    24    25    1
@<TRIPOS>SUBSTRUCTURE
       1 MOL1            1 RESIDUE      1      MOL     
@<SCITEGIC>MOL_PROPERTY
VConf Rank
SciTegic.value.IntegerValue
552

@<SCITEGIC>MOL_PROPERTY
Conf_Id
SciTegic.value.IntegerValue
30

@<SCITEGIC>MOL_PROPERTY
Delta U+W
SciTegic.value.DoubleValue
0.000

@<SCITEGIC>MOL_PROPERTY
U+W
SciTegic.value.DoubleValue
10.913

@<SCITEGIC>MOL_PROPERTY
Grad RMS
SciTegic.value.DoubleValue
0.000000

@<SCITEGIC>MOL_PROPERTY
U
SciTegic.value.DoubleValue
13.140

@<SCITEGIC>MOL_PROPERTY
W
SciTegic.value.DoubleValue
-2.227

@<SCITEGIC>MOL_PROPERTY
W(PB)
SciTegic.value.DoubleValue
-4.367

@<SCITEGIC>MOL_PROPERTY
W(SA)
SciTegic.value.DoubleValue
2.140

@<SCITEGIC>MOL_PROPERTY
Valence
SciTegic.value.DoubleValue
19.155

@<SCITEGIC>MOL_PROPERTY
Coulomb
SciTegic.value.DoubleValue
-8.157

@<SCITEGIC>MOL_PROPERTY
VdW
SciTegic.value.DoubleValue
2.142

@<SCITEGIC>MOL_PROPERTY
VdW6
SciTegic.value.DoubleValue
-11.576

@<SCITEGIC>MOL_PROPERTY
VdW12
SciTegic.value.DoubleValue
13.718

@<SCITEGIC>MOL_PROPERTY
Bond
SciTegic.value.DoubleValue
0.294

@<SCITEGIC>MOL_PROPERTY
Angle
SciTegic.value.DoubleValue
3.547

@<SCITEGIC>MOL_PROPERTY
Pdih
SciTegic.value.DoubleValue
15.314

@<SCITEGIC>MOL_PROPERTY
Idih
SciTegic.value.DoubleValue
0.000

@<SCITEGIC>MOL_PROPERTY
Tether
SciTegic.value.DoubleValue
0.000

@<TRIPOS>MOLECULE
guest-s17_confgen4.mol2 : confsearch ligand conformer 553
          25          25           1
SMALL
USER_CHARGES
 
@<TRIPOS>ATOM
       1    C1      19.032693   20.961487   22.817334 C.3        1 MOL1        -0.1684
       2    H1      18.857673   21.690114   23.620655 H          1 MOL1         0.0833
       3    H2      18.332246   21.230498   22.014975 H          1 MOL1         0.0833
       4    C2      18.653794   19.553863   23.339938 C.3        1 MOL1        -0.1684
       5    H3      17.705918   19.640511   23.888475 H          1 MOL1         0.0833
       6    H4      18.424473   18.896242   22.493474 H          1 MOL1         0.0833
       7    C3      19.709765   18.912085   24.275272 C.3        1 MOL1        -0.1684
       8    H5      19.225463   18.647626   25.225113 H          1 MOL1         0.0833
       9    H6      20.485227   19.636861   24.549125 H          1 MOL1         0.0833
      10    C4      20.369597   17.633195   23.700278 C.3        1 MOL1        -0.1760
      11    H7      21.222515   17.366306   24.338292 H          1 MOL1         0.0833
      12    H8      19.655658   16.804019   23.789295 H          1 MOL1         0.0833
      13    C5      20.840558   17.691236   22.225489 C.3        1 MOL1         0.1219
      14    H9      19.962701   17.699663   21.565730 H          1 MOL1         0.0790
      15    C6      21.738755   18.901055   21.869291 C.3        1 MOL1        -0.1760
      16    H10     22.338068   19.200232   22.738698 H          1 MOL1         0.0833
      17    H11     22.466235   18.575324   21.113866 H          1 MOL1         0.0833
      18    C7      20.986258   20.121748   21.268119 C.3        1 MOL1        -0.1684
      19    H12     20.167791   19.799902   20.610132 H          1 MOL1         0.0833
      20    H13     21.697679   20.644189   20.613770 H          1 MOL1         0.0833
      21    C8      20.483816   21.158275   22.303476 C.3        1 MOL1        -0.1684
      22    H14     20.524502   22.150745   21.833992 H          1 MOL1         0.0833
      23    H15     21.186347   21.218854   23.144375 H          1 MOL1         0.0833
      24    O1      21.572463   16.497995   21.971108 O.3        1 MOL1        -0.5508
      25    H16     21.798441   16.503275   21.017504 H          1 MOL1         0.3780
@<TRIPOS>BOND
    1     1     2    1
    2     1     3    1
    3     1     4    1
    4     4     5    1
    5     4     6    1
    6     4     7    1
    7     7     8    1
    8     7     9    1
    9     7    10    1
   10    10    11    1
   11    10    12    1
   12    10    13    1
   13    13    14    1
   14    13    15    1
   15    15    16    1
   16    15    17    1
   17    15    18    1
   18    18    19    1
   19    18    20    1
   20     1    21    1
   21    18    21    1
   22    21    22    1
   23    21    23    1
   24    13    24    1
   25    24    25    1
@<TRIPOS>SUBSTRUCTURE
       1 MOL1            1 RESIDUE      1      MOL     
@<SCITEGIC>MOL_PROPERTY
VConf Rank
SciTegic.value.IntegerValue
553

@<SCITEGIC>MOL_PROPERTY
Conf_Id
SciTegic.value.IntegerValue
162

@<SCITEGIC>MOL_PROPERTY
Delta U+W
SciTegic.value.DoubleValue
0.219

@<SCITEGIC>MOL_PROPERTY
U+W
SciTegic.value.DoubleValue
11.132

@<SCITEGIC>MOL_PROPERTY
Grad RMS
SciTegic.value.DoubleValue
0.000000

@<SCITEGIC>MOL_PROPERTY
U
SciTegic.value.DoubleValue
13.296

@<SCITEGIC>MOL_PROPERTY
W
SciTegic.value.DoubleValue
-2.164

@<SCITEGIC>MOL_PROPERTY
W(PB)
SciTegic.value.DoubleValue
-4.311

@<SCITEGIC>MOL_PROPERTY
W(SA)
SciTegic.value.DoubleValue
2.148

@<SCITEGIC>MOL_PROPERTY
Valence
SciTegic.value.DoubleValue
18.607

@<SCITEGIC>MOL_PROPERTY
Coulomb
SciTegic.value.DoubleValue
-8.339

@<SCITEGIC>MOL_PROPERTY
VdW
SciTegic.value.DoubleValue
3.028

@<SCITEGIC>MOL_PROPERTY
VdW6
SciTegic.value.DoubleValue
-12.271

@<SCITEGIC>MOL_PROPERTY
VdW12
SciTegic.value.DoubleValue
15.299

@<SCITEGIC>MOL_PROPERTY
Bond
SciTegic.value.DoubleValue
0.423

@<SCITEGIC>MOL_PROPERTY
Angle
SciTegic.value.DoubleValue
4.488

@<SCITEGIC>MOL_PROPERTY
Pdih
SciTegic.value.DoubleValue
13.696

@<SCITEGIC>MOL_PROPERTY
Idih
SciTegic.value.DoubleValue
0.000

@<SCITEGIC>MOL_PROPERTY
Tether
SciTegic.value.DoubleValue
0.000

@<TRIPOS>MOLECULE
guest-s17_confgen4.mol2 : confsearch ligand conformer 554
          25          25           1
SMALL
USER_CHARGES
 
@<TRIPOS>ATOM
       1    C1      19.148066   20.612655   21.861097 C.3        1 MOL1        -0.1684
       2    H1      19.578513   21.335141   22.566025 H          1 MOL1         0.0833
       3    H2      18.449606   21.200425   21.249831 H          1 MOL1         0.0833
       4    C2      20.254373   20.062174   20.926882 C.3        1 MOL1        -0.1684
       5    H3      19.943336   19.112165   20.471942 H          1 MOL1         0.0833
       6    H4      20.345490   20.768749   20.090468 H          1 MOL1         0.0833
       7    C3      21.664211   19.941854   21.569875 C.3        1 MOL1        -0.1684
       8    H5      21.858672   20.774865   22.258674 H          1 MOL1         0.0833
       9    H6      22.394439   20.060416   20.757569 H          1 MOL1         0.0833
      10    C4      21.967167   18.581392   22.249987 C.3        1 MOL1        -0.1760
      11    H7      21.463429   17.771602   21.707968 H          1 MOL1         0.0833
      12    H8      23.039206   18.377762   22.129650 H          1 MOL1         0.0833
      13    C5      21.668373   18.489210   23.767732 C.3        1 MOL1         0.1219
      14    H9      22.411597   19.104576   24.295021 H          1 MOL1         0.0790
      15    C6      20.269049   18.969402   24.220900 C.3        1 MOL1        -0.1760
      16    H10     20.112520   18.657295   25.261615 H          1 MOL1         0.0833
      17    H11     20.264518   20.063905   24.261135 H          1 MOL1         0.0833
      18    C7      19.090778   18.442343   23.359877 C.3        1 MOL1        -0.1684
      19    H12     18.390126   17.903669   24.012009 H          1 MOL1         0.0833
      20    H13     19.436955   17.690377   22.640975 H          1 MOL1         0.0833
      21    C8      18.306094   19.548789   22.614336 C.3        1 MOL1        -0.1684
      22    H14     17.662351   20.070755   23.335368 H          1 MOL1         0.0833
      23    H15     17.624689   19.065337   21.901123 H          1 MOL1         0.0833
      24    O1      21.830859   17.131611   24.160954 O.3        1 MOL1        -0.5508
      25    H16     21.636292   17.090854   25.119911 H          1 MOL1         0.3780
@<TRIPOS>BOND
    1     1     2    1
    2     1     3    1
    3     1     4    1
    4     4     5    1
    5     4     6    1
    6     4     7    1
    7     7     8    1
    8     7     9    1
    9     7    10    1
   10    10    11    1
   11    10    12    1
   12    10    13    1
   13    13    14    1
   14    13    15    1
   15    15    16    1
   16    15    17    1
   17    15    18    1
   18    18    19    1
   19    18    20    1
   20     1    21    1
   21    18    21    1
   22    21    22    1
   23    21    23    1
   24    13    24    1
   25    24    25    1
@<TRIPOS>SUBSTRUCTURE
       1 MOL1            1 RESIDUE      1      MOL     
@<SCITEGIC>MOL_PROPERTY
VConf Rank
SciTegic.value.IntegerValue
554

@<SCITEGIC>MOL_PROPERTY
Conf_Id
SciTegic.value.IntegerValue
155

@<SCITEGIC>MOL_PROPERTY
Delta U+W
SciTegic.value.DoubleValue
0.339

@<SCITEGIC>MOL_PROPERTY
U+W
SciTegic.value.DoubleValue
11.252

@<SCITEGIC>MOL_PROPERTY
Grad RMS
SciTegic.value.DoubleValue
0.000000

@<SCITEGIC>MOL_PROPERTY
U
SciTegic.value.DoubleValue
13.420

@<SCITEGIC>MOL_PROPERTY
W
SciTegic.value.DoubleValue
-2.167

@<SCITEGIC>MOL_PROPERTY
W(PB)
SciTegic.value.DoubleValue
-4.325

@<SCITEGIC>MOL_PROPERTY
W(SA)
SciTegic.value.DoubleValue
2.157

@<SCITEGIC>MOL_PROPERTY
Valence
SciTegic.value.DoubleValue
18.609

@<SCITEGIC>MOL_PROPERTY
Coulomb
SciTegic.value.DoubleValue
-8.052

@<SCITEGIC>MOL_PROPERTY
VdW
SciTegic.value.DoubleValue
2.863

@<SCITEGIC>MOL_PROPERTY
VdW6
SciTegic.value.DoubleValue
-12.524

@<SCITEGIC>MOL_PROPERTY
VdW12
SciTegic.value.DoubleValue
15.387

@<SCITEGIC>MOL_PROPERTY
Bond
SciTegic.value.DoubleValue
0.430

@<SCITEGIC>MOL_PROPERTY
Angle
SciTegic.value.DoubleValue
4.724

@<SCITEGIC>MOL_PROPERTY
Pdih
SciTegic.value.DoubleValue
13.455

@<SCITEGIC>MOL_PROPERTY
Idih
SciTegic.value.DoubleValue
0.000

@<SCITEGIC>MOL_PROPERTY
Tether
SciTegic.value.DoubleValue
0.000

@<TRIPOS>MOLECULE
guest-s17_confgen4.mol2 : confsearch ligand conformer 555
          25          25           1
SMALL
USER_CHARGES
 
@<TRIPOS>ATOM
       1    C1      21.150474   17.604983   21.792833 C.3        1 MOL1        -0.1684
       2    H1      21.267892   17.692285   20.704288 H          1 MOL1         0.0833
       3    H2      21.545764   16.613027   22.050810 H          1 MOL1         0.0833
       4    C2      22.061813   18.648795   22.490498 C.3        1 MOL1        -0.1684
       5    H3      22.035420   18.485908   23.572585 H          1 MOL1         0.0833
       6    H4      23.100754   18.415056   22.220900 H          1 MOL1         0.0833
       7    C3      21.828153   20.149876   22.150828 C.3        1 MOL1        -0.1684
       8    H5      22.411348   20.377557   21.248278 H          1 MOL1         0.0833
       9    H6      22.265946   20.767361   22.946924 H          1 MOL1         0.0833
      10    C4      20.373438   20.622807   21.882418 C.3        1 MOL1        -0.1760
      11    H7      20.426296   21.659667   21.525452 H          1 MOL1         0.0833
      12    H8      19.973696   20.083286   21.019355 H          1 MOL1         0.0833
      13    C5      19.360943   20.577075   23.064394 C.3        1 MOL1         0.1219
      14    H9      18.349122   20.529179   22.636966 H          1 MOL1         0.0790
      15    C6      19.500505   19.422091   24.087660 C.3        1 MOL1        -0.1760
      16    H10     20.479344   19.489593   24.571226 H          1 MOL1         0.0833
      17    H11     18.793978   19.618342   24.904931 H          1 MOL1         0.0833
      18    C7      19.226750   17.970899   23.590261 C.3        1 MOL1        -0.1684
      19    H12     18.146158   17.792421   23.675724 H          1 MOL1         0.0833
      20    H13     19.696138   17.262622   24.286207 H          1 MOL1         0.0833
      21    C8      19.632416   17.604436   22.138425 C.3        1 MOL1        -0.1684
      22    H14     19.072846   18.229970   21.435882 H          1 MOL1         0.0833
      23    H15     19.256539   16.592371   21.935152 H          1 MOL1         0.0833
      24    O1      19.486473   21.793247   23.793333 O.3        1 MOL1        -0.5508
      25    H16     19.346518   22.522017   23.154155 H          1 MOL1         0.3780
@<TRIPOS>BOND
    1     1     2    1
    2     1     3    1
    3     1     4    1
    4     4     5    1
    5     4     6    1
    6     4     7    1
    7     7     8    1
    8     7     9    1
    9     7    10    1
   10    10    11    1
   11    10    12    1
   12    10    13    1
   13    13    14    1
   14    13    15    1
   15    15    16    1
   16    15    17    1
   17    15    18    1
   18    18    19    1
   19    18    20    1
   20     1    21    1
   21    18    21    1
   22    21    22    1
   23    21    23    1
   24    13    24    1
   25    24    25    1
@<TRIPOS>SUBSTRUCTURE
       1 MOL1            1 RESIDUE      1      MOL     
@<SCITEGIC>MOL_PROPERTY
VConf Rank
SciTegic.value.IntegerValue
555

@<SCITEGIC>MOL_PROPERTY
Conf_Id
SciTegic.value.IntegerValue
146

@<SCITEGIC>MOL_PROPERTY
Delta U+W
SciTegic.value.DoubleValue
2.553

@<SCITEGIC>MOL_PROPERTY
U+W
SciTegic.value.DoubleValue
13.466

@<SCITEGIC>MOL_PROPERTY
Grad RMS
SciTegic.value.DoubleValue
0.000000

@<SCITEGIC>MOL_PROPERTY
U
SciTegic.value.DoubleValue
15.643

@<SCITEGIC>MOL_PROPERTY
W
SciTegic.value.DoubleValue
-2.176

@<SCITEGIC>MOL_PROPERTY
W(PB)
SciTegic.value.DoubleValue
-4.307

@<SCITEGIC>MOL_PROPERTY
W(SA)
SciTegic.value.DoubleValue
2.131

@<SCITEGIC>MOL_PROPERTY
Valence
SciTegic.value.DoubleValue
18.916

@<SCITEGIC>MOL_PROPERTY
Coulomb
SciTegic.value.DoubleValue
-7.506

@<SCITEGIC>MOL_PROPERTY
VdW
SciTegic.value.DoubleValue
4.232

@<SCITEGIC>MOL_PROPERTY
VdW6
SciTegic.value.DoubleValue
-13.632

@<SCITEGIC>MOL_PROPERTY
VdW12
SciTegic.value.DoubleValue
17.864

@<SCITEGIC>MOL_PROPERTY
Bond
SciTegic.value.DoubleValue
0.735

@<SCITEGIC>MOL_PROPERTY
Angle
SciTegic.value.DoubleValue
9.140

@<SCITEGIC>MOL_PROPERTY
Pdih
SciTegic.value.DoubleValue
9.042

@<SCITEGIC>MOL_PROPERTY
Idih
SciTegic.value.DoubleValue
0.000

@<SCITEGIC>MOL_PROPERTY
Tether
SciTegic.value.DoubleValue
0.000

@<TRIPOS>MOLECULE
guest-s17_confgen4.mol2 : confsearch ligand conformer 556
          25          25           1
SMALL
USER_CHARGES
 
@<TRIPOS>ATOM
       1    C1      22.218360   19.340461   23.482777 C.3        1 MOL1        -0.1684
       2    H1      23.120952   19.071108   22.917728 H          1 MOL1         0.0833
       3    H2      22.570341   19.631553   24.481920 H          1 MOL1         0.0833
       4    C2      21.328366   18.083989   23.654036 C.3        1 MOL1        -0.1684
       5    H3      21.915615   17.342502   24.212729 H          1 MOL1         0.0833
       6    H4      20.475298   18.306943   24.304967 H          1 MOL1         0.0833
       7    C3      20.851589   17.402247   22.347018 C.3        1 MOL1        -0.1684
       8    H5      20.337890   16.472484   22.627438 H          1 MOL1         0.0833
       9    H6      21.726093   17.093434   21.758529 H          1 MOL1         0.0833
      10    C4      19.894886   18.216834   21.437694 C.3        1 MOL1        -0.1760
      11    H7      20.463984   18.914390   20.815109 H          1 MOL1         0.0833
      12    H8      19.450487   17.511203   20.722761 H          1 MOL1         0.0833
      13    C5      18.759527   18.966711   22.181146 C.3        1 MOL1         0.1219
      14    H9      18.608780   18.517571   23.172000 H          1 MOL1         0.0790
      15    C6      19.003012   20.489023   22.339407 C.3        1 MOL1        -0.1760
      16    H10     19.186136   20.929550   21.350407 H          1 MOL1         0.0833
      17    H11     18.071769   20.945566   22.699538 H          1 MOL1         0.0833
      18    C7      20.134537   20.921620   23.311064 C.3        1 MOL1        -0.1684
      19    H12     19.954955   20.526306   24.319170 H          1 MOL1         0.0833
      20    H13     20.067346   22.013216   23.415396 H          1 MOL1         0.0833
      21    C8      21.569892   20.587815   22.828553 C.3        1 MOL1        -0.1684
      22    H14     22.216095   21.445675   23.059933 H          1 MOL1         0.0833
      23    H15     21.600530   20.510906   21.735864 H          1 MOL1         0.0833
      24    O1      17.559672   18.805708   21.432965 O.3        1 MOL1        -0.5508
      25    H16     16.844986   19.235082   21.947826 H          1 MOL1         0.3780
@<TRIPOS>BOND
    1     1     2    1
    2     1     3    1
    3     1     4    1
    4     4     5    1
    5     4     6    1
    6     4     7    1
    7     7     8    1
    8     7     9    1
    9     7    10    1
   10    10    11    1
   11    10    12    1
   12    10    13    1
   13    13    14    1
   14    13    15    1
   15    15    16    1
   16    15    17    1
   17    15    18    1
   18    18    19    1
   19    18    20    1
   20     1    21    1
   21    18    21    1
   22    21    22    1
   23    21    23    1
   24    13    24    1
   25    24    25    1
@<TRIPOS>SUBSTRUCTURE
       1 MOL1            1 RESIDUE      1      MOL     
@<SCITEGIC>MOL_PROPERTY
VConf Rank
SciTegic.value.IntegerValue
556

@<SCITEGIC>MOL_PROPERTY
Conf_Id
SciTegic.value.IntegerValue
62

@<SCITEGIC>MOL_PROPERTY
Delta U+W
SciTegic.value.DoubleValue
-1.779

@<SCITEGIC>MOL_PROPERTY
U+W
SciTegic.value.DoubleValue
9.134

@<SCITEGIC>MOL_PROPERTY
Grad RMS
SciTegic.value.DoubleValue
0.000000

@<SCITEGIC>MOL_PROPERTY
U
SciTegic.value.DoubleValue
11.364

@<SCITEGIC>MOL_PROPERTY
W
SciTegic.value.DoubleValue
-2.230

@<SCITEGIC>MOL_PROPERTY
W(PB)
SciTegic.value.DoubleValue
-4.359

@<SCITEGIC>MOL_PROPERTY
W(SA)
SciTegic.value.DoubleValue
2.129

@<SCITEGIC>MOL_PROPERTY
Valence
SciTegic.value.DoubleValue
16.582

@<SCITEGIC>MOL_PROPERTY
Coulomb
SciTegic.value.DoubleValue
-8.150

@<SCITEGIC>MOL_PROPERTY
VdW
SciTegic.value.DoubleValue
2.933

@<SCITEGIC>MOL_PROPERTY
VdW6
SciTegic.value.DoubleValue
-12.531

@<SCITEGIC>MOL_PROPERTY
VdW12
SciTegic.value.DoubleValue
15.464

@<SCITEGIC>MOL_PROPERTY
Bond
SciTegic.value.DoubleValue
0.439

@<SCITEGIC>MOL_PROPERTY
Angle
SciTegic.value.DoubleValue
5.099

@<SCITEGIC>MOL_PROPERTY
Pdih
SciTegic.value.DoubleValue
11.044

@<SCITEGIC>MOL_PROPERTY
Idih
SciTegic.value.DoubleValue
0.000

@<SCITEGIC>MOL_PROPERTY
Tether
SciTegic.value.DoubleValue
0.000

@<TRIPOS>MOLECULE
guest-s17_confgen4.mol2 : confsearch ligand conformer 557
          25          25           1
SMALL
USER_CHARGES
 
@<TRIPOS>ATOM
       1    C1      20.739358   17.369241   22.621760 C.3        1 MOL1        -0.1684
       2    H1      20.557239   17.578776   23.681973 H          1 MOL1         0.0833
       3    H2      20.978073   16.297530   22.588762 H          1 MOL1         0.0833
       4    C2      21.991799   18.135020   22.127160 C.3        1 MOL1        -0.1684
       5    H3      22.844234   17.796689   22.731952 H          1 MOL1         0.0833
       6    H4      22.219602   17.830794   21.096603 H          1 MOL1         0.0833
       7    C3      21.946562   19.682886   22.196324 C.3        1 MOL1        -0.1684
       8    H5      21.430562   20.092231   21.320439 H          1 MOL1         0.0833
       9    H6      22.980394   20.041492   22.098251 H          1 MOL1         0.0833
      10    C4      21.351234   20.271139   23.503556 C.3        1 MOL1        -0.1760
      11    H7      21.439002   19.558421   24.332762 H          1 MOL1         0.0833
      12    H8      21.978198   21.125897   23.789298 H          1 MOL1         0.0833
      13    C5      19.894962   20.787017   23.382997 C.3        1 MOL1         0.1219
      14    H9      19.847169   21.490096   22.538972 H          1 MOL1         0.0790
      15    C6      18.798495   19.712261   23.176676 C.3        1 MOL1        -0.1760
      16    H10     18.812858   18.985673   23.998049 H          1 MOL1         0.0833
      17    H11     17.830168   20.223214   23.260816 H          1 MOL1         0.0833
      18    C7      18.828472   19.000552   21.797495 C.3        1 MOL1        -0.1684
      19    H12     19.322064   19.631888   21.050014 H          1 MOL1         0.0833
      20    H13     17.794676   18.906404   21.437844 H          1 MOL1         0.0833
      21    C8      19.442950   17.577409   21.799743 C.3        1 MOL1        -0.1684
      22    H14     19.616605   17.262361   20.761922 H          1 MOL1         0.0833
      23    H15     18.687192   16.886309   22.197350 H          1 MOL1         0.0833
      24    O1      19.585489   21.489262   24.580287 O.3        1 MOL1        -0.5508
      25    H16     20.244836   22.209170   24.664794 H          1 MOL1         0.3780
@<TRIPOS>BOND
    1     1     2    1
    2     1     3    1
    3     1     4    1
    4     4     5    1
    5     4     6    1
    6     4     7    1
    7     7     8    1
    8     7     9    1
    9     7    10    1
   10    10    11    1
   11    10    12    1
   12    10    13    1
   13    13    14    1
   14    13    15    1
   15    15    16    1
   16    15    17    1
   17    15    18    1
   18    18    19    1
   19    18    20    1
   20     1    21    1
   21    18    21    1
   22    21    22    1
   23    21    23    1
   24    13    24    1
   25    24    25    1
@<TRIPOS>SUBSTRUCTURE
       1 MOL1            1 RESIDUE      1      MOL     
@<SCITEGIC>MOL_PROPERTY
VConf Rank
SciTegic.value.IntegerValue
557

@<SCITEGIC>MOL_PROPERTY
Conf_Id
SciTegic.value.IntegerValue
121

@<SCITEGIC>MOL_PROPERTY
Delta U+W
SciTegic.value.DoubleValue
-1.283

@<SCITEGIC>MOL_PROPERTY
U+W
SciTegic.value.DoubleValue
9.630

@<SCITEGIC>MOL_PROPERTY
Grad RMS
SciTegic.value.DoubleValue
0.000000

@<SCITEGIC>MOL_PROPERTY
U
SciTegic.value.DoubleValue
11.876

@<SCITEGIC>MOL_PROPERTY
W
SciTegic.value.DoubleValue
-2.246

@<SCITEGIC>MOL_PROPERTY
W(PB)
SciTegic.value.DoubleValue
-4.376

@<SCITEGIC>MOL_PROPERTY
W(SA)
SciTegic.value.DoubleValue
2.130

@<SCITEGIC>MOL_PROPERTY
Valence
SciTegic.value.DoubleValue
17.153

@<SCITEGIC>MOL_PROPERTY
Coulomb
SciTegic.value.DoubleValue
-7.966

@<SCITEGIC>MOL_PROPERTY
VdW
SciTegic.value.DoubleValue
2.689

@<SCITEGIC>MOL_PROPERTY
VdW6
SciTegic.value.DoubleValue
-12.458

@<SCITEGIC>MOL_PROPERTY
VdW12
SciTegic.value.DoubleValue
15.147

@<SCITEGIC>MOL_PROPERTY
Bond
SciTegic.value.DoubleValue
0.421

@<SCITEGIC>MOL_PROPERTY
Angle
SciTegic.value.DoubleValue
5.258

@<SCITEGIC>MOL_PROPERTY
Pdih
SciTegic.value.DoubleValue
11.475

@<SCITEGIC>MOL_PROPERTY
Idih
SciTegic.value.DoubleValue
0.000

@<SCITEGIC>MOL_PROPERTY
Tether
SciTegic.value.DoubleValue
0.000

@<TRIPOS>MOLECULE
guest-s17_confgen4.mol2 : confsearch ligand conformer 558
          25          25           1
SMALL
USER_CHARGES
 
@<TRIPOS>ATOM
       1    C1      21.264185   20.479887   21.600122 C.3        1 MOL1        -0.1684
       2    H1      20.494896   21.082707   22.096031 H          1 MOL1         0.0833
       3    H2      21.822049   21.197016   20.982745 H          1 MOL1         0.0833
       4    C2      20.611133   19.455555   20.638878 C.3        1 MOL1        -0.1684
       5    H3      20.037296   20.023527   19.893893 H          1 MOL1         0.0833
       6    H4      21.396796   18.935067   20.074690 H          1 MOL1         0.0833
       7    C3      19.661291   18.403476   21.266457 C.3        1 MOL1        -0.1684
       8    H5      20.233195   17.559063   21.667502 H          1 MOL1         0.0833
       9    H6      19.070751   17.970788   20.447317 H          1 MOL1         0.0833
      10    C4      18.678055   18.951474   22.335343 C.3        1 MOL1        -0.1760
      11    H7      18.497013   20.023948   22.194585 H          1 MOL1         0.0833
      12    H8      17.706051   18.470198   22.163903 H          1 MOL1         0.0833
      13    C5      19.075071   18.655720   23.803275 C.3        1 MOL1         0.1219
      14    H9      19.249545   17.574312   23.898650 H          1 MOL1         0.0790
      15    C6      20.323710   19.398559   24.342232 C.3        1 MOL1        -0.1760
      16    H10     20.191554   20.484155   24.256978 H          1 MOL1         0.0833
      17    H11     20.383335   19.198238   25.420036 H          1 MOL1         0.0833
      18    C7      21.671736   18.949426   23.717402 C.3        1 MOL1        -0.1684
      19    H12     21.592631   17.929465   23.324445 H          1 MOL1         0.0833
      20    H13     22.415764   18.876435   24.522460 H          1 MOL1         0.0833
      21    C8      22.253870   19.902964   22.642877 C.3        1 MOL1        -0.1684
      22    H14     23.074614   19.392866   22.120695 H          1 MOL1         0.0833
      23    H15     22.715884   20.753060   23.163231 H          1 MOL1         0.0833
      24    O1      17.971417   19.014379   24.625307 O.3        1 MOL1        -0.5508
      25    H16     18.206721   18.760288   25.541942 H          1 MOL1         0.3780
@<TRIPOS>BOND
    1     1     2    1
    2     1     3    1
    3     1     4    1
    4     4     5    1
    5     4     6    1
    6     4     7    1
    7     7     8    1
    8     7     9    1
    9     7    10    1
   10    10    11    1
   11    10    12    1
   12    10    13    1
   13    13    14    1
   14    13    15    1
   15    15    16    1
   16    15    17    1
   17    15    18    1
   18    18    19    1
   19    18    20    1
   20     1    21    1
   21    18    21    1
   22    21    22    1
   23    21    23    1
   24    13    24    1
   25    24    25    1
@<TRIPOS>SUBSTRUCTURE
       1 MOL1            1 RESIDUE      1      MOL     
@<SCITEGIC>MOL_PROPERTY
VConf Rank
SciTegic.value.IntegerValue
558

@<SCITEGIC>MOL_PROPERTY
Conf_Id
SciTegic.value.IntegerValue
24

@<SCITEGIC>MOL_PROPERTY
Delta U+W
SciTegic.value.DoubleValue
-1.236

@<SCITEGIC>MOL_PROPERTY
U+W
SciTegic.value.DoubleValue
9.678

@<SCITEGIC>MOL_PROPERTY
Grad RMS
SciTegic.value.DoubleValue
0.000000

@<SCITEGIC>MOL_PROPERTY
U
SciTegic.value.DoubleValue
11.876

@<SCITEGIC>MOL_PROPERTY
W
SciTegic.value.DoubleValue
-2.199

@<SCITEGIC>MOL_PROPERTY
W(PB)
SciTegic.value.DoubleValue
-4.335

@<SCITEGIC>MOL_PROPERTY
W(SA)
SciTegic.value.DoubleValue
2.137

@<SCITEGIC>MOL_PROPERTY
Valence
SciTegic.value.DoubleValue
17.153

@<SCITEGIC>MOL_PROPERTY
Coulomb
SciTegic.value.DoubleValue
-7.966

@<SCITEGIC>MOL_PROPERTY
VdW
SciTegic.value.DoubleValue
2.689

@<SCITEGIC>MOL_PROPERTY
VdW6
SciTegic.value.DoubleValue
-12.458

@<SCITEGIC>MOL_PROPERTY
VdW12
SciTegic.value.DoubleValue
15.147

@<SCITEGIC>MOL_PROPERTY
Bond
SciTegic.value.DoubleValue
0.421

@<SCITEGIC>MOL_PROPERTY
Angle
SciTegic.value.DoubleValue
5.258

@<SCITEGIC>MOL_PROPERTY
Pdih
SciTegic.value.DoubleValue
11.475

@<SCITEGIC>MOL_PROPERTY
Idih
SciTegic.value.DoubleValue
0.000

@<SCITEGIC>MOL_PROPERTY
Tether
SciTegic.value.DoubleValue
0.000

@<TRIPOS>MOLECULE
guest-s17_confgen4.mol2 : confsearch ligand conformer 559
          25          25           1
SMALL
USER_CHARGES
 
@<TRIPOS>ATOM
       1    C1      22.149813   19.071959   23.663822 C.3        1 MOL1        -0.1684
       2    H1      22.916695   18.324801   23.418009 H          1 MOL1         0.0833
       3    H2      22.544608   19.631198   24.523031 H          1 MOL1         0.0833
       4    C2      22.011568   20.059141   22.474469 C.3        1 MOL1        -0.1684
       5    H3      21.516170   20.984216   22.795577 H          1 MOL1         0.0833
       6    H4      23.028326   20.369061   22.196584 H          1 MOL1         0.0833
       7    C3      21.320538   19.501866   21.205383 C.3        1 MOL1        -0.1684
       8    H5      21.559182   18.438790   21.066191 H          1 MOL1         0.0833
       9    H6      21.770997   20.016186   20.345288 H          1 MOL1         0.0833
      10    C4      19.787319   19.748523   21.125831 C.3        1 MOL1        -0.1760
      11    H7      19.526630   20.726549   21.550075 H          1 MOL1         0.0833
      12    H8      19.535634   19.814027   20.058444 H          1 MOL1         0.0833
      13    C5      18.912198   18.634488   21.750467 C.3        1 MOL1         0.1219
      14    H9      19.454818   17.682678   21.677688 H          1 MOL1         0.0790
      15    C6      18.487313   18.870460   23.222064 C.3        1 MOL1        -0.1760
      16    H10     17.732463   19.666779   23.260115 H          1 MOL1         0.0833
      17    H11     17.983499   17.960002   23.572578 H          1 MOL1         0.0833
      18    C7      19.612637   19.222715   24.227152 C.3        1 MOL1        -0.1684
      19    H12     19.204554   19.127174   25.242582 H          1 MOL1         0.0833
      20    H13     19.876197   20.282387   24.130601 H          1 MOL1         0.0833
      21    C8      20.869577   18.323983   24.109943 C.3        1 MOL1        -0.1684
      22    H14     20.687180   17.475023   23.440874 H          1 MOL1         0.0833
      23    H15     21.067680   17.867975   25.089577 H          1 MOL1         0.0833
      24    O1      17.721719   18.517326   20.981871 O.3        1 MOL1        -0.5508
      25    H16     17.265548   19.381615   21.044195 H          1 MOL1         0.3780
@<TRIPOS>BOND
    1     1     2    1
    2     1     3    1
    3     1     4    1
    4     4     5    1
    5     4     6    1
    6     4     7    1
    7     7     8    1
    8     7     9    1
    9     7    10    1
   10    10    11    1
   11    10    12    1
   12    10    13    1
   13    13    14    1
   14    13    15    1
   15    15    16    1
   16    15    17    1
   17    15    18    1
   18    18    19    1
   19    18    20    1
   20     1    21    1
   21    18    21    1
   22    21    22    1
   23    21    23    1
   24    13    24    1
   25    24    25    1
@<TRIPOS>SUBSTRUCTURE
       1 MOL1            1 RESIDUE      1      MOL     
@<SCITEGIC>MOL_PROPERTY
VConf Rank
SciTegic.value.IntegerValue
559

@<SCITEGIC>MOL_PROPERTY
Conf_Id
SciTegic.value.IntegerValue
167

@<SCITEGIC>MOL_PROPERTY
Delta U+W
SciTegic.value.DoubleValue
0.388

@<SCITEGIC>MOL_PROPERTY
U+W
SciTegic.value.DoubleValue
11.301

@<SCITEGIC>MOL_PROPERTY
Grad RMS
SciTegic.value.DoubleValue
0.000000

@<SCITEGIC>MOL_PROPERTY
U
SciTegic.value.DoubleValue
13.202

@<SCITEGIC>MOL_PROPERTY
W
SciTegic.value.DoubleValue
-1.901

@<SCITEGIC>MOL_PROPERTY
W(PB)
SciTegic.value.DoubleValue
-4.065

@<SCITEGIC>MOL_PROPERTY
W(SA)
SciTegic.value.DoubleValue
2.163

@<SCITEGIC>MOL_PROPERTY
Valence
SciTegic.value.DoubleValue
18.957

@<SCITEGIC>MOL_PROPERTY
Coulomb
SciTegic.value.DoubleValue
-8.753

@<SCITEGIC>MOL_PROPERTY
VdW
SciTegic.value.DoubleValue
2.998

@<SCITEGIC>MOL_PROPERTY
VdW6
SciTegic.value.DoubleValue
-12.294

@<SCITEGIC>MOL_PROPERTY
VdW12
SciTegic.value.DoubleValue
15.292

@<SCITEGIC>MOL_PROPERTY
Bond
SciTegic.value.DoubleValue
0.419

@<SCITEGIC>MOL_PROPERTY
Angle
SciTegic.value.DoubleValue
4.543

@<SCITEGIC>MOL_PROPERTY
Pdih
SciTegic.value.DoubleValue
13.996

@<SCITEGIC>MOL_PROPERTY
Idih
SciTegic.value.DoubleValue
0.000

@<SCITEGIC>MOL_PROPERTY
Tether
SciTegic.value.DoubleValue
0.000

@<TRIPOS>MOLECULE
guest-s17_confgen4.mol2 : confsearch ligand conformer 560
          25          25           1
SMALL
USER_CHARGES
 
@<TRIPOS>ATOM
       1    C1      21.073653   21.023161   21.962221 C.3        1 MOL1        -0.1684
       2    H1      21.690247   21.667660   22.603265 H          1 MOL1         0.0833
       3    H2      21.029574   21.529754   20.988394 H          1 MOL1         0.0833
       4    C2      19.633119   20.975998   22.534881 C.3        1 MOL1        -0.1684
       5    H3      19.653914   20.905684   23.628237 H          1 MOL1         0.0833
       6    H4      19.174548   21.953841   22.333463 H          1 MOL1         0.0833
       7    C3      18.713111   19.880418   21.936438 C.3        1 MOL1        -0.1684
       8    H5      19.037455   19.601611   20.925578 H          1 MOL1         0.0833
       9    H6      17.715697   20.322032   21.805874 H          1 MOL1         0.0833
      10    C4      18.536998   18.619430   22.825900 C.3        1 MOL1        -0.1760
      11    H7      18.173537   18.919920   23.817285 H          1 MOL1         0.0833
      12    H8      17.732405   18.015093   22.386362 H          1 MOL1         0.0833
      13    C5      19.774442   17.702809   22.993073 C.3        1 MOL1         0.1219
      14    H9      20.156146   17.430028   22.000073 H          1 MOL1         0.0790
      15    C6      20.913881   18.325724   23.840647 C.3        1 MOL1        -0.1760
      16    H10     20.515162   19.115963   24.484712 H          1 MOL1         0.0833
      17    H11     21.302170   17.574313   24.541045 H          1 MOL1         0.0833
      18    C7      22.121210   18.857458   23.025552 C.3        1 MOL1        -0.1684
      19    H12     22.731409   17.994985   22.724318 H          1 MOL1         0.0833
      20    H13     22.760618   19.458153   23.686518 H          1 MOL1         0.0833
      21    C8      21.799689   19.671430   21.746904 C.3        1 MOL1        -0.1684
      22    H14     21.250923   19.055238   21.025578 H          1 MOL1         0.0833
      23    H15     22.755480   19.890551   21.251656 H          1 MOL1         0.0833
      24    O1      19.336396   16.514382   23.641084 O.3        1 MOL1        -0.5508
      25    H16     20.110226   15.914207   23.679740 H          1 MOL1         0.3780
@<TRIPOS>BOND
    1     1     2    1
    2     1     3    1
    3     1     4    1
    4     4     5    1
    5     4     6    1
    6     4     7    1
    7     7     8    1
    8     7     9    1
    9     7    10    1
   10    10    11    1
   11    10    12    1
   12    10    13    1
   13    13    14    1
   14    13    15    1
   15    15    16    1
   16    15    17    1
   17    15    18    1
   18    18    19    1
   19    18    20    1
   20     1    21    1
   21    18    21    1
   22    21    22    1
   23    21    23    1
   24    13    24    1
   25    24    25    1
@<TRIPOS>SUBSTRUCTURE
       1 MOL1            1 RESIDUE      1      MOL     
@<SCITEGIC>MOL_PROPERTY
VConf Rank
SciTegic.value.IntegerValue
560

@<SCITEGIC>MOL_PROPERTY
Conf_Id
SciTegic.value.IntegerValue
60

@<SCITEGIC>MOL_PROPERTY
Delta U+W
SciTegic.value.DoubleValue
-1.838

@<SCITEGIC>MOL_PROPERTY
U+W
SciTegic.value.DoubleValue
9.075

@<SCITEGIC>MOL_PROPERTY
Grad RMS
SciTegic.value.DoubleValue
0.000000

@<SCITEGIC>MOL_PROPERTY
U
SciTegic.value.DoubleValue
11.150

@<SCITEGIC>MOL_PROPERTY
W
SciTegic.value.DoubleValue
-2.074

@<SCITEGIC>MOL_PROPERTY
W(PB)
SciTegic.value.DoubleValue
-4.196

@<SCITEGIC>MOL_PROPERTY
W(SA)
SciTegic.value.DoubleValue
2.121

@<SCITEGIC>MOL_PROPERTY
Valence
SciTegic.value.DoubleValue
16.582

@<SCITEGIC>MOL_PROPERTY
Coulomb
SciTegic.value.DoubleValue
-8.361

@<SCITEGIC>MOL_PROPERTY
VdW
SciTegic.value.DoubleValue
2.928

@<SCITEGIC>MOL_PROPERTY
VdW6
SciTegic.value.DoubleValue
-12.539

@<SCITEGIC>MOL_PROPERTY
VdW12
SciTegic.value.DoubleValue
15.467

@<SCITEGIC>MOL_PROPERTY
Bond
SciTegic.value.DoubleValue
0.441

@<SCITEGIC>MOL_PROPERTY
Angle
SciTegic.value.DoubleValue
5.093

@<SCITEGIC>MOL_PROPERTY
Pdih
SciTegic.value.DoubleValue
11.049

@<SCITEGIC>MOL_PROPERTY
Idih
SciTegic.value.DoubleValue
0.000

@<SCITEGIC>MOL_PROPERTY
Tether
SciTegic.value.DoubleValue
0.000

@<TRIPOS>MOLECULE
guest-s17_confgen4.mol2 : confsearch ligand conformer 561
          25          25           1
SMALL
USER_CHARGES
 
@<TRIPOS>ATOM
       1    C1      20.030617   17.276955   23.375310 C.3        1 MOL1        -0.1684
       2    H1      20.877698   16.636025   23.654895 H          1 MOL1         0.0833
       3    H2      19.131461   16.667882   23.541039 H          1 MOL1         0.0833
       4    C2      20.103965   17.588754   21.859373 C.3        1 MOL1        -0.1684
       5    H3      20.042153   16.630094   21.326484 H          1 MOL1         0.0833
       6    H4      19.211460   18.138997   21.540290 H          1 MOL1         0.0833
       7    C3      21.388709   18.303755   21.370419 C.3        1 MOL1        -0.1684
       8    H5      21.345229   18.349383   20.273618 H          1 MOL1         0.0833
       9    H6      22.262467   17.681969   21.608073 H          1 MOL1         0.0833
      10    C4      21.635543   19.740992   21.897850 C.3        1 MOL1        -0.1760
      11    H7      22.076784   19.705646   22.899015 H          1 MOL1         0.0833
      12    H8      22.419817   20.185481   21.270725 H          1 MOL1         0.0833
      13    C5      20.388310   20.662476   21.896922 C.3        1 MOL1         0.1219
      14    H9      19.630305   20.261592   21.210721 H          1 MOL1         0.0790
      15    C6      19.750549   20.864914   23.293949 C.3        1 MOL1        -0.1760
      16    H10     20.514957   21.234657   23.989804 H          1 MOL1         0.0833
      17    H11     19.012262   21.673259   23.208537 H          1 MOL1         0.0833
      18    C7      19.030981   19.639554   23.920818 C.3        1 MOL1        -0.1684
      19    H12     18.233310   19.276456   23.260023 H          1 MOL1         0.0833
      20    H13     18.515507   19.997644   24.822462 H          1 MOL1         0.0833
      21    C8      19.969930   18.482200   24.349481 C.3        1 MOL1        -0.1684
      22    H14     19.617329   18.097214   25.316172 H          1 MOL1         0.0833
      23    H15     20.976620   18.861113   24.558774 H          1 MOL1         0.0833
      24    O1      20.782341   21.944320   21.421758 O.3        1 MOL1        -0.5508
      25    H16     21.120410   21.814357   20.511080 H          1 MOL1         0.3780
@<TRIPOS>BOND
    1     1     2    1
    2     1     3    1
    3     1     4    1
    4     4     5    1
    5     4     6    1
    6     4     7    1
    7     7     8    1
    8     7     9    1
    9     7    10    1
   10    10    11    1
   11    10    12    1
   12    10    13    1
   13    13    14    1
   14    13    15    1
   15    15    16    1
   16    15    17    1
   17    15    18    1
   18    18    19    1
   19    18    20    1
   20     1    21    1
   21    18    21    1
   22    21    22    1
   23    21    23    1
   24    13    24    1
   25    24    25    1
@<TRIPOS>SUBSTRUCTURE
       1 MOL1            1 RESIDUE      1      MOL     
@<SCITEGIC>MOL_PROPERTY
VConf Rank
SciTegic.value.IntegerValue
561

@<SCITEGIC>MOL_PROPERTY
Conf_Id
SciTegic.value.IntegerValue
129

@<SCITEGIC>MOL_PROPERTY
Delta U+W
SciTegic.value.DoubleValue
-1.846

@<SCITEGIC>MOL_PROPERTY
U+W
SciTegic.value.DoubleValue
9.067

@<SCITEGIC>MOL_PROPERTY
Grad RMS
SciTegic.value.DoubleValue
0.000000

@<SCITEGIC>MOL_PROPERTY
U
SciTegic.value.DoubleValue
11.150

@<SCITEGIC>MOL_PROPERTY
W
SciTegic.value.DoubleValue
-2.083

@<SCITEGIC>MOL_PROPERTY
W(PB)
SciTegic.value.DoubleValue
-4.217

@<SCITEGIC>MOL_PROPERTY
W(SA)
SciTegic.value.DoubleValue
2.134

@<SCITEGIC>MOL_PROPERTY
Valence
SciTegic.value.DoubleValue
16.583

@<SCITEGIC>MOL_PROPERTY
Coulomb
SciTegic.value.DoubleValue
-8.361

@<SCITEGIC>MOL_PROPERTY
VdW
SciTegic.value.DoubleValue
2.928

@<SCITEGIC>MOL_PROPERTY
VdW6
SciTegic.value.DoubleValue
-12.539

@<SCITEGIC>MOL_PROPERTY
VdW12
SciTegic.value.DoubleValue
15.467

@<SCITEGIC>MOL_PROPERTY
Bond
SciTegic.value.DoubleValue
0.441

@<SCITEGIC>MOL_PROPERTY
Angle
SciTegic.value.DoubleValue
5.093

@<SCITEGIC>MOL_PROPERTY
Pdih
SciTegic.value.DoubleValue
11.049

@<SCITEGIC>MOL_PROPERTY
Idih
SciTegic.value.DoubleValue
0.000

@<SCITEGIC>MOL_PROPERTY
Tether
SciTegic.value.DoubleValue
0.000

@<TRIPOS>MOLECULE
guest-s17_confgen4.mol2 : confsearch ligand conformer 562
          25          25           1
SMALL
USER_CHARGES
 
@<TRIPOS>ATOM
       1    C1      18.689911   19.561100   21.360615 C.3        1 MOL1        -0.1684
       2    H1      18.811393   19.439526   20.275734 H          1 MOL1         0.0833
       3    H2      17.643726   19.861490   21.509553 H          1 MOL1         0.0833
       4    C2      19.580471   20.731804   21.847002 C.3        1 MOL1        -0.1684
       5    H3      19.240186   21.637679   21.327002 H          1 MOL1         0.0833
       6    H4      19.394965   20.937028   22.907507 H          1 MOL1         0.0833
       7    C3      21.099741   20.591258   21.578054 C.3        1 MOL1        -0.1684
       8    H5      21.575744   21.537585   21.869495 H          1 MOL1         0.0833
       9    H6      21.269527   20.493094   20.497299 H          1 MOL1         0.0833
      10    C4      21.840449   19.442401   22.310689 C.3        1 MOL1        -0.1760
      11    H7      21.699582   18.499065   21.773277 H          1 MOL1         0.0833
      12    H8      22.915682   19.650981   22.227114 H          1 MOL1         0.0833
      13    C5      21.468051   19.269873   23.806058 C.3        1 MOL1         0.1219
      14    H9      21.017835   20.197133   24.184694 H          1 MOL1         0.0790
      15    C6      20.512071   18.084334   24.091540 C.3        1 MOL1        -0.1760
      16    H10     20.945103   17.160049   23.687317 H          1 MOL1         0.0833
      17    H11     20.471586   17.943314   25.179983 H          1 MOL1         0.0833
      18    C7      19.050268   18.225331   23.587287 C.3        1 MOL1        -0.1684
      19    H12     18.576669   19.120376   24.010834 H          1 MOL1         0.0833
      20    H13     18.485187   17.379153   24.001572 H          1 MOL1         0.0833
      21    C8      18.887685   18.184161   22.045724 C.3        1 MOL1        -0.1684
      22    H14     18.001896   17.577741   21.811878 H          1 MOL1         0.0833
      23    H15     19.719610   17.639554   21.585176 H          1 MOL1         0.0833
      24    O1      22.664399   19.032910   24.537334 O.3        1 MOL1        -0.5508
      25    H16     23.043629   18.201473   24.185423 H          1 MOL1         0.3780
@<TRIPOS>BOND
    1     1     2    1
    2     1     3    1
    3     1     4    1
    4     4     5    1
    5     4     6    1
    6     4     7    1
    7     7     8    1
    8     7     9    1
    9     7    10    1
   10    10    11    1
   11    10    12    1
   12    10    13    1
   13    13    14    1
   14    13    15    1
   15    15    16    1
   16    15    17    1
   17    15    18    1
   18    18    19    1
   19    18    20    1
   20     1    21    1
   21    18    21    1
   22    21    22    1
   23    21    23    1
   24    13    24    1
   25    24    25    1
@<TRIPOS>SUBSTRUCTURE
       1 MOL1            1 RESIDUE      1      MOL     
@<SCITEGIC>MOL_PROPERTY
VConf Rank
SciTegic.value.IntegerValue
562

@<SCITEGIC>MOL_PROPERTY
Conf_Id
SciTegic.value.IntegerValue
140

@<SCITEGIC>MOL_PROPERTY
Delta U+W
SciTegic.value.DoubleValue
-1.702

@<SCITEGIC>MOL_PROPERTY
U+W
SciTegic.value.DoubleValue
9.211

@<SCITEGIC>MOL_PROPERTY
Grad RMS
SciTegic.value.DoubleValue
0.000000

@<SCITEGIC>MOL_PROPERTY
U
SciTegic.value.DoubleValue
11.181

@<SCITEGIC>MOL_PROPERTY
W
SciTegic.value.DoubleValue
-1.969

@<SCITEGIC>MOL_PROPERTY
W(PB)
SciTegic.value.DoubleValue
-4.093

@<SCITEGIC>MOL_PROPERTY
W(SA)
SciTegic.value.DoubleValue
2.124

@<SCITEGIC>MOL_PROPERTY
Valence
SciTegic.value.DoubleValue
16.954

@<SCITEGIC>MOL_PROPERTY
Coulomb
SciTegic.value.DoubleValue
-8.661

@<SCITEGIC>MOL_PROPERTY
VdW
SciTegic.value.DoubleValue
2.887

@<SCITEGIC>MOL_PROPERTY
VdW6
SciTegic.value.DoubleValue
-12.561

@<SCITEGIC>MOL_PROPERTY
VdW12
SciTegic.value.DoubleValue
15.448

@<SCITEGIC>MOL_PROPERTY
Bond
SciTegic.value.DoubleValue
0.433

@<SCITEGIC>MOL_PROPERTY
Angle
SciTegic.value.DoubleValue
5.120

@<SCITEGIC>MOL_PROPERTY
Pdih
SciTegic.value.DoubleValue
11.401

@<SCITEGIC>MOL_PROPERTY
Idih
SciTegic.value.DoubleValue
0.000

@<SCITEGIC>MOL_PROPERTY
Tether
SciTegic.value.DoubleValue
0.000

@<TRIPOS>MOLECULE
guest-s17_confgen4.mol2 : confsearch ligand conformer 563
          25          25           1
SMALL
USER_CHARGES
 
@<TRIPOS>ATOM
       1    C1      21.816213   20.407934   23.267458 C.3        1 MOL1        -0.1684
       2    H1      21.748421   21.497945   23.150035 H          1 MOL1         0.0833
       3    H2      22.795277   20.220218   23.729103 H          1 MOL1         0.0833
       4    C2      21.822872   19.750786   21.862980 C.3        1 MOL1        -0.1684
       5    H3      21.103871   20.246606   21.201163 H          1 MOL1         0.0833
       6    H4      22.801503   19.964727   21.411801 H          1 MOL1         0.0833
       7    C3      21.609812   18.214925   21.846069 C.3        1 MOL1        -0.1684
       8    H5      21.919898   17.762460   22.796814 H          1 MOL1         0.0833
       9    H6      22.291409   17.795335   21.093518 H          1 MOL1         0.0833
      10    C4      20.175524   17.761042   21.461591 C.3        1 MOL1        -0.1760
      11    H7      19.909584   18.193326   20.488132 H          1 MOL1         0.0833
      12    H8      20.205712   16.674142   21.306762 H          1 MOL1         0.0833
      13    C5      19.049728   18.059517   22.483544 C.3        1 MOL1         0.1219
      14    H9      19.332925   17.652240   23.463236 H          1 MOL1         0.0790
      15    C6      18.699161   19.563464   22.624315 C.3        1 MOL1        -0.1760
      16    H10     19.006372   20.110305   21.727027 H          1 MOL1         0.0833
      17    H11     17.607341   19.678986   22.658940 H          1 MOL1         0.0833
      18    C7      19.266306   20.253859   23.891979 C.3        1 MOL1        -0.1684
      19    H12     18.635325   19.963791   24.743317 H          1 MOL1         0.0833
      20    H13     19.146950   21.340967   23.789754 H          1 MOL1         0.0833
      21    C8      20.734255   19.933179   24.269548 C.3        1 MOL1        -0.1684
      22    H14     20.852455   18.864161   24.480337 H          1 MOL1         0.0833
      23    H15     20.939248   20.427885   25.228740 H          1 MOL1         0.0833
      24    O1      17.886015   17.371493   22.042462 O.3        1 MOL1        -0.5508
      25    H16     17.656564   17.748322   21.168222 H          1 MOL1         0.3780
@<TRIPOS>BOND
    1     1     2    1
    2     1     3    1
    3     1     4    1
    4     4     5    1
    5     4     6    1
    6     4     7    1
    7     7     8    1
    8     7     9    1
    9     7    10    1
   10    10    11    1
   11    10    12    1
   12    10    13    1
   13    13    14    1
   14    13    15    1
   15    15    16    1
   16    15    17    1
   17    15    18    1
   18    18    19    1
   19    18    20    1
   20     1    21    1
   21    18    21    1
   22    21    22    1
   23    21    23    1
   24    13    24    1
   25    24    25    1
@<TRIPOS>SUBSTRUCTURE
       1 MOL1            1 RESIDUE      1      MOL     
@<SCITEGIC>MOL_PROPERTY
VConf Rank
SciTegic.value.IntegerValue
563

@<SCITEGIC>MOL_PROPERTY
Conf_Id
SciTegic.value.IntegerValue
68

@<SCITEGIC>MOL_PROPERTY
Delta U+W
SciTegic.value.DoubleValue
-1.765

@<SCITEGIC>MOL_PROPERTY
U+W
SciTegic.value.DoubleValue
9.148

@<SCITEGIC>MOL_PROPERTY
Grad RMS
SciTegic.value.DoubleValue
0.000000

@<SCITEGIC>MOL_PROPERTY
U
SciTegic.value.DoubleValue
11.181

@<SCITEGIC>MOL_PROPERTY
W
SciTegic.value.DoubleValue
-2.032

@<SCITEGIC>MOL_PROPERTY
W(PB)
SciTegic.value.DoubleValue
-4.147

@<SCITEGIC>MOL_PROPERTY
W(SA)
SciTegic.value.DoubleValue
2.114

@<SCITEGIC>MOL_PROPERTY
Valence
SciTegic.value.DoubleValue
16.955

@<SCITEGIC>MOL_PROPERTY
Coulomb
SciTegic.value.DoubleValue
-8.661

@<SCITEGIC>MOL_PROPERTY
VdW
SciTegic.value.DoubleValue
2.887

@<SCITEGIC>MOL_PROPERTY
VdW6
SciTegic.value.DoubleValue
-12.561

@<SCITEGIC>MOL_PROPERTY
VdW12
SciTegic.value.DoubleValue
15.448

@<SCITEGIC>MOL_PROPERTY
Bond
SciTegic.value.DoubleValue
0.433

@<SCITEGIC>MOL_PROPERTY
Angle
SciTegic.value.DoubleValue
5.121

@<SCITEGIC>MOL_PROPERTY
Pdih
SciTegic.value.DoubleValue
11.402

@<SCITEGIC>MOL_PROPERTY
Idih
SciTegic.value.DoubleValue
0.000

@<SCITEGIC>MOL_PROPERTY
Tether
SciTegic.value.DoubleValue
0.000

@<TRIPOS>MOLECULE
guest-s17_confgen4.mol2 : confsearch ligand conformer 564
          25          25           1
SMALL
USER_CHARGES
 
@<TRIPOS>ATOM
       1    C1      21.483226   17.799274   22.592172 C.3        1 MOL1        -0.1684
       2    H1      22.290043   17.053719   22.608639 H          1 MOL1         0.0833
       3    H2      20.770634   17.411531   21.855450 H          1 MOL1         0.0833
       4    C2      22.083391   19.146940   22.113734 C.3        1 MOL1        -0.1684
       5    H3      22.367529   19.778169   22.965456 H          1 MOL1         0.0833
       6    H4      23.026721   18.923144   21.596954 H          1 MOL1         0.0833
       7    C3      21.196917   19.936437   21.115005 C.3        1 MOL1        -0.1684
       8    H5      20.966296   19.299343   20.250136 H          1 MOL1         0.0833
       9    H6      21.798780   20.765176   20.717780 H          1 MOL1         0.0833
      10    C4      19.879870   20.535988   21.675789 C.3        1 MOL1        -0.1760
      11    H7      20.092850   21.199567   22.522464 H          1 MOL1         0.0833
      12    H8      19.471681   21.189504   20.892904 H          1 MOL1         0.0833
      13    C5      18.804140   19.484488   22.052673 C.3        1 MOL1         0.1219
      14    H9      19.028499   18.543313   21.537507 H          1 MOL1         0.0790
      15    C6      18.666959   19.212202   23.570924 C.3        1 MOL1        -0.1760
      16    H10     18.107830   20.041202   24.024476 H          1 MOL1         0.0833
      17    H11     18.043583   18.319018   23.707705 H          1 MOL1         0.0833
      18    C7      19.977913   19.040636   24.380879 C.3        1 MOL1        -0.1684
      19    H12     19.697633   18.933011   25.437564 H          1 MOL1         0.0833
      20    H13     20.573711   19.959910   24.345280 H          1 MOL1         0.0833
      21    C8      20.852864   17.817405   24.008983 C.3        1 MOL1        -0.1684
      22    H14     20.270477   16.897074   24.151828 H          1 MOL1         0.0833
      23    H15     21.671539   17.765998   24.739823 H          1 MOL1         0.0833
      24    O1      17.541122   19.940861   21.584491 O.3        1 MOL1        -0.5508
      25    H16     17.366390   20.789223   22.041261 H          1 MOL1         0.3780
@<TRIPOS>BOND
    1     1     2    1
    2     1     3    1
    3     1     4    1
    4     4     5    1
    5     4     6    1
    6     4     7    1
    7     7     8    1
    8     7     9    1
    9     7    10    1
   10    10    11    1
   11    10    12    1
   12    10    13    1
   13    13    14    1
   14    13    15    1
   15    15    16    1
   16    15    17    1
   17    15    18    1
   18    18    19    1
   19    18    20    1
   20     1    21    1
   21    18    21    1
   22    21    22    1
   23    21    23    1
   24    13    24    1
   25    24    25    1
@<TRIPOS>SUBSTRUCTURE
       1 MOL1            1 RESIDUE      1      MOL     
@<SCITEGIC>MOL_PROPERTY
VConf Rank
SciTegic.value.IntegerValue
564

@<SCITEGIC>MOL_PROPERTY
Conf_Id
SciTegic.value.IntegerValue
165

@<SCITEGIC>MOL_PROPERTY
Delta U+W
SciTegic.value.DoubleValue
-1.999

@<SCITEGIC>MOL_PROPERTY
U+W
SciTegic.value.DoubleValue
8.915

@<SCITEGIC>MOL_PROPERTY
Grad RMS
SciTegic.value.DoubleValue
0.000000

@<SCITEGIC>MOL_PROPERTY
U
SciTegic.value.DoubleValue
10.935

@<SCITEGIC>MOL_PROPERTY
W
SciTegic.value.DoubleValue
-2.020

@<SCITEGIC>MOL_PROPERTY
W(PB)
SciTegic.value.DoubleValue
-4.135

@<SCITEGIC>MOL_PROPERTY
W(SA)
SciTegic.value.DoubleValue
2.115

@<SCITEGIC>MOL_PROPERTY
Valence
SciTegic.value.DoubleValue
16.757

@<SCITEGIC>MOL_PROPERTY
Coulomb
SciTegic.value.DoubleValue
-8.731

@<SCITEGIC>MOL_PROPERTY
VdW
SciTegic.value.DoubleValue
2.908

@<SCITEGIC>MOL_PROPERTY
VdW6
SciTegic.value.DoubleValue
-12.597

@<SCITEGIC>MOL_PROPERTY
VdW12
SciTegic.value.DoubleValue
15.506

@<SCITEGIC>MOL_PROPERTY
Bond
SciTegic.value.DoubleValue
0.434

@<SCITEGIC>MOL_PROPERTY
Angle
SciTegic.value.DoubleValue
5.069

@<SCITEGIC>MOL_PROPERTY
Pdih
SciTegic.value.DoubleValue
11.254

@<SCITEGIC>MOL_PROPERTY
Idih
SciTegic.value.DoubleValue
0.000

@<SCITEGIC>MOL_PROPERTY
Tether
SciTegic.value.DoubleValue
0.000

@<TRIPOS>MOLECULE
guest-s17_confgen4.mol2 : confsearch ligand conformer 565
          25          25           1
SMALL
USER_CHARGES
 
@<TRIPOS>ATOM
       1    C1      21.106933   18.271781   21.277525 C.3        1 MOL1        -0.1684
       2    H1      21.538442   17.656660   20.475958 H          1 MOL1         0.0833
       3    H2      21.449155   19.288309   21.053119 H          1 MOL1         0.0833
       4    C2      21.715467   17.769248   22.612665 C.3        1 MOL1        -0.1684
       5    H3      21.736784   16.671373   22.577723 H          1 MOL1         0.0833
       6    H4      22.766510   18.083876   22.666392 H          1 MOL1         0.0833
       7    C3      20.990926   18.175260   23.920539 C.3        1 MOL1        -0.1684
       8    H5      21.494871   17.657803   24.748172 H          1 MOL1         0.0833
       9    H6      19.969016   17.779117   23.928571 H          1 MOL1         0.0833
      10    C4      20.987993   19.688972   24.256245 C.3        1 MOL1        -0.1760
      11    H7      20.539974   19.803822   25.252540 H          1 MOL1         0.0833
      12    H8      22.025963   20.033401   24.349546 H          1 MOL1         0.0833
      13    C5      20.240046   20.628367   23.278558 C.3        1 MOL1         0.1219
      14    H9      20.862469   20.797575   22.392095 H          1 MOL1         0.0790
      15    C6      18.848648   20.115006   22.826171 C.3        1 MOL1        -0.1760
      16    H10     18.444290   19.395691   23.548112 H          1 MOL1         0.0833
      17    H11     18.146121   20.959276   22.840191 H          1 MOL1         0.0833
      18    C7      18.814629   19.523147   21.391760 C.3        1 MOL1        -0.1684
      19    H12     19.194020   20.270787   20.681772 H          1 MOL1         0.0833
      20    H13     17.761824   19.366770   21.119876 H          1 MOL1         0.0833
      21    C8      19.562056   18.181162   21.174276 C.3        1 MOL1        -0.1684
      22    H14     19.318569   17.839955   20.158745 H          1 MOL1         0.0833
      23    H15     19.166162   17.402919   21.839267 H          1 MOL1         0.0833
      24    O1      20.068416   21.878612   23.936544 O.3        1 MOL1        -0.5508
      25    H16     20.964257   22.199701   24.170658 H          1 MOL1         0.3780
@<TRIPOS>BOND
    1     1     2    1
    2     1     3    1
    3     1     4    1
    4     4     5    1
    5     4     6    1
    6     4     7    1
    7     7     8    1
    8     7     9    1
    9     7    10    1
   10    10    11    1
   11    10    12    1
   12    10    13    1
   13    13    14    1
   14    13    15    1
   15    15    16    1
   16    15    17    1
   17    15    18    1
   18    18    19    1
   19    18    20    1
   20     1    21    1
   21    18    21    1
   22    21    22    1
   23    21    23    1
   24    13    24    1
   25    24    25    1
@<TRIPOS>SUBSTRUCTURE
       1 MOL1            1 RESIDUE      1      MOL     
@<SCITEGIC>MOL_PROPERTY
VConf Rank
SciTegic.value.IntegerValue
565

@<SCITEGIC>MOL_PROPERTY
Conf_Id
SciTegic.value.IntegerValue
133

@<SCITEGIC>MOL_PROPERTY
Delta U+W
SciTegic.value.DoubleValue
-2.139

@<SCITEGIC>MOL_PROPERTY
U+W
SciTegic.value.DoubleValue
8.774

@<SCITEGIC>MOL_PROPERTY
Grad RMS
SciTegic.value.DoubleValue
0.000000

@<SCITEGIC>MOL_PROPERTY
U
SciTegic.value.DoubleValue
10.905

@<SCITEGIC>MOL_PROPERTY
W
SciTegic.value.DoubleValue
-2.131

@<SCITEGIC>MOL_PROPERTY
W(PB)
SciTegic.value.DoubleValue
-4.281

@<SCITEGIC>MOL_PROPERTY
W(SA)
SciTegic.value.DoubleValue
2.150

@<SCITEGIC>MOL_PROPERTY
Valence
SciTegic.value.DoubleValue
16.378

@<SCITEGIC>MOL_PROPERTY
Coulomb
SciTegic.value.DoubleValue
-8.448

@<SCITEGIC>MOL_PROPERTY
VdW
SciTegic.value.DoubleValue
2.976

@<SCITEGIC>MOL_PROPERTY
VdW6
SciTegic.value.DoubleValue
-12.570

@<SCITEGIC>MOL_PROPERTY
VdW12
SciTegic.value.DoubleValue
15.545

@<SCITEGIC>MOL_PROPERTY
Bond
SciTegic.value.DoubleValue
0.439

@<SCITEGIC>MOL_PROPERTY
Angle
SciTegic.value.DoubleValue
5.049

@<SCITEGIC>MOL_PROPERTY
Pdih
SciTegic.value.DoubleValue
10.889

@<SCITEGIC>MOL_PROPERTY
Idih
SciTegic.value.DoubleValue
0.000

@<SCITEGIC>MOL_PROPERTY
Tether
SciTegic.value.DoubleValue
0.000

@<TRIPOS>MOLECULE
guest-s17_confgen4.mol2 : confsearch ligand conformer 566
          25          25           1
SMALL
USER_CHARGES
 
@<TRIPOS>ATOM
       1    C1      21.617447   18.950472   21.426380 C.3        1 MOL1        -0.1684
       2    H1      22.352079   18.735871   20.638123 H          1 MOL1         0.0833
       3    H2      22.211702   19.379001   22.241259 H          1 MOL1         0.0833
       4    C2      20.977678   17.607636   21.865707 C.3        1 MOL1        -0.1684
       5    H3      20.039415   17.421709   21.327467 H          1 MOL1         0.0833
       6    H4      21.653110   16.801044   21.549144 H          1 MOL1         0.0833
       7    C3      20.774215   17.452588   23.395882 C.3        1 MOL1        -0.1684
       8    H5      21.736056   17.594085   23.907574 H          1 MOL1         0.0833
       9    H6      20.487840   16.410075   23.590634 H          1 MOL1         0.0833
      10    C4      19.705090   18.366178   24.052629 C.3        1 MOL1        -0.1760
      11    H7      18.728448   18.217623   23.577002 H          1 MOL1         0.0833
      12    H8      19.576016   18.015438   25.085515 H          1 MOL1         0.0833
      13    C5      20.078030   19.870751   24.089527 C.3        1 MOL1         0.1219
      14    H9      21.162198   19.971943   23.962259 H          1 MOL1         0.0790
      15    C6      19.356008   20.740775   23.031467 C.3        1 MOL1        -0.1760
      16    H10     18.326200   20.912006   23.373069 H          1 MOL1         0.0833
      17    H11     19.833837   21.728505   23.003431 H          1 MOL1         0.0833
      18    C7      19.278861   20.180639   21.587749 C.3        1 MOL1        -0.1684
      19    H12     18.675763   20.882953   20.996372 H          1 MOL1         0.0833
      20    H13     18.709111   19.244497   21.569995 H          1 MOL1         0.0833
      21    C8      20.631408   20.001722   20.853617 C.3        1 MOL1        -0.1684
      22    H14     21.141946   20.972231   20.790105 H          1 MOL1         0.0833
      23    H15     20.405732   19.717804   19.816570 H          1 MOL1         0.0833
      24    O1      19.738648   20.389168   25.370766 O.3        1 MOL1        -0.5508
      25    H16     20.025530   21.326200   25.381160 H          1 MOL1         0.3780
@<TRIPOS>BOND
    1     1     2    1
    2     1     3    1
    3     1     4    1
    4     4     5    1
    5     4     6    1
    6     4     7    1
    7     7     8    1
    8     7     9    1
    9     7    10    1
   10    10    11    1
   11    10    12    1
   12    10    13    1
   13    13    14    1
   14    13    15    1
   15    15    16    1
   16    15    17    1
   17    15    18    1
   18    18    19    1
   19    18    20    1
   20     1    21    1
   21    18    21    1
   22    21    22    1
   23    21    23    1
   24    13    24    1
   25    24    25    1
@<TRIPOS>SUBSTRUCTURE
       1 MOL1            1 RESIDUE      1      MOL     
@<SCITEGIC>MOL_PROPERTY
VConf Rank
SciTegic.value.IntegerValue
566

@<SCITEGIC>MOL_PROPERTY
Conf_Id
SciTegic.value.IntegerValue
95

@<SCITEGIC>MOL_PROPERTY
Delta U+W
SciTegic.value.DoubleValue
-2.190

@<SCITEGIC>MOL_PROPERTY
U+W
SciTegic.value.DoubleValue
8.723

@<SCITEGIC>MOL_PROPERTY
Grad RMS
SciTegic.value.DoubleValue
0.000000

@<SCITEGIC>MOL_PROPERTY
U
SciTegic.value.DoubleValue
10.905

@<SCITEGIC>MOL_PROPERTY
W
SciTegic.value.DoubleValue
-2.182

@<SCITEGIC>MOL_PROPERTY
W(PB)
SciTegic.value.DoubleValue
-4.296

@<SCITEGIC>MOL_PROPERTY
W(SA)
SciTegic.value.DoubleValue
2.114

@<SCITEGIC>MOL_PROPERTY
Valence
SciTegic.value.DoubleValue
16.377

@<SCITEGIC>MOL_PROPERTY
Coulomb
SciTegic.value.DoubleValue
-8.448

@<SCITEGIC>MOL_PROPERTY
VdW
SciTegic.value.DoubleValue
2.976

@<SCITEGIC>MOL_PROPERTY
VdW6
SciTegic.value.DoubleValue
-12.570

@<SCITEGIC>MOL_PROPERTY
VdW12
SciTegic.value.DoubleValue
15.546

@<SCITEGIC>MOL_PROPERTY
Bond
SciTegic.value.DoubleValue
0.439

@<SCITEGIC>MOL_PROPERTY
Angle
SciTegic.value.DoubleValue
5.049

@<SCITEGIC>MOL_PROPERTY
Pdih
SciTegic.value.DoubleValue
10.889

@<SCITEGIC>MOL_PROPERTY
Idih
SciTegic.value.DoubleValue
0.000

@<SCITEGIC>MOL_PROPERTY
Tether
SciTegic.value.DoubleValue
0.000

@<TRIPOS>MOLECULE
guest-s17_confgen4.mol2 : confsearch ligand conformer 567
          25          25           1
SMALL
USER_CHARGES
 
@<TRIPOS>ATOM
       1    C1      20.722720   17.532229   23.336168 C.3        1 MOL1        -0.1684
       2    H1      20.887833   16.558930   23.818173 H          1 MOL1         0.0833
       3    H2      21.681768   17.741602   22.851787 H          1 MOL1         0.0833
       4    C2      20.435441   18.559138   24.470692 C.3        1 MOL1        -0.1684
       5    H3      19.876193   18.032141   25.255841 H          1 MOL1         0.0833
       6    H4      21.386480   18.851410   24.936066 H          1 MOL1         0.0833
       7    C3      19.624556   19.833721   24.117989 C.3        1 MOL1        -0.1684
       8    H5      19.422176   20.369037   25.055698 H          1 MOL1         0.0833
       9    H6      18.628533   19.543422   23.769144 H          1 MOL1         0.0833
      10    C4      20.279845   20.853408   23.139543 C.3        1 MOL1        -0.1760
      11    H7      19.492892   21.482600   22.703431 H          1 MOL1         0.0833
      12    H8      20.897819   21.528540   23.745817 H          1 MOL1         0.0833
      13    C5      21.178537   20.305340   22.002149 C.3        1 MOL1         0.1219
      14    H9      21.983054   19.719111   22.458114 H          1 MOL1         0.0790
      15    C6      20.480850   19.460383   20.897671 C.3        1 MOL1        -0.1760
      16    H10     20.089936   20.152154   20.139414 H          1 MOL1         0.0833
      17    H11     21.246222   18.863443   20.385658 H          1 MOL1         0.0833
      18    C7      19.306769   18.530390   21.307141 C.3        1 MOL1        -0.1684
      19    H12     18.881683   18.107957   20.386508 H          1 MOL1         0.0833
      20    H13     18.489693   19.136211   21.711417 H          1 MOL1         0.0833
      21    C8      19.630557   17.336052   22.251717 C.3        1 MOL1        -0.1684
      22    H14     19.953027   16.496375   21.620984 H          1 MOL1         0.0833
      23    H15     18.701188   17.000839   22.731663 H          1 MOL1         0.0833
      24    O1      21.781945   21.423222   21.361171 O.3        1 MOL1        -0.5508
      25    H16     22.273364   21.914294   22.052122 H          1 MOL1         0.3780
@<TRIPOS>BOND
    1     1     2    1
    2     1     3    1
    3     1     4    1
    4     4     5    1
    5     4     6    1
    6     4     7    1
    7     7     8    1
    8     7     9    1
    9     7    10    1
   10    10    11    1
   11    10    12    1
   12    10    13    1
   13    13    14    1
   14    13    15    1
   15    15    16    1
   16    15    17    1
   17    15    18    1
   18    18    19    1
   19    18    20    1
   20     1    21    1
   21    18    21    1
   22    21    22    1
   23    21    23    1
   24    13    24    1
   25    24    25    1
@<TRIPOS>SUBSTRUCTURE
       1 MOL1            1 RESIDUE      1      MOL     
@<SCITEGIC>MOL_PROPERTY
VConf Rank
SciTegic.value.IntegerValue
567

@<SCITEGIC>MOL_PROPERTY
Conf_Id
SciTegic.value.IntegerValue
161

@<SCITEGIC>MOL_PROPERTY
Delta U+W
SciTegic.value.DoubleValue
2.120

@<SCITEGIC>MOL_PROPERTY
U+W
SciTegic.value.DoubleValue
13.033

@<SCITEGIC>MOL_PROPERTY
Grad RMS
SciTegic.value.DoubleValue
0.000000

@<SCITEGIC>MOL_PROPERTY
U
SciTegic.value.DoubleValue
15.076

@<SCITEGIC>MOL_PROPERTY
W
SciTegic.value.DoubleValue
-2.043

@<SCITEGIC>MOL_PROPERTY
W(PB)
SciTegic.value.DoubleValue
-4.186

@<SCITEGIC>MOL_PROPERTY
W(SA)
SciTegic.value.DoubleValue
2.143

@<SCITEGIC>MOL_PROPERTY
Valence
SciTegic.value.DoubleValue
18.884

@<SCITEGIC>MOL_PROPERTY
Coulomb
SciTegic.value.DoubleValue
-8.074

@<SCITEGIC>MOL_PROPERTY
VdW
SciTegic.value.DoubleValue
4.266

@<SCITEGIC>MOL_PROPERTY
VdW6
SciTegic.value.DoubleValue
-13.486

@<SCITEGIC>MOL_PROPERTY
VdW12
SciTegic.value.DoubleValue
17.752

@<SCITEGIC>MOL_PROPERTY
Bond
SciTegic.value.DoubleValue
0.713

@<SCITEGIC>MOL_PROPERTY
Angle
SciTegic.value.DoubleValue
8.955

@<SCITEGIC>MOL_PROPERTY
Pdih
SciTegic.value.DoubleValue
9.215

@<SCITEGIC>MOL_PROPERTY
Idih
SciTegic.value.DoubleValue
0.000

@<SCITEGIC>MOL_PROPERTY
Tether
SciTegic.value.DoubleValue
0.000

@<TRIPOS>MOLECULE
guest-s17_confgen4.mol2 : confsearch ligand conformer 568
          25          25           1
SMALL
USER_CHARGES
 
@<TRIPOS>ATOM
       1    C1      20.164490   19.292790   24.605000 C.3        1 MOL1        -0.1684
       2    H1      20.347725   19.360634   25.686116 H          1 MOL1         0.0833
       3    H2      19.113476   18.989352   24.518220 H          1 MOL1         0.0833
       4    C2      21.083445   18.184822   24.032634 C.3        1 MOL1        -0.1684
       5    H3      22.071895   18.590312   23.778209 H          1 MOL1         0.0833
       6    H4      21.264082   17.469282   24.846602 H          1 MOL1         0.0833
       7    C3      20.485452   17.376248   22.847753 C.3        1 MOL1        -0.1684
       8    H5      19.408330   17.210670   22.984424 H          1 MOL1         0.0833
       9    H6      20.939655   16.376486   22.884860 H          1 MOL1         0.0833
      10    C4      20.780198   17.950724   21.437939 C.3        1 MOL1        -0.1760
      11    H7      21.773167   18.416380   21.425921 H          1 MOL1         0.0833
      12    H8      20.856224   17.104573   20.742323 H          1 MOL1         0.0833
      13    C5      19.711933   18.908021   20.851234 C.3        1 MOL1         0.1219
      14    H9      18.820716   18.311423   20.609208 H          1 MOL1         0.0790
      15    C6      19.256752   20.072109   21.761505 C.3        1 MOL1        -0.1760
      16    H10     18.688638   20.785510   21.149632 H          1 MOL1         0.0833
      17    H11     18.527755   19.693255   22.485934 H          1 MOL1         0.0833
      18    C7      20.406364   20.830729   22.477130 C.3        1 MOL1        -0.1684
      19    H12     20.345891   21.895111   22.212248 H          1 MOL1         0.0833
      20    H13     21.386306   20.504590   22.110461 H          1 MOL1         0.0833
      21    C8      20.373109   20.714685   24.019890 C.3        1 MOL1        -0.1684
      22    H14     19.574771   21.363470   24.405306 H          1 MOL1         0.0833
      23    H15     21.310817   21.127561   24.416146 H          1 MOL1         0.0833
      24    O1      20.231662   19.461639   19.650504 O.3        1 MOL1        -0.5508
      25    H16     20.930089   20.089682   19.925406 H          1 MOL1         0.3780
@<TRIPOS>BOND
    1     1     2    1
    2     1     3    1
    3     1     4    1
    4     4     5    1
    5     4     6    1
    6     4     7    1
    7     7     8    1
    8     7     9    1
    9     7    10    1
   10    10    11    1
   11    10    12    1
   12    10    13    1
   13    13    14    1
   14    13    15    1
   15    15    16    1
   16    15    17    1
   17    15    18    1
   18    18    19    1
   19    18    20    1
   20     1    21    1
   21    18    21    1
   22    21    22    1
   23    21    23    1
   24    13    24    1
   25    24    25    1
@<TRIPOS>SUBSTRUCTURE
       1 MOL1            1 RESIDUE      1      MOL     
@<SCITEGIC>MOL_PROPERTY
VConf Rank
SciTegic.value.IntegerValue
568

@<SCITEGIC>MOL_PROPERTY
Conf_Id
SciTegic.value.IntegerValue
164

@<SCITEGIC>MOL_PROPERTY
Delta U+W
SciTegic.value.DoubleValue
0.008

@<SCITEGIC>MOL_PROPERTY
U+W
SciTegic.value.DoubleValue
10.922

@<SCITEGIC>MOL_PROPERTY
Grad RMS
SciTegic.value.DoubleValue
0.000000

@<SCITEGIC>MOL_PROPERTY
U
SciTegic.value.DoubleValue
12.433

@<SCITEGIC>MOL_PROPERTY
W
SciTegic.value.DoubleValue
-1.511

@<SCITEGIC>MOL_PROPERTY
W(PB)
SciTegic.value.DoubleValue
-3.669

@<SCITEGIC>MOL_PROPERTY
W(SA)
SciTegic.value.DoubleValue
2.157

@<SCITEGIC>MOL_PROPERTY
Valence
SciTegic.value.DoubleValue
19.007

@<SCITEGIC>MOL_PROPERTY
Coulomb
SciTegic.value.DoubleValue
-9.373

@<SCITEGIC>MOL_PROPERTY
VdW
SciTegic.value.DoubleValue
2.799

@<SCITEGIC>MOL_PROPERTY
VdW6
SciTegic.value.DoubleValue
-12.597

@<SCITEGIC>MOL_PROPERTY
VdW12
SciTegic.value.DoubleValue
15.396

@<SCITEGIC>MOL_PROPERTY
Bond
SciTegic.value.DoubleValue
0.425

@<SCITEGIC>MOL_PROPERTY
Angle
SciTegic.value.DoubleValue
4.784

@<SCITEGIC>MOL_PROPERTY
Pdih
SciTegic.value.DoubleValue
13.799

@<SCITEGIC>MOL_PROPERTY
Idih
SciTegic.value.DoubleValue
0.000

@<SCITEGIC>MOL_PROPERTY
Tether
SciTegic.value.DoubleValue
0.000

@<TRIPOS>MOLECULE
guest-s17_confgen4.mol2 : confsearch ligand conformer 569
          25          25           1
SMALL
USER_CHARGES
 
@<TRIPOS>ATOM
       1    C1      19.768561   17.646258   21.886922 C.3        1 MOL1        -0.1684
       2    H1      19.354957   18.430513   21.242875 H          1 MOL1         0.0833
       3    H2      19.435383   16.706283   21.426365 H          1 MOL1         0.0833
       4    C2      19.135081   17.716239   23.298845 C.3        1 MOL1        -0.1684
       5    H3      18.051897   17.576158   23.180562 H          1 MOL1         0.0833
       6    H4      19.481563   16.861081   23.894800 H          1 MOL1         0.0833
       7    C3      19.358498   19.018083   24.110048 C.3        1 MOL1        -0.1684
       8    H5      20.328448   18.992538   24.619565 H          1 MOL1         0.0833
       9    H6      18.620752   19.023071   24.924117 H          1 MOL1         0.0833
      10    C4      19.200930   20.335710   23.305182 C.3        1 MOL1        -0.1760
      11    H7      18.556583   20.186692   22.430317 H          1 MOL1         0.0833
      12    H8      18.661272   21.046417   23.945420 H          1 MOL1         0.0833
      13    C5      20.532992   21.014573   22.898699 C.3        1 MOL1         0.1219
      14    H9      21.144770   21.137666   23.803782 H          1 MOL1         0.0790
      15    C6      21.387565   20.281214   21.834571 C.3        1 MOL1        -0.1760
      16    H10     20.815142   20.130414   20.911332 H          1 MOL1         0.0833
      17    H11     22.207859   20.958027   21.560196 H          1 MOL1         0.0833
      18    C7      22.028150   18.951539   22.314570 C.3        1 MOL1        -0.1684
      19    H12     22.133797   18.947539   23.405389 H          1 MOL1         0.0833
      20    H13     23.059731   18.912417   21.938651 H          1 MOL1         0.0833
      21    C8      21.316599   17.661864   21.831663 C.3        1 MOL1        -0.1684
      22    H14     21.708523   16.805572   22.397053 H          1 MOL1         0.0833
      23    H15     21.610116   17.487465   20.787472 H          1 MOL1         0.0833
      24    O1      20.221244   22.303218   22.387421 O.3        1 MOL1        -0.5508
      25    H16     19.678229   22.158258   21.585605 H          1 MOL1         0.3780
@<TRIPOS>BOND
    1     1     2    1
    2     1     3    1
    3     1     4    1
    4     4     5    1
    5     4     6    1
    6     4     7    1
    7     7     8    1
    8     7     9    1
    9     7    10    1
   10    10    11    1
   11    10    12    1
   12    10    13    1
   13    13    14    1
   14    13    15    1
   15    15    16    1
   16    15    17    1
   17    15    18    1
   18    18    19    1
   19    18    20    1
   20     1    21    1
   21    18    21    1
   22    21    22    1
   23    21    23    1
   24    13    24    1
   25    24    25    1
@<TRIPOS>SUBSTRUCTURE
       1 MOL1            1 RESIDUE      1      MOL     
@<SCITEGIC>MOL_PROPERTY
VConf Rank
SciTegic.value.IntegerValue
569

@<SCITEGIC>MOL_PROPERTY
Conf_Id
SciTegic.value.IntegerValue
15

@<SCITEGIC>MOL_PROPERTY
Delta U+W
SciTegic.value.DoubleValue
-1.271

@<SCITEGIC>MOL_PROPERTY
U+W
SciTegic.value.DoubleValue
9.643

@<SCITEGIC>MOL_PROPERTY
Grad RMS
SciTegic.value.DoubleValue
0.000000

@<SCITEGIC>MOL_PROPERTY
U
SciTegic.value.DoubleValue
11.413

@<SCITEGIC>MOL_PROPERTY
W
SciTegic.value.DoubleValue
-1.770

@<SCITEGIC>MOL_PROPERTY
W(PB)
SciTegic.value.DoubleValue
-3.908

@<SCITEGIC>MOL_PROPERTY
W(SA)
SciTegic.value.DoubleValue
2.138

@<SCITEGIC>MOL_PROPERTY
Valence
SciTegic.value.DoubleValue
17.496

@<SCITEGIC>MOL_PROPERTY
Coulomb
SciTegic.value.DoubleValue
-8.736

@<SCITEGIC>MOL_PROPERTY
VdW
SciTegic.value.DoubleValue
2.653

@<SCITEGIC>MOL_PROPERTY
VdW6
SciTegic.value.DoubleValue
-12.485

@<SCITEGIC>MOL_PROPERTY
VdW12
SciTegic.value.DoubleValue
15.138

@<SCITEGIC>MOL_PROPERTY
Bond
SciTegic.value.DoubleValue
0.414

@<SCITEGIC>MOL_PROPERTY
Angle
SciTegic.value.DoubleValue
5.295

@<SCITEGIC>MOL_PROPERTY
Pdih
SciTegic.value.DoubleValue
11.787

@<SCITEGIC>MOL_PROPERTY
Idih
SciTegic.value.DoubleValue
0.000

@<SCITEGIC>MOL_PROPERTY
Tether
SciTegic.value.DoubleValue
0.000

@<TRIPOS>MOLECULE
guest-s17_confgen4.mol2 : confsearch ligand conformer 570
          25          25           1
SMALL
USER_CHARGES
 
@<TRIPOS>ATOM
       1    C1      19.690132   17.562036   21.938826 C.3        1 MOL1        -0.1684
       2    H1      19.243495   16.724268   21.385979 H          1 MOL1         0.0833
       3    H2      19.689211   17.237459   22.987069 H          1 MOL1         0.0833
       4    C2      21.142349   17.725506   21.418086 C.3        1 MOL1        -0.1684
       5    H3      21.713848   16.836298   21.717288 H          1 MOL1         0.0833
       6    H4      21.129192   17.716127   20.319672 H          1 MOL1         0.0833
       7    C3      21.908820   18.987008   21.883346 C.3        1 MOL1        -0.1684
       8    H5      21.581909   19.852512   21.295295 H          1 MOL1         0.0833
       9    H6      22.968544   18.856566   21.624975 H          1 MOL1         0.0833
      10    C4      21.798011   19.271363   23.403977 C.3        1 MOL1        -0.1760
      11    H7      21.320848   18.433785   23.924716 H          1 MOL1         0.0833
      12    H8      22.811787   19.322743   23.822087 H          1 MOL1         0.0833
      13    C5      21.080346   20.594134   23.758236 C.3        1 MOL1         0.1219
      14    H9      21.767565   21.418907   23.520937 H          1 MOL1         0.0790
      15    C6      19.749734   20.881236   23.015590 C.3        1 MOL1        -0.1760
      16    H10     19.294489   21.755482   23.500131 H          1 MOL1         0.0833
      17    H11     19.956043   21.213252   21.991034 H          1 MOL1         0.0833
      18    C7      18.695904   19.741918   22.994712 C.3        1 MOL1        -0.1684
      19    H12     17.709209   20.224268   22.964503 H          1 MOL1         0.0833
      20    H13     18.709420   19.171607   23.932462 H          1 MOL1         0.0833
      21    C8      18.768528   18.794580   21.765461 C.3        1 MOL1        -0.1684
      22    H14     19.024126   19.347838   20.851808 H          1 MOL1         0.0833
      23    H15     17.752317   18.411707   21.598431 H          1 MOL1         0.0833
      24    O1      20.826487   20.600405   25.156064 O.3        1 MOL1        -0.5508
      25    H16     20.142325   19.917543   25.306950 H          1 MOL1         0.3780
@<TRIPOS>BOND
    1     1     2    1
    2     1     3    1
    3     1     4    1
    4     4     5    1
    5     4     6    1
    6     4     7    1
    7     7     8    1
    8     7     9    1
    9     7    10    1
   10    10    11    1
   11    10    12    1
   12    10    13    1
   13    13    14    1
   14    13    15    1
   15    15    16    1
   16    15    17    1
   17    15    18    1
   18    18    19    1
   19    18    20    1
   20     1    21    1
   21    18    21    1
   22    21    22    1
   23    21    23    1
   24    13    24    1
   25    24    25    1
@<TRIPOS>SUBSTRUCTURE
       1 MOL1            1 RESIDUE      1      MOL     
@<SCITEGIC>MOL_PROPERTY
VConf Rank
SciTegic.value.IntegerValue
570

@<SCITEGIC>MOL_PROPERTY
Conf_Id
SciTegic.value.IntegerValue
115

@<SCITEGIC>MOL_PROPERTY
Delta U+W
SciTegic.value.DoubleValue
0.038

@<SCITEGIC>MOL_PROPERTY
U+W
SciTegic.value.DoubleValue
10.952

@<SCITEGIC>MOL_PROPERTY
Grad RMS
SciTegic.value.DoubleValue
0.000000

@<SCITEGIC>MOL_PROPERTY
U
SciTegic.value.DoubleValue
12.526

@<SCITEGIC>MOL_PROPERTY
W
SciTegic.value.DoubleValue
-1.575

@<SCITEGIC>MOL_PROPERTY
W(PB)
SciTegic.value.DoubleValue
-3.698

@<SCITEGIC>MOL_PROPERTY
W(SA)
SciTegic.value.DoubleValue
2.123

@<SCITEGIC>MOL_PROPERTY
Valence
SciTegic.value.DoubleValue
19.016

@<SCITEGIC>MOL_PROPERTY
Coulomb
SciTegic.value.DoubleValue
-9.226

@<SCITEGIC>MOL_PROPERTY
VdW
SciTegic.value.DoubleValue
2.737

@<SCITEGIC>MOL_PROPERTY
VdW6
SciTegic.value.DoubleValue
-12.612

@<SCITEGIC>MOL_PROPERTY
VdW12
SciTegic.value.DoubleValue
15.349

@<SCITEGIC>MOL_PROPERTY
Bond
SciTegic.value.DoubleValue
0.421

@<SCITEGIC>MOL_PROPERTY
Angle
SciTegic.value.DoubleValue
4.883

@<SCITEGIC>MOL_PROPERTY
Pdih
SciTegic.value.DoubleValue
13.711

@<SCITEGIC>MOL_PROPERTY
Idih
SciTegic.value.DoubleValue
0.000

@<SCITEGIC>MOL_PROPERTY
Tether
SciTegic.value.DoubleValue
0.000

@<TRIPOS>MOLECULE
guest-s17_confgen4.mol2 : confsearch ligand conformer 571
          25          25           1
SMALL
USER_CHARGES
 
@<TRIPOS>ATOM
       1    C1      19.386665   20.070089   24.397535 C.3        1 MOL1        -0.1684
       2    H1      19.385793   20.590381   25.365151 H          1 MOL1         0.0833
       3    H2      18.335101   20.033489   24.082339 H          1 MOL1         0.0833
       4    C2      19.917039   18.638621   24.644800 C.3        1 MOL1        -0.1684
       5    H3      20.926486   18.679671   25.075992 H          1 MOL1         0.0833
       6    H4      19.284093   18.183047   25.418642 H          1 MOL1         0.0833
       7    C3      19.901428   17.709151   23.409188 C.3        1 MOL1        -0.1684
       8    H5      18.971206   17.845015   22.841555 H          1 MOL1         0.0833
       9    H6      19.869817   16.674273   23.776873 H          1 MOL1         0.0833
      10    C4      21.149013   17.840885   22.494794 C.3        1 MOL1        -0.1760
      11    H7      21.951503   18.399001   22.993117 H          1 MOL1         0.0833
      12    H8      21.549183   16.829798   22.339462 H          1 MOL1         0.0833
      13    C5      20.861548   18.455565   21.106455 C.3        1 MOL1         0.1219
      14    H9      19.873233   18.116190   20.764797 H          1 MOL1         0.0790
      15    C6      20.904506   19.999189   21.063874 C.3        1 MOL1        -0.1760
      16    H10     21.905387   20.353832   21.343259 H          1 MOL1         0.0833
      17    H11     20.759813   20.305663   20.019580 H          1 MOL1         0.0833
      18    C7      19.828430   20.717328   21.914172 C.3        1 MOL1        -0.1684
      19    H12     18.860436   20.208027   21.816031 H          1 MOL1         0.0833
      20    H13     19.677975   21.714012   21.476892 H          1 MOL1         0.0833
      21    C8      20.214008   20.918148   23.403132 C.3        1 MOL1        -0.1684
      22    H14     20.036409   21.974276   23.648602 H          1 MOL1         0.0833
      23    H15     21.288372   20.759406   23.565525 H          1 MOL1         0.0833
      24    O1      21.847195   17.975582   20.199944 O.3        1 MOL1        -0.5508
      25    H16     21.617202   18.332118   19.316587 H          1 MOL1         0.3780
@<TRIPOS>BOND
    1     1     2    1
    2     1     3    1
    3     1     4    1
    4     4     5    1
    5     4     6    1
    6     4     7    1
    7     7     8    1
    8     7     9    1
    9     7    10    1
   10    10    11    1
   11    10    12    1
   12    10    13    1
   13    13    14    1
   14    13    15    1
   15    15    16    1
   16    15    17    1
   17    15    18    1
   18    18    19    1
   19    18    20    1
   20     1    21    1
   21    18    21    1
   22    21    22    1
   23    21    23    1
   24    13    24    1
   25    24    25    1
@<TRIPOS>SUBSTRUCTURE
       1 MOL1            1 RESIDUE      1      MOL     
@<SCITEGIC>MOL_PROPERTY
VConf Rank
SciTegic.value.IntegerValue
571

@<SCITEGIC>MOL_PROPERTY
Conf_Id
SciTegic.value.IntegerValue
30

@<SCITEGIC>MOL_PROPERTY
Delta U+W
SciTegic.value.DoubleValue
0.000

@<SCITEGIC>MOL_PROPERTY
U+W
SciTegic.value.DoubleValue
10.913

@<SCITEGIC>MOL_PROPERTY
Grad RMS
SciTegic.value.DoubleValue
0.000000

@<SCITEGIC>MOL_PROPERTY
U
SciTegic.value.DoubleValue
13.140

@<SCITEGIC>MOL_PROPERTY
W
SciTegic.value.DoubleValue
-2.227

@<SCITEGIC>MOL_PROPERTY
W(PB)
SciTegic.value.DoubleValue
-4.367

@<SCITEGIC>MOL_PROPERTY
W(SA)
SciTegic.value.DoubleValue
2.140

@<SCITEGIC>MOL_PROPERTY
Valence
SciTegic.value.DoubleValue
19.155

@<SCITEGIC>MOL_PROPERTY
Coulomb
SciTegic.value.DoubleValue
-8.157

@<SCITEGIC>MOL_PROPERTY
VdW
SciTegic.value.DoubleValue
2.142

@<SCITEGIC>MOL_PROPERTY
VdW6
SciTegic.value.DoubleValue
-11.576

@<SCITEGIC>MOL_PROPERTY
VdW12
SciTegic.value.DoubleValue
13.718

@<SCITEGIC>MOL_PROPERTY
Bond
SciTegic.value.DoubleValue
0.294

@<SCITEGIC>MOL_PROPERTY
Angle
SciTegic.value.DoubleValue
3.547

@<SCITEGIC>MOL_PROPERTY
Pdih
SciTegic.value.DoubleValue
15.314

@<SCITEGIC>MOL_PROPERTY
Idih
SciTegic.value.DoubleValue
0.000

@<SCITEGIC>MOL_PROPERTY
Tether
SciTegic.value.DoubleValue
0.000

@<TRIPOS>MOLECULE
guest-s17_confgen4.mol2 : confsearch ligand conformer 572
          25          25           1
SMALL
USER_CHARGES
 
@<TRIPOS>ATOM
       1    C1      21.221590   20.582429   21.263773 C.3        1 MOL1        -0.1684
       2    H1      21.029458   21.628398   20.988291 H          1 MOL1         0.0833
       3    H2      22.026891   20.243370   20.597964 H          1 MOL1         0.0833
       4    C2      19.952602   19.751432   20.952009 C.3        1 MOL1        -0.1684
       5    H3      19.577201   20.063528   19.967864 H          1 MOL1         0.0833
       6    H4      20.225135   18.697603   20.822683 H          1 MOL1         0.0833
       7    C3      18.812232   19.909788   21.989449 C.3        1 MOL1        -0.1684
       8    H5      17.901346   20.230958   21.466168 H          1 MOL1         0.0833
       9    H6      19.030782   20.720873   22.693731 H          1 MOL1         0.0833
      10    C4      18.484631   18.612739   22.771687 C.3        1 MOL1        -0.1760
      11    H7      17.809862   18.868176   23.599454 H          1 MOL1         0.0833
      12    H8      17.914250   17.944754   22.113183 H          1 MOL1         0.0833
      13    C5      19.686259   17.809212   23.329015 C.3        1 MOL1         0.1219
      14    H9      20.221052   17.334060   22.495821 H          1 MOL1         0.0790
      15    C6      20.699023   18.633317   24.161155 C.3        1 MOL1        -0.1760
      16    H10     20.187309   19.452454   24.682417 H          1 MOL1         0.0833
      17    H11     21.094514   17.986370   24.955536 H          1 MOL1         0.0833
      18    C7      21.924712   19.163184   23.364489 C.3        1 MOL1        -0.1684
      19    H12     22.256531   18.433714   22.613362 H          1 MOL1         0.0833
      20    H13     22.756694   19.246101   24.077349 H          1 MOL1         0.0833
      21    C8      21.738439   20.562361   22.726988 C.3        1 MOL1        -0.1684
      22    H14     22.714926   21.065890   22.727673 H          1 MOL1         0.0833
      23    H15     21.103278   21.185369   23.369452 H          1 MOL1         0.0833
      24    O1      19.156005   16.780806   24.156922 O.3        1 MOL1        -0.5508
      25    H16     19.913912   16.228415   24.441342 H          1 MOL1         0.3780
@<TRIPOS>BOND
    1     1     2    1
    2     1     3    1
    3     1     4    1
    4     4     5    1
    5     4     6    1
    6     4     7    1
    7     7     8    1
    8     7     9    1
    9     7    10    1
   10    10    11    1
   11    10    12    1
   12    10    13    1
   13    13    14    1
   14    13    15    1
   15    15    16    1
   16    15    17    1
   17    15    18    1
   18    18    19    1
   19    18    20    1
   20     1    21    1
   21    18    21    1
   22    21    22    1
   23    21    23    1
   24    13    24    1
   25    24    25    1
@<TRIPOS>SUBSTRUCTURE
       1 MOL1            1 RESIDUE      1      MOL     
@<SCITEGIC>MOL_PROPERTY
VConf Rank
SciTegic.value.IntegerValue
572

@<SCITEGIC>MOL_PROPERTY
Conf_Id
SciTegic.value.IntegerValue
162

@<SCITEGIC>MOL_PROPERTY
Delta U+W
SciTegic.value.DoubleValue
0.219

@<SCITEGIC>MOL_PROPERTY
U+W
SciTegic.value.DoubleValue
11.132

@<SCITEGIC>MOL_PROPERTY
Grad RMS
SciTegic.value.DoubleValue
0.000000

@<SCITEGIC>MOL_PROPERTY
U
SciTegic.value.DoubleValue
13.296

@<SCITEGIC>MOL_PROPERTY
W
SciTegic.value.DoubleValue
-2.164

@<SCITEGIC>MOL_PROPERTY
W(PB)
SciTegic.value.DoubleValue
-4.311

@<SCITEGIC>MOL_PROPERTY
W(SA)
SciTegic.value.DoubleValue
2.148

@<SCITEGIC>MOL_PROPERTY
Valence
SciTegic.value.DoubleValue
18.607

@<SCITEGIC>MOL_PROPERTY
Coulomb
SciTegic.value.DoubleValue
-8.339

@<SCITEGIC>MOL_PROPERTY
VdW
SciTegic.value.DoubleValue
3.028

@<SCITEGIC>MOL_PROPERTY
VdW6
SciTegic.value.DoubleValue
-12.271

@<SCITEGIC>MOL_PROPERTY
VdW12
SciTegic.value.DoubleValue
15.299

@<SCITEGIC>MOL_PROPERTY
Bond
SciTegic.value.DoubleValue
0.423

@<SCITEGIC>MOL_PROPERTY
Angle
SciTegic.value.DoubleValue
4.488

@<SCITEGIC>MOL_PROPERTY
Pdih
SciTegic.value.DoubleValue
13.696

@<SCITEGIC>MOL_PROPERTY
Idih
SciTegic.value.DoubleValue
0.000

@<SCITEGIC>MOL_PROPERTY
Tether
SciTegic.value.DoubleValue
0.000

@<TRIPOS>MOLECULE
guest-s17_confgen4.mol2 : confsearch ligand conformer 573
          25          25           1
SMALL
USER_CHARGES
 
@<TRIPOS>ATOM
       1    C1      20.989873   19.662460   24.520952 C.3        1 MOL1        -0.1684
       2    H1      21.657901   18.795486   24.441651 H          1 MOL1         0.0833
       3    H2      21.217900   20.102458   25.501447 H          1 MOL1         0.0833
       4    C2      21.347317   20.706397   23.433693 C.3        1 MOL1        -0.1684
       5    H3      20.505956   21.390173   23.258213 H          1 MOL1         0.0833
       6    H4      22.150039   21.333243   23.845812 H          1 MOL1         0.0833
       7    C3      21.878658   20.115463   22.098015 C.3        1 MOL1        -0.1684
       8    H5      22.511290   19.235759   22.277076 H          1 MOL1         0.0833
       9    H6      22.547440   20.869851   21.661254 H          1 MOL1         0.0833
      10    C4      20.794096   19.807509   21.033084 C.3        1 MOL1        -0.1760
      11    H7      19.980273   20.539484   21.105183 H          1 MOL1         0.0833
      12    H8      21.238583   19.975795   20.043475 H          1 MOL1         0.0833
      13    C5      20.229473   18.364446   21.023356 C.3        1 MOL1         0.1219
      14    H9      21.019239   17.696572   20.650118 H          1 MOL1         0.0790
      15    C6      19.759247   17.803557   22.386567 C.3        1 MOL1        -0.1760
      16    H10     19.196642   16.877966   22.208368 H          1 MOL1         0.0833
      17    H11     20.635361   17.483554   22.960675 H          1 MOL1         0.0833
      18    C7      18.876184   18.771415   23.217786 C.3        1 MOL1        -0.1684
      19    H12     17.917475   18.279724   23.431035 H          1 MOL1         0.0833
      20    H13     18.610062   19.659237   22.632071 H          1 MOL1         0.0833
      21    C8      19.506685   19.207988   24.562277 C.3        1 MOL1        -0.1684
      22    H14     19.423905   18.377271   25.276276 H          1 MOL1         0.0833
      23    H15     18.897595   20.021649   24.979024 H          1 MOL1         0.0833
      24    O1      19.132616   18.333063   20.117806 O.3        1 MOL1        -0.5508
      25    H16     18.786899   17.416802   20.125710 H          1 MOL1         0.3780
@<TRIPOS>BOND
    1     1     2    1
    2     1     3    1
    3     1     4    1
    4     4     5    1
    5     4     6    1
    6     4     7    1
    7     7     8    1
    8     7     9    1
    9     7    10    1
   10    10    11    1
   11    10    12    1
   12    10    13    1
   13    13    14    1
   14    13    15    1
   15    15    16    1
   16    15    17    1
   17    15    18    1
   18    18    19    1
   19    18    20    1
   20     1    21    1
   21    18    21    1
   22    21    22    1
   23    21    23    1
   24    13    24    1
   25    24    25    1
@<TRIPOS>SUBSTRUCTURE
       1 MOL1            1 RESIDUE      1      MOL     
@<SCITEGIC>MOL_PROPERTY
VConf Rank
SciTegic.value.IntegerValue
573

@<SCITEGIC>MOL_PROPERTY
Conf_Id
SciTegic.value.IntegerValue
155

@<SCITEGIC>MOL_PROPERTY
Delta U+W
SciTegic.value.DoubleValue
0.339

@<SCITEGIC>MOL_PROPERTY
U+W
SciTegic.value.DoubleValue
11.252

@<SCITEGIC>MOL_PROPERTY
Grad RMS
SciTegic.value.DoubleValue
0.000000

@<SCITEGIC>MOL_PROPERTY
U
SciTegic.value.DoubleValue
13.420

@<SCITEGIC>MOL_PROPERTY
W
SciTegic.value.DoubleValue
-2.167

@<SCITEGIC>MOL_PROPERTY
W(PB)
SciTegic.value.DoubleValue
-4.325

@<SCITEGIC>MOL_PROPERTY
W(SA)
SciTegic.value.DoubleValue
2.157

@<SCITEGIC>MOL_PROPERTY
Valence
SciTegic.value.DoubleValue
18.609

@<SCITEGIC>MOL_PROPERTY
Coulomb
SciTegic.value.DoubleValue
-8.052

@<SCITEGIC>MOL_PROPERTY
VdW
SciTegic.value.DoubleValue
2.863

@<SCITEGIC>MOL_PROPERTY
VdW6
SciTegic.value.DoubleValue
-12.524

@<SCITEGIC>MOL_PROPERTY
VdW12
SciTegic.value.DoubleValue
15.387

@<SCITEGIC>MOL_PROPERTY
Bond
SciTegic.value.DoubleValue
0.430

@<SCITEGIC>MOL_PROPERTY
Angle
SciTegic.value.DoubleValue
4.724

@<SCITEGIC>MOL_PROPERTY
Pdih
SciTegic.value.DoubleValue
13.455

@<SCITEGIC>MOL_PROPERTY
Idih
SciTegic.value.DoubleValue
0.000

@<SCITEGIC>MOL_PROPERTY
Tether
SciTegic.value.DoubleValue
0.000

@<TRIPOS>MOLECULE
guest-s17_confgen4.mol2 : confsearch ligand conformer 574
          25          25           1
SMALL
USER_CHARGES
 
@<TRIPOS>ATOM
       1    C1      22.007632   20.265257   22.233345 C.3        1 MOL1        -0.1684
       2    H1      22.940577   19.814234   22.597392 H          1 MOL1         0.0833
       3    H2      22.311397   21.180160   21.706598 H          1 MOL1         0.0833
       4    C2      21.365628   19.328592   21.176317 C.3        1 MOL1        -0.1684
       5    H3      20.500808   19.828125   20.728329 H          1 MOL1         0.0833
       6    H4      22.072039   19.238765   20.339878 H          1 MOL1         0.0833
       7    C3      20.999853   17.882905   21.622876 C.3        1 MOL1        -0.1684
       8    H5      21.897259   17.262378   21.495748 H          1 MOL1         0.0833
       9    H6      20.257385   17.471950   20.925326 H          1 MOL1         0.0833
      10    C4      20.502793   17.669091   23.078595 C.3        1 MOL1        -0.1760
      11    H7      20.434168   16.586235   23.245965 H          1 MOL1         0.0833
      12    H8      21.286871   17.978663   23.775115 H          1 MOL1         0.0833
      13    C5      19.139039   18.301150   23.484776 C.3        1 MOL1         0.1219
      14    H9      19.139176   18.424353   24.577292 H          1 MOL1         0.0790
      15    C6      18.760201   19.663820   22.852201 C.3        1 MOL1        -0.1760
      16    H10     18.692758   19.547304   21.766662 H          1 MOL1         0.0833
      17    H11     17.728950   19.891598   23.152638 H          1 MOL1         0.0833
      18    C7      19.625503   20.905370   23.223837 C.3        1 MOL1        -0.1684
      19    H12     19.214723   21.326610   24.151551 H          1 MOL1         0.0833
      20    H13     19.479315   21.681336   22.460405 H          1 MOL1         0.0833
      21    C8      21.145292   20.697352   23.455474 C.3        1 MOL1        -0.1684
      22    H14     21.294393   20.014897   24.298089 H          1 MOL1         0.0833
      23    H15     21.557708   21.648009   23.820227 H          1 MOL1         0.0833
      24    O1      18.110595   17.381736   23.133827 O.3        1 MOL1        -0.5508
      25    H16     18.324663   16.534982   23.577024 H          1 MOL1         0.3780
@<TRIPOS>BOND
    1     1     2    1
    2     1     3    1
    3     1     4    1
    4     4     5    1
    5     4     6    1
    6     4     7    1
    7     7     8    1
    8     7     9    1
    9     7    10    1
   10    10    11    1
   11    10    12    1
   12    10    13    1
   13    13    14    1
   14    13    15    1
   15    15    16    1
   16    15    17    1
   17    15    18    1
   18    18    19    1
   19    18    20    1
   20     1    21    1
   21    18    21    1
   22    21    22    1
   23    21    23    1
   24    13    24    1
   25    24    25    1
@<TRIPOS>SUBSTRUCTURE
       1 MOL1            1 RESIDUE      1      MOL     
@<SCITEGIC>MOL_PROPERTY
VConf Rank
SciTegic.value.IntegerValue
574

@<SCITEGIC>MOL_PROPERTY
Conf_Id
SciTegic.value.IntegerValue
146

@<SCITEGIC>MOL_PROPERTY
Delta U+W
SciTegic.value.DoubleValue
2.553

@<SCITEGIC>MOL_PROPERTY
U+W
SciTegic.value.DoubleValue
13.466

@<SCITEGIC>MOL_PROPERTY
Grad RMS
SciTegic.value.DoubleValue
0.000000

@<SCITEGIC>MOL_PROPERTY
U
SciTegic.value.DoubleValue
15.643

@<SCITEGIC>MOL_PROPERTY
W
SciTegic.value.DoubleValue
-2.176

@<SCITEGIC>MOL_PROPERTY
W(PB)
SciTegic.value.DoubleValue
-4.307

@<SCITEGIC>MOL_PROPERTY
W(SA)
SciTegic.value.DoubleValue
2.131

@<SCITEGIC>MOL_PROPERTY
Valence
SciTegic.value.DoubleValue
18.916

@<SCITEGIC>MOL_PROPERTY
Coulomb
SciTegic.value.DoubleValue
-7.506

@<SCITEGIC>MOL_PROPERTY
VdW
SciTegic.value.DoubleValue
4.232

@<SCITEGIC>MOL_PROPERTY
VdW6
SciTegic.value.DoubleValue
-13.632

@<SCITEGIC>MOL_PROPERTY
VdW12
SciTegic.value.DoubleValue
17.864

@<SCITEGIC>MOL_PROPERTY
Bond
SciTegic.value.DoubleValue
0.735

@<SCITEGIC>MOL_PROPERTY
Angle
SciTegic.value.DoubleValue
9.140

@<SCITEGIC>MOL_PROPERTY
Pdih
SciTegic.value.DoubleValue
9.042

@<SCITEGIC>MOL_PROPERTY
Idih
SciTegic.value.DoubleValue
0.000

@<SCITEGIC>MOL_PROPERTY
Tether
SciTegic.value.DoubleValue
0.000

@<TRIPOS>MOLECULE
guest-s17_confgen4.mol2 : confsearch ligand conformer 575
          25          25           1
SMALL
USER_CHARGES
 
@<TRIPOS>ATOM
       1    C1      20.024970   20.316049   20.908297 C.3        1 MOL1        -0.1684
       2    H1      19.212476   21.045010   20.785933 H          1 MOL1         0.0833
       3    H2      20.567131   20.313730   19.952803 H          1 MOL1         0.0833
       4    C2      19.419541   18.902917   21.099753 C.3        1 MOL1        -0.1684
       5    H3      18.838909   18.672118   20.196204 H          1 MOL1         0.0833
       6    H4      20.213253   18.147372   21.117608 H          1 MOL1         0.0833
       7    C3      18.472052   18.725132   22.312617 C.3        1 MOL1        -0.1684
       8    H5      18.036407   17.718700   22.247125 H          1 MOL1         0.0833
       9    H6      17.627901   19.421649   22.219251 H          1 MOL1         0.0833
      10    C4      19.098746   18.879666   23.722963 C.3        1 MOL1        -0.1760
      11    H7      19.173854   19.938018   23.991886 H          1 MOL1         0.0833
      12    H8      18.380286   18.464327   24.442577 H          1 MOL1         0.0833
      13    C5      20.469135   18.180110   23.914613 C.3        1 MOL1         0.1219
      14    H9      20.598272   17.406278   23.146009 H          1 MOL1         0.0790
      15    C6      21.682641   19.143487   23.881876 C.3        1 MOL1        -0.1760
      16    H10     21.534955   19.934818   24.628672 H          1 MOL1         0.0833
      17    H11     22.567898   18.584854   24.212919 H          1 MOL1         0.0833
      18    C7      22.029897   19.788730   22.512687 C.3        1 MOL1        -0.1684
      19    H12     22.221379   19.017362   21.755636 H          1 MOL1         0.0833
      20    H13     22.988383   20.310735   22.638376 H          1 MOL1         0.0833
      21    C8      20.997897   20.827359   22.002091 C.3        1 MOL1        -0.1684
      22    H14     21.549952   21.674260   21.571937 H          1 MOL1         0.0833
      23    H15     20.442394   21.262294   22.840585 H          1 MOL1         0.0833
      24    O1      20.467073   17.545415   25.188390 O.3        1 MOL1        -0.5508
      25    H16     21.315695   17.061508   25.265167 H          1 MOL1         0.3780
@<TRIPOS>BOND
    1     1     2    1
    2     1     3    1
    3     1     4    1
    4     4     5    1
    5     4     6    1
    6     4     7    1
    7     7     8    1
    8     7     9    1
    9     7    10    1
   10    10    11    1
   11    10    12    1
   12    10    13    1
   13    13    14    1
   14    13    15    1
   15    15    16    1
   16    15    17    1
   17    15    18    1
   18    18    19    1
   19    18    20    1
   20     1    21    1
   21    18    21    1
   22    21    22    1
   23    21    23    1
   24    13    24    1
   25    24    25    1
@<TRIPOS>SUBSTRUCTURE
       1 MOL1            1 RESIDUE      1      MOL     
@<SCITEGIC>MOL_PROPERTY
VConf Rank
SciTegic.value.IntegerValue
575

@<SCITEGIC>MOL_PROPERTY
Conf_Id
SciTegic.value.IntegerValue
62

@<SCITEGIC>MOL_PROPERTY
Delta U+W
SciTegic.value.DoubleValue
-1.779

@<SCITEGIC>MOL_PROPERTY
U+W
SciTegic.value.DoubleValue
9.134

@<SCITEGIC>MOL_PROPERTY
Grad RMS
SciTegic.value.DoubleValue
0.000000

@<SCITEGIC>MOL_PROPERTY
U
SciTegic.value.DoubleValue
11.364

@<SCITEGIC>MOL_PROPERTY
W
SciTegic.value.DoubleValue
-2.230

@<SCITEGIC>MOL_PROPERTY
W(PB)
SciTegic.value.DoubleValue
-4.359

@<SCITEGIC>MOL_PROPERTY
W(SA)
SciTegic.value.DoubleValue
2.129

@<SCITEGIC>MOL_PROPERTY
Valence
SciTegic.value.DoubleValue
16.582

@<SCITEGIC>MOL_PROPERTY
Coulomb
SciTegic.value.DoubleValue
-8.150

@<SCITEGIC>MOL_PROPERTY
VdW
SciTegic.value.DoubleValue
2.933

@<SCITEGIC>MOL_PROPERTY
VdW6
SciTegic.value.DoubleValue
-12.531

@<SCITEGIC>MOL_PROPERTY
VdW12
SciTegic.value.DoubleValue
15.464

@<SCITEGIC>MOL_PROPERTY
Bond
SciTegic.value.DoubleValue
0.439

@<SCITEGIC>MOL_PROPERTY
Angle
SciTegic.value.DoubleValue
5.099

@<SCITEGIC>MOL_PROPERTY
Pdih
SciTegic.value.DoubleValue
11.044

@<SCITEGIC>MOL_PROPERTY
Idih
SciTegic.value.DoubleValue
0.000

@<SCITEGIC>MOL_PROPERTY
Tether
SciTegic.value.DoubleValue
0.000

@<TRIPOS>MOLECULE
guest-s17_confgen4.mol2 : confsearch ligand conformer 576
          25          25           1
SMALL
USER_CHARGES
 
@<TRIPOS>ATOM
       1    C1      18.929115   20.238794   22.091097 C.3        1 MOL1        -0.1684
       2    H1      19.802194   20.696236   21.611929 H          1 MOL1         0.0833
       3    H2      18.080983   20.858504   21.769739 H          1 MOL1         0.0833
       4    C2      19.031725   20.362643   23.631806 C.3        1 MOL1        -0.1684
       5    H3      19.078662   21.433339   23.873245 H          1 MOL1         0.0833
       6    H4      18.102268   19.995899   24.087991 H          1 MOL1         0.0833
       7    C3      20.236426   19.669108   24.317683 C.3        1 MOL1        -0.1684
       8    H5      20.025886   18.606300   24.482316 H          1 MOL1         0.0833
       9    H6      20.320817   20.091913   25.328197 H          1 MOL1         0.0833
      10    C4      21.601442   19.849412   23.601068 C.3        1 MOL1        -0.1760
      11    H7      21.604274   20.752999   22.979158 H          1 MOL1         0.0833
      12    H8      22.354398   20.031434   24.379059 H          1 MOL1         0.0833
      13    C5      22.074029   18.623444   22.779450 C.3        1 MOL1         0.1219
      14    H9      22.049697   17.740023   23.433634 H          1 MOL1         0.0790
      15    C6      21.263041   18.297538   21.500390 C.3        1 MOL1        -0.1760
      16    H10     21.258812   19.156480   20.818489 H          1 MOL1         0.0833
      17    H11     21.810344   17.508931   20.967128 H          1 MOL1         0.0833
      18    C7      19.823609   17.773680   21.751740 C.3        1 MOL1        -0.1684
      19    H12     19.747045   17.323637   22.748006 H          1 MOL1         0.0833
      20    H13     19.635936   16.941564   21.059418 H          1 MOL1         0.0833
      21    C8      18.693471   18.812292   21.534962 C.3        1 MOL1        -0.1684
      22    H14     17.757389   18.411950   21.947223 H          1 MOL1         0.0833
      23    H15     18.525887   18.904852   20.453190 H          1 MOL1         0.0833
      24    O1      23.419073   18.861700   22.383829 O.3        1 MOL1        -0.5508
      25    H16     23.935671   18.999060   23.205051 H          1 MOL1         0.3780
@<TRIPOS>BOND
    1     1     2    1
    2     1     3    1
    3     1     4    1
    4     4     5    1
    5     4     6    1
    6     4     7    1
    7     7     8    1
    8     7     9    1
    9     7    10    1
   10    10    11    1
   11    10    12    1
   12    10    13    1
   13    13    14    1
   14    13    15    1
   15    15    16    1
   16    15    17    1
   17    15    18    1
   18    18    19    1
   19    18    20    1
   20     1    21    1
   21    18    21    1
   22    21    22    1
   23    21    23    1
   24    13    24    1
   25    24    25    1
@<TRIPOS>SUBSTRUCTURE
       1 MOL1            1 RESIDUE      1      MOL     
@<SCITEGIC>MOL_PROPERTY
VConf Rank
SciTegic.value.IntegerValue
576

@<SCITEGIC>MOL_PROPERTY
Conf_Id
SciTegic.value.IntegerValue
121

@<SCITEGIC>MOL_PROPERTY
Delta U+W
SciTegic.value.DoubleValue
-1.283

@<SCITEGIC>MOL_PROPERTY
U+W
SciTegic.value.DoubleValue
9.630

@<SCITEGIC>MOL_PROPERTY
Grad RMS
SciTegic.value.DoubleValue
0.000000

@<SCITEGIC>MOL_PROPERTY
U
SciTegic.value.DoubleValue
11.876

@<SCITEGIC>MOL_PROPERTY
W
SciTegic.value.DoubleValue
-2.246

@<SCITEGIC>MOL_PROPERTY
W(PB)
SciTegic.value.DoubleValue
-4.376

@<SCITEGIC>MOL_PROPERTY
W(SA)
SciTegic.value.DoubleValue
2.130

@<SCITEGIC>MOL_PROPERTY
Valence
SciTegic.value.DoubleValue
17.153

@<SCITEGIC>MOL_PROPERTY
Coulomb
SciTegic.value.DoubleValue
-7.966

@<SCITEGIC>MOL_PROPERTY
VdW
SciTegic.value.DoubleValue
2.689

@<SCITEGIC>MOL_PROPERTY
VdW6
SciTegic.value.DoubleValue
-12.458

@<SCITEGIC>MOL_PROPERTY
VdW12
SciTegic.value.DoubleValue
15.147

@<SCITEGIC>MOL_PROPERTY
Bond
SciTegic.value.DoubleValue
0.421

@<SCITEGIC>MOL_PROPERTY
Angle
SciTegic.value.DoubleValue
5.258

@<SCITEGIC>MOL_PROPERTY
Pdih
SciTegic.value.DoubleValue
11.475

@<SCITEGIC>MOL_PROPERTY
Idih
SciTegic.value.DoubleValue
0.000

@<SCITEGIC>MOL_PROPERTY
Tether
SciTegic.value.DoubleValue
0.000

@<TRIPOS>MOLECULE
guest-s17_confgen4.mol2 : confsearch ligand conformer 577
          25          25           1
SMALL
USER_CHARGES
 
@<TRIPOS>ATOM
       1    C1      19.287854   19.171924   21.132835 C.3        1 MOL1        -0.1684
       2    H1      19.676531   20.196644   21.134906 H          1 MOL1         0.0833
       3    H2      18.679880   19.108663   20.220144 H          1 MOL1         0.0833
       4    C2      18.336460   18.952843   22.335571 C.3        1 MOL1        -0.1684
       5    H3      17.510732   19.670632   22.236403 H          1 MOL1         0.0833
       6    H4      17.876360   17.958465   22.258089 H          1 MOL1         0.0833
       7    C3      18.940242   19.118837   23.753604 C.3        1 MOL1        -0.1684
       8    H5      19.440561   18.196414   24.069458 H          1 MOL1         0.0833
       9    H6      18.099855   19.228559   24.452645 H          1 MOL1         0.0833
      10    C4      19.883035   20.338674   23.934463 C.3        1 MOL1        -0.1760
      11    H7      19.662214   21.122624   23.199991 H          1 MOL1         0.0833
      12    H8      19.655894   20.786477   24.911034 H          1 MOL1         0.0833
      13    C5      21.395478   20.003368   23.932891 C.3        1 MOL1         0.1219
      14    H9      21.571138   19.214238   24.678141 H          1 MOL1         0.0790
      15    C6      21.996620   19.538514   22.582364 C.3        1 MOL1        -0.1760
      16    H10     21.834505   20.298158   21.807824 H          1 MOL1         0.0833
      17    H11     23.085617   19.484189   22.710730 H          1 MOL1         0.0833
      18    C7      21.521553   18.141073   22.101970 C.3        1 MOL1        -0.1684
      19    H12     21.185582   17.535985   22.951668 H          1 MOL1         0.0833
      20    H13     22.392083   17.599779   21.706748 H          1 MOL1         0.0833
      21    C8      20.446894   18.154857   20.984994 C.3        1 MOL1        -0.1684
      22    H14     20.031027   17.143866   20.878005 H          1 MOL1         0.0833
      23    H15     20.953609   18.369649   20.034208 H          1 MOL1         0.0833
      24    O1      22.093662   21.175092   24.335419 O.3        1 MOL1        -0.5508
      25    H16     23.041177   20.933049   24.396890 H          1 MOL1         0.3780
@<TRIPOS>BOND
    1     1     2    1
    2     1     3    1
    3     1     4    1
    4     4     5    1
    5     4     6    1
    6     4     7    1
    7     7     8    1
    8     7     9    1
    9     7    10    1
   10    10    11    1
   11    10    12    1
   12    10    13    1
   13    13    14    1
   14    13    15    1
   15    15    16    1
   16    15    17    1
   17    15    18    1
   18    18    19    1
   19    18    20    1
   20     1    21    1
   21    18    21    1
   22    21    22    1
   23    21    23    1
   24    13    24    1
   25    24    25    1
@<TRIPOS>SUBSTRUCTURE
       1 MOL1            1 RESIDUE      1      MOL     
@<SCITEGIC>MOL_PROPERTY
VConf Rank
SciTegic.value.IntegerValue
577

@<SCITEGIC>MOL_PROPERTY
Conf_Id
SciTegic.value.IntegerValue
24

@<SCITEGIC>MOL_PROPERTY
Delta U+W
SciTegic.value.DoubleValue
-1.236

@<SCITEGIC>MOL_PROPERTY
U+W
SciTegic.value.DoubleValue
9.678

@<SCITEGIC>MOL_PROPERTY
Grad RMS
SciTegic.value.DoubleValue
0.000000

@<SCITEGIC>MOL_PROPERTY
U
SciTegic.value.DoubleValue
11.876

@<SCITEGIC>MOL_PROPERTY
W
SciTegic.value.DoubleValue
-2.199

@<SCITEGIC>MOL_PROPERTY
W(PB)
SciTegic.value.DoubleValue
-4.335

@<SCITEGIC>MOL_PROPERTY
W(SA)
SciTegic.value.DoubleValue
2.137

@<SCITEGIC>MOL_PROPERTY
Valence
SciTegic.value.DoubleValue
17.153

@<SCITEGIC>MOL_PROPERTY
Coulomb
SciTegic.value.DoubleValue
-7.966

@<SCITEGIC>MOL_PROPERTY
VdW
SciTegic.value.DoubleValue
2.689

@<SCITEGIC>MOL_PROPERTY
VdW6
SciTegic.value.DoubleValue
-12.458

@<SCITEGIC>MOL_PROPERTY
VdW12
SciTegic.value.DoubleValue
15.147

@<SCITEGIC>MOL_PROPERTY
Bond
SciTegic.value.DoubleValue
0.421

@<SCITEGIC>MOL_PROPERTY
Angle
SciTegic.value.DoubleValue
5.258

@<SCITEGIC>MOL_PROPERTY
Pdih
SciTegic.value.DoubleValue
11.475

@<SCITEGIC>MOL_PROPERTY
Idih
SciTegic.value.DoubleValue
0.000

@<SCITEGIC>MOL_PROPERTY
Tether
SciTegic.value.DoubleValue
0.000

@<TRIPOS>MOLECULE
guest-s17_confgen4.mol2 : confsearch ligand conformer 578
          25          25           1
SMALL
USER_CHARGES
 
@<TRIPOS>ATOM
       1    C1      20.514791   20.731882   21.175586 C.3        1 MOL1        -0.1684
       2    H1      21.275729   20.685469   20.384640 H          1 MOL1         0.0833
       3    H2      20.025054   21.708392   21.059650 H          1 MOL1         0.0833
       4    C2      19.452413   19.631123   20.915043 C.3        1 MOL1        -0.1684
       5    H3      18.529473   19.845994   21.468492 H          1 MOL1         0.0833
       6    H4      19.167131   19.706454   19.856740 H          1 MOL1         0.0833
       7    C3      19.903422   18.174031   21.183617 C.3        1 MOL1        -0.1684
       8    H5      20.964774   18.041829   20.933596 H          1 MOL1         0.0833
       9    H6      19.356229   17.535530   20.476439 H          1 MOL1         0.0833
      10    C4      19.591206   17.638135   22.609543 C.3        1 MOL1        -0.1760
      11    H7      18.631119   18.027606   22.971512 H          1 MOL1         0.0833
      12    H8      19.450933   16.552848   22.512455 H          1 MOL1         0.0833
      13    C5      20.705214   17.879036   23.657413 C.3        1 MOL1         0.1219
      14    H9      21.671800   17.912320   23.137529 H          1 MOL1         0.0790
      15    C6      20.542290   19.157671   24.517854 C.3        1 MOL1        -0.1760
      16    H10     19.720176   19.014414   25.231280 H          1 MOL1         0.0833
      17    H11     21.451466   19.268838   25.123381 H          1 MOL1         0.0833
      18    C7      20.297099   20.485549   23.758076 C.3        1 MOL1        -0.1684
      19    H12     20.437759   21.313870   24.465790 H          1 MOL1         0.0833
      20    H13     19.244920   20.550640   23.457455 H          1 MOL1         0.0833
      21    C8      21.236643   20.703082   22.545109 C.3        1 MOL1        -0.1684
      22    H14     22.035391   19.952592   22.524544 H          1 MOL1         0.0833
      23    H15     21.758907   21.661083   22.672958 H          1 MOL1         0.0833
      24    O1      20.727699   16.771466   24.548755 O.3        1 MOL1        -0.5508
      25    H16     19.851227   16.749071   24.984952 H          1 MOL1         0.3780
@<TRIPOS>BOND
    1     1     2    1
    2     1     3    1
    3     1     4    1
    4     4     5    1
    5     4     6    1
    6     4     7    1
    7     7     8    1
    8     7     9    1
    9     7    10    1
   10    10    11    1
   11    10    12    1
   12    10    13    1
   13    13    14    1
   14    13    15    1
   15    15    16    1
   16    15    17    1
   17    15    18    1
   18    18    19    1
   19    18    20    1
   20     1    21    1
   21    18    21    1
   22    21    22    1
   23    21    23    1
   24    13    24    1
   25    24    25    1
@<TRIPOS>SUBSTRUCTURE
       1 MOL1            1 RESIDUE      1      MOL     
@<SCITEGIC>MOL_PROPERTY
VConf Rank
SciTegic.value.IntegerValue
578

@<SCITEGIC>MOL_PROPERTY
Conf_Id
SciTegic.value.IntegerValue
167

@<SCITEGIC>MOL_PROPERTY
Delta U+W
SciTegic.value.DoubleValue
0.388

@<SCITEGIC>MOL_PROPERTY
U+W
SciTegic.value.DoubleValue
11.301

@<SCITEGIC>MOL_PROPERTY
Grad RMS
SciTegic.value.DoubleValue
0.000000

@<SCITEGIC>MOL_PROPERTY
U
SciTegic.value.DoubleValue
13.202

@<SCITEGIC>MOL_PROPERTY
W
SciTegic.value.DoubleValue
-1.901

@<SCITEGIC>MOL_PROPERTY
W(PB)
SciTegic.value.DoubleValue
-4.065

@<SCITEGIC>MOL_PROPERTY
W(SA)
SciTegic.value.DoubleValue
2.163

@<SCITEGIC>MOL_PROPERTY
Valence
SciTegic.value.DoubleValue
18.957

@<SCITEGIC>MOL_PROPERTY
Coulomb
SciTegic.value.DoubleValue
-8.753

@<SCITEGIC>MOL_PROPERTY
VdW
SciTegic.value.DoubleValue
2.998

@<SCITEGIC>MOL_PROPERTY
VdW6
SciTegic.value.DoubleValue
-12.294

@<SCITEGIC>MOL_PROPERTY
VdW12
SciTegic.value.DoubleValue
15.292

@<SCITEGIC>MOL_PROPERTY
Bond
SciTegic.value.DoubleValue
0.419

@<SCITEGIC>MOL_PROPERTY
Angle
SciTegic.value.DoubleValue
4.543

@<SCITEGIC>MOL_PROPERTY
Pdih
SciTegic.value.DoubleValue
13.996

@<SCITEGIC>MOL_PROPERTY
Idih
SciTegic.value.DoubleValue
0.000

@<SCITEGIC>MOL_PROPERTY
Tether
SciTegic.value.DoubleValue
0.000

@<TRIPOS>MOLECULE
guest-s17_confgen4.mol2 : confsearch ligand conformer 579
          25          25           1
SMALL
USER_CHARGES
 
@<TRIPOS>ATOM
       1    C1      20.865867   17.285688   22.281194 C.3        1 MOL1        -0.1684
       2    H1      21.198487   16.967873   21.283767 H          1 MOL1         0.0833
       3    H2      20.943664   16.393336   22.917256 H          1 MOL1         0.0833
       4    C2      19.368661   17.683596   22.208065 C.3        1 MOL1        -0.1684
       5    H3      19.162420   18.245455   21.290141 H          1 MOL1         0.0833
       6    H4      18.793906   16.754303   22.093589 H          1 MOL1         0.0833
       7    C3      18.818635   18.440562   23.444720 C.3        1 MOL1        -0.1684
       8    H5      19.401640   18.203531   24.343993 H          1 MOL1         0.0833
       9    H6      17.810268   18.054170   23.646715 H          1 MOL1         0.0833
      10    C4      18.686569   19.977374   23.263013 C.3        1 MOL1        -0.1760
      11    H7      18.066355   20.188807   22.382176 H          1 MOL1         0.0833
      12    H8      18.122343   20.364133   24.121997 H          1 MOL1         0.0833
      13    C5      20.004075   20.786012   23.164588 C.3        1 MOL1         0.1219
      14    H9      20.637045   20.548089   24.029976 H          1 MOL1         0.0790
      15    C6      20.796601   20.547916   21.853123 C.3        1 MOL1        -0.1760
      16    H10     20.128740   20.168366   21.073266 H          1 MOL1         0.0833
      17    H11     21.153376   21.509637   21.461017 H          1 MOL1         0.0833
      18    C7      22.034459   19.624548   21.994061 C.3        1 MOL1        -0.1684
      19    H12     22.843290   20.211425   22.450473 H          1 MOL1         0.0833
      20    H13     22.392620   19.353206   20.991740 H          1 MOL1         0.0833
      21    C8      21.856640   18.338117   22.839250 C.3        1 MOL1        -0.1684
      22    H14     21.601391   18.589646   23.874977 H          1 MOL1         0.0833
      23    H15     22.840802   17.854779   22.907307 H          1 MOL1         0.0833
      24    O1      19.660456   22.164934   23.232859 O.3        1 MOL1        -0.5508
      25    H16     20.503703   22.664340   23.239532 H          1 MOL1         0.3780
@<TRIPOS>BOND
    1     1     2    1
    2     1     3    1
    3     1     4    1
    4     4     5    1
    5     4     6    1
    6     4     7    1
    7     7     8    1
    8     7     9    1
    9     7    10    1
   10    10    11    1
   11    10    12    1
   12    10    13    1
   13    13    14    1
   14    13    15    1
   15    15    16    1
   16    15    17    1
   17    15    18    1
   18    18    19    1
   19    18    20    1
   20     1    21    1
   21    18    21    1
   22    21    22    1
   23    21    23    1
   24    13    24    1
   25    24    25    1
@<TRIPOS>SUBSTRUCTURE
       1 MOL1            1 RESIDUE      1      MOL     
@<SCITEGIC>MOL_PROPERTY
VConf Rank
SciTegic.value.IntegerValue
579

@<SCITEGIC>MOL_PROPERTY
Conf_Id
SciTegic.value.IntegerValue
60

@<SCITEGIC>MOL_PROPERTY
Delta U+W
SciTegic.value.DoubleValue
-1.838

@<SCITEGIC>MOL_PROPERTY
U+W
SciTegic.value.DoubleValue
9.075

@<SCITEGIC>MOL_PROPERTY
Grad RMS
SciTegic.value.DoubleValue
0.000000

@<SCITEGIC>MOL_PROPERTY
U
SciTegic.value.DoubleValue
11.150

@<SCITEGIC>MOL_PROPERTY
W
SciTegic.value.DoubleValue
-2.074

@<SCITEGIC>MOL_PROPERTY
W(PB)
SciTegic.value.DoubleValue
-4.196

@<SCITEGIC>MOL_PROPERTY
W(SA)
SciTegic.value.DoubleValue
2.121

@<SCITEGIC>MOL_PROPERTY
Valence
SciTegic.value.DoubleValue
16.582

@<SCITEGIC>MOL_PROPERTY
Coulomb
SciTegic.value.DoubleValue
-8.361

@<SCITEGIC>MOL_PROPERTY
VdW
SciTegic.value.DoubleValue
2.928

@<SCITEGIC>MOL_PROPERTY
VdW6
SciTegic.value.DoubleValue
-12.539

@<SCITEGIC>MOL_PROPERTY
VdW12
SciTegic.value.DoubleValue
15.467

@<SCITEGIC>MOL_PROPERTY
Bond
SciTegic.value.DoubleValue
0.441

@<SCITEGIC>MOL_PROPERTY
Angle
SciTegic.value.DoubleValue
5.093

@<SCITEGIC>MOL_PROPERTY
Pdih
SciTegic.value.DoubleValue
11.049

@<SCITEGIC>MOL_PROPERTY
Idih
SciTegic.value.DoubleValue
0.000

@<SCITEGIC>MOL_PROPERTY
Tether
SciTegic.value.DoubleValue
0.000

@<TRIPOS>MOLECULE
guest-s17_confgen4.mol2 : confsearch ligand conformer 580
          25          25           1
SMALL
USER_CHARGES
 
@<TRIPOS>ATOM
       1    C1      20.069140   17.585588   23.929654 C.3        1 MOL1        -0.1684
       2    H1      19.278450   16.841810   23.762000 H          1 MOL1         0.0833
       3    H2      20.575327   17.275961   24.854221 H          1 MOL1         0.0833
       4    C2      19.422309   18.967679   24.198165 C.3        1 MOL1        -0.1684
       5    H3      18.802877   18.867536   25.099884 H          1 MOL1         0.0833
       6    H4      20.189934   19.700559   24.471634 H          1 MOL1         0.0833
       7    C3      18.511782   19.525472   23.075367 C.3        1 MOL1        -0.1684
       8    H5      18.040395   20.441919   23.455977 H          1 MOL1         0.0833
       9    H6      17.688841   18.821271   22.892552 H          1 MOL1         0.0833
      10    C4      19.192576   19.865428   21.724179 C.3        1 MOL1        -0.1760
      11    H7      19.317982   18.957810   21.125199 H          1 MOL1         0.0833
      12    H8      18.483088   20.474924   21.148781 H          1 MOL1         0.0833
      13    C5      20.543573   20.617504   21.842135 C.3        1 MOL1         0.1219
      14    H9      20.623873   21.084597   22.832857 H          1 MOL1         0.0790
      15    C6      21.786926   19.725925   21.600130 C.3        1 MOL1        -0.1760
      16    H10     21.692951   19.232316   20.624035 H          1 MOL1         0.0833
      17    H11     22.659057   20.387608   21.514417 H          1 MOL1         0.0833
      18    C7      22.111099   18.664372   22.686530 C.3        1 MOL1        -0.1684
      19    H12     22.250169   19.139695   23.666069 H          1 MOL1         0.0833
      20    H13     23.090874   18.236472   22.433849 H          1 MOL1         0.0833
      21    C8      21.099337   17.492401   22.774095 C.3        1 MOL1        -0.1684
      22    H14     21.666063   16.562954   22.922364 H          1 MOL1         0.0833
      23    H15     20.591126   17.350487   21.813685 H          1 MOL1         0.0833
      24    O1      20.565557   21.649325   20.862837 O.3        1 MOL1        -0.5508
      25    H16     19.815407   22.246080   21.066978 H          1 MOL1         0.3780
@<TRIPOS>BOND
    1     1     2    1
    2     1     3    1
    3     1     4    1
    4     4     5    1
    5     4     6    1
    6     4     7    1
    7     7     8    1
    8     7     9    1
    9     7    10    1
   10    10    11    1
   11    10    12    1
   12    10    13    1
   13    13    14    1
   14    13    15    1
   15    15    16    1
   16    15    17    1
   17    15    18    1
   18    18    19    1
   19    18    20    1
   20     1    21    1
   21    18    21    1
   22    21    22    1
   23    21    23    1
   24    13    24    1
   25    24    25    1
@<TRIPOS>SUBSTRUCTURE
       1 MOL1            1 RESIDUE      1      MOL     
@<SCITEGIC>MOL_PROPERTY
VConf Rank
SciTegic.value.IntegerValue
580

@<SCITEGIC>MOL_PROPERTY
Conf_Id
SciTegic.value.IntegerValue
129

@<SCITEGIC>MOL_PROPERTY
Delta U+W
SciTegic.value.DoubleValue
-1.846

@<SCITEGIC>MOL_PROPERTY
U+W
SciTegic.value.DoubleValue
9.067

@<SCITEGIC>MOL_PROPERTY
Grad RMS
SciTegic.value.DoubleValue
0.000000

@<SCITEGIC>MOL_PROPERTY
U
SciTegic.value.DoubleValue
11.150

@<SCITEGIC>MOL_PROPERTY
W
SciTegic.value.DoubleValue
-2.083

@<SCITEGIC>MOL_PROPERTY
W(PB)
SciTegic.value.DoubleValue
-4.217

@<SCITEGIC>MOL_PROPERTY
W(SA)
SciTegic.value.DoubleValue
2.134

@<SCITEGIC>MOL_PROPERTY
Valence
SciTegic.value.DoubleValue
16.583

@<SCITEGIC>MOL_PROPERTY
Coulomb
SciTegic.value.DoubleValue
-8.361

@<SCITEGIC>MOL_PROPERTY
VdW
SciTegic.value.DoubleValue
2.928

@<SCITEGIC>MOL_PROPERTY
VdW6
SciTegic.value.DoubleValue
-12.539

@<SCITEGIC>MOL_PROPERTY
VdW12
SciTegic.value.DoubleValue
15.467

@<SCITEGIC>MOL_PROPERTY
Bond
SciTegic.value.DoubleValue
0.441

@<SCITEGIC>MOL_PROPERTY
Angle
SciTegic.value.DoubleValue
5.093

@<SCITEGIC>MOL_PROPERTY
Pdih
SciTegic.value.DoubleValue
11.049

@<SCITEGIC>MOL_PROPERTY
Idih
SciTegic.value.DoubleValue
0.000

@<SCITEGIC>MOL_PROPERTY
Tether
SciTegic.value.DoubleValue
0.000

@<TRIPOS>MOLECULE
guest-s17_confgen4.mol2 : confsearch ligand conformer 581
          25          25           1
SMALL
USER_CHARGES
 
@<TRIPOS>ATOM
       1    C1      22.215252   18.710907   22.208451 C.3        1 MOL1        -0.1684
       2    H1      22.984307   18.696031   22.992567 H          1 MOL1         0.0833
       3    H2      22.728968   18.412880   21.284224 H          1 MOL1         0.0833
       4    C2      21.714349   20.163575   22.010800 C.3        1 MOL1        -0.1684
       5    H3      22.578607   20.766740   21.700870 H          1 MOL1         0.0833
       6    H4      21.023095   20.216469   21.161935 H          1 MOL1         0.0833
       7    C3      21.099058   20.848986   23.256551 C.3        1 MOL1        -0.1684
       8    H5      20.902166   21.897321   22.993342 H          1 MOL1         0.0833
       9    H6      21.846754   20.879321   24.060621 H          1 MOL1         0.0833
      10    C4      19.783968   20.244922   23.814152 C.3        1 MOL1        -0.1760
      11    H7      20.004738   19.380925   24.449217 H          1 MOL1         0.0833
      12    H8      19.355310   20.989522   24.498578 H          1 MOL1         0.0833
      13    C5      18.728417   19.868471   22.742391 C.3        1 MOL1         0.1219
      14    H9      18.936715   20.411619   21.811009 H          1 MOL1         0.0790
      15    C6      18.640896   18.351270   22.440170 C.3        1 MOL1        -0.1760
      16    H10     18.462892   17.802197   23.374005 H          1 MOL1         0.0833
      17    H11     17.748292   18.185363   21.822134 H          1 MOL1         0.0833
      18    C7      19.845496   17.714010   21.695952 C.3        1 MOL1        -0.1684
      19    H12     20.020325   18.216451   20.735858 H          1 MOL1         0.0833
      20    H13     19.553638   16.687976   21.433197 H          1 MOL1         0.0833
      21    C8      21.151670   17.628512   22.527303 C.3        1 MOL1        -0.1684
      22    H14     21.616952   16.652438   22.332774 H          1 MOL1         0.0833
      23    H15     20.925465   17.613297   23.599404 H          1 MOL1         0.0833
      24    O1      17.451094   20.279403   23.213290 O.3        1 MOL1        -0.5508
      25    H16     17.286947   19.779805   24.039365 H          1 MOL1         0.3780
@<TRIPOS>BOND
    1     1     2    1
    2     1     3    1
    3     1     4    1
    4     4     5    1
    5     4     6    1
    6     4     7    1
    7     7     8    1
    8     7     9    1
    9     7    10    1
   10    10    11    1
   11    10    12    1
   12    10    13    1
   13    13    14    1
   14    13    15    1
   15    15    16    1
   16    15    17    1
   17    15    18    1
   18    18    19    1
   19    18    20    1
   20     1    21    1
   21    18    21    1
   22    21    22    1
   23    21    23    1
   24    13    24    1
   25    24    25    1
@<TRIPOS>SUBSTRUCTURE
       1 MOL1            1 RESIDUE      1      MOL     
@<SCITEGIC>MOL_PROPERTY
VConf Rank
SciTegic.value.IntegerValue
581

@<SCITEGIC>MOL_PROPERTY
Conf_Id
SciTegic.value.IntegerValue
140

@<SCITEGIC>MOL_PROPERTY
Delta U+W
SciTegic.value.DoubleValue
-1.702

@<SCITEGIC>MOL_PROPERTY
U+W
SciTegic.value.DoubleValue
9.211

@<SCITEGIC>MOL_PROPERTY
Grad RMS
SciTegic.value.DoubleValue
0.000000

@<SCITEGIC>MOL_PROPERTY
U
SciTegic.value.DoubleValue
11.181

@<SCITEGIC>MOL_PROPERTY
W
SciTegic.value.DoubleValue
-1.969

@<SCITEGIC>MOL_PROPERTY
W(PB)
SciTegic.value.DoubleValue
-4.093

@<SCITEGIC>MOL_PROPERTY
W(SA)
SciTegic.value.DoubleValue
2.124

@<SCITEGIC>MOL_PROPERTY
Valence
SciTegic.value.DoubleValue
16.954

@<SCITEGIC>MOL_PROPERTY
Coulomb
SciTegic.value.DoubleValue
-8.661

@<SCITEGIC>MOL_PROPERTY
VdW
SciTegic.value.DoubleValue
2.887

@<SCITEGIC>MOL_PROPERTY
VdW6
SciTegic.value.DoubleValue
-12.561

@<SCITEGIC>MOL_PROPERTY
VdW12
SciTegic.value.DoubleValue
15.448

@<SCITEGIC>MOL_PROPERTY
Bond
SciTegic.value.DoubleValue
0.433

@<SCITEGIC>MOL_PROPERTY
Angle
SciTegic.value.DoubleValue
5.120

@<SCITEGIC>MOL_PROPERTY
Pdih
SciTegic.value.DoubleValue
11.401

@<SCITEGIC>MOL_PROPERTY
Idih
SciTegic.value.DoubleValue
0.000

@<SCITEGIC>MOL_PROPERTY
Tether
SciTegic.value.DoubleValue
0.000

@<TRIPOS>MOLECULE
guest-s17_confgen4.mol2 : confsearch ligand conformer 582
          25          25           1
SMALL
USER_CHARGES
 
@<TRIPOS>ATOM
       1    C1      18.737892   19.408698   21.297658 C.3        1 MOL1        -0.1684
       2    H1      18.710239   18.824809   20.367704 H          1 MOL1         0.0833
       3    H2      17.843972   20.046846   21.273253 H          1 MOL1         0.0833
       4    C2      19.980514   20.335886   21.271953 C.3        1 MOL1        -0.1684
       5    H3      20.848070   19.807702   20.860649 H          1 MOL1         0.0833
       6    H4      19.774161   21.131047   20.542441 H          1 MOL1         0.0833
       7    C3      20.340141   21.004037   22.624281 C.3        1 MOL1        -0.1684
       8    H5      19.457010   21.088286   23.270637 H          1 MOL1         0.0833
       9    H6      20.639198   22.039571   22.411680 H          1 MOL1         0.0833
      10    C4      21.518877   20.339181   23.385571 C.3        1 MOL1        -0.1760
      11    H7      22.399047   20.307676   22.730191 H          1 MOL1         0.0833
      12    H8      21.789697   21.004355   24.216495 H          1 MOL1         0.0833
      13    C5      21.264177   18.929230   23.975534 C.3        1 MOL1         0.1219
      14    H9      20.365614   18.957653   24.606129 H          1 MOL1         0.0790
      15    C6      21.121132   17.809772   22.912085 C.3        1 MOL1        -0.1760
      16    H10     21.603544   18.111125   21.976668 H          1 MOL1         0.0833
      17    H11     21.682390   16.924512   23.240598 H          1 MOL1         0.0833
      18    C7      19.666673   17.345997   22.638712 C.3        1 MOL1        -0.1684
      19    H12     19.363745   16.686321   23.463401 H          1 MOL1         0.0833
      20    H13     19.655669   16.719237   21.736742 H          1 MOL1         0.0833
      21    C8      18.589567   18.451785   22.507009 C.3        1 MOL1        -0.1684
      22    H14     18.509718   19.023846   23.438445 H          1 MOL1         0.0833
      23    H15     17.617684   17.949442   22.407522 H          1 MOL1         0.0833
      24    O1      22.373539   18.612929   24.807056 O.3        1 MOL1        -0.5508
      25    H16     23.160472   18.597671   24.224435 H          1 MOL1         0.3780
@<TRIPOS>BOND
    1     1     2    1
    2     1     3    1
    3     1     4    1
    4     4     5    1
    5     4     6    1
    6     4     7    1
    7     7     8    1
    8     7     9    1
    9     7    10    1
   10    10    11    1
   11    10    12    1
   12    10    13    1
   13    13    14    1
   14    13    15    1
   15    15    16    1
   16    15    17    1
   17    15    18    1
   18    18    19    1
   19    18    20    1
   20     1    21    1
   21    18    21    1
   22    21    22    1
   23    21    23    1
   24    13    24    1
   25    24    25    1
@<TRIPOS>SUBSTRUCTURE
       1 MOL1            1 RESIDUE      1      MOL     
@<SCITEGIC>MOL_PROPERTY
VConf Rank
SciTegic.value.IntegerValue
582

@<SCITEGIC>MOL_PROPERTY
Conf_Id
SciTegic.value.IntegerValue
68

@<SCITEGIC>MOL_PROPERTY
Delta U+W
SciTegic.value.DoubleValue
-1.765

@<SCITEGIC>MOL_PROPERTY
U+W
SciTegic.value.DoubleValue
9.148

@<SCITEGIC>MOL_PROPERTY
Grad RMS
SciTegic.value.DoubleValue
0.000000

@<SCITEGIC>MOL_PROPERTY
U
SciTegic.value.DoubleValue
11.181

@<SCITEGIC>MOL_PROPERTY
W
SciTegic.value.DoubleValue
-2.032

@<SCITEGIC>MOL_PROPERTY
W(PB)
SciTegic.value.DoubleValue
-4.147

@<SCITEGIC>MOL_PROPERTY
W(SA)
SciTegic.value.DoubleValue
2.114

@<SCITEGIC>MOL_PROPERTY
Valence
SciTegic.value.DoubleValue
16.955

@<SCITEGIC>MOL_PROPERTY
Coulomb
SciTegic.value.DoubleValue
-8.661

@<SCITEGIC>MOL_PROPERTY
VdW
SciTegic.value.DoubleValue
2.887

@<SCITEGIC>MOL_PROPERTY
VdW6
SciTegic.value.DoubleValue
-12.561

@<SCITEGIC>MOL_PROPERTY
VdW12
SciTegic.value.DoubleValue
15.448

@<SCITEGIC>MOL_PROPERTY
Bond
SciTegic.value.DoubleValue
0.433

@<SCITEGIC>MOL_PROPERTY
Angle
SciTegic.value.DoubleValue
5.121

@<SCITEGIC>MOL_PROPERTY
Pdih
SciTegic.value.DoubleValue
11.402

@<SCITEGIC>MOL_PROPERTY
Idih
SciTegic.value.DoubleValue
0.000

@<SCITEGIC>MOL_PROPERTY
Tether
SciTegic.value.DoubleValue
0.000

@<TRIPOS>MOLECULE
guest-s17_confgen4.mol2 : confsearch ligand conformer 583
          25          25           1
SMALL
USER_CHARGES
 
@<TRIPOS>ATOM
       1    C1      21.798707   19.127160   21.632437 C.3        1 MOL1        -0.1684
       2    H1      22.728923   19.205676   21.053119 H          1 MOL1         0.0833
       3    H2      21.348674   18.186097   21.296634 H          1 MOL1         0.0833
       4    C2      20.894358   20.329361   21.255386 C.3        1 MOL1        -0.1684
       5    H3      21.021420   21.157720   21.964111 H          1 MOL1         0.0833
       6    H4      21.249953   20.720509   20.292280 H          1 MOL1         0.0833
       7    C3      19.392709   19.983538   21.076332 C.3        1 MOL1        -0.1684
       8    H5      19.289243   19.185863   20.327945 H          1 MOL1         0.0833
       9    H6      18.897782   20.862041   20.640312 H          1 MOL1         0.0833
      10    C4      18.611077   19.588855   22.357671 C.3        1 MOL1        -0.1760
      11    H7      18.677896   20.387217   23.106477 H          1 MOL1         0.0833
      12    H8      17.549580   19.543271   22.078821 H          1 MOL1         0.0833
      13    C5      19.021615   18.222712   22.965946 C.3        1 MOL1         0.1219
      14    H9      19.534169   17.629875   22.199541 H          1 MOL1         0.0790
      15    C6      19.922220   18.316263   24.222212 C.3        1 MOL1        -0.1760
      16    H10     19.293956   18.583073   25.082254 H          1 MOL1         0.0833
      17    H11     20.319280   17.316052   24.439015 H          1 MOL1         0.0833
      18    C7      21.097795   19.326241   24.177139 C.3        1 MOL1        -0.1684
      19    H12     21.576350   19.315236   25.165869 H          1 MOL1         0.0833
      20    H13     20.720448   20.349058   24.064160 H          1 MOL1         0.0833
      21    C8      22.201017   19.040536   23.127657 C.3        1 MOL1        -0.1684
      22    H14     22.640412   18.052721   23.321924 H          1 MOL1         0.0833
      23    H15     23.010589   19.763322   23.298454 H          1 MOL1         0.0833
      24    O1      17.842435   17.519398   23.336849 O.3        1 MOL1        -0.5508
      25    H16     17.389992   18.071339   24.007330 H          1 MOL1         0.3780
@<TRIPOS>BOND
    1     1     2    1
    2     1     3    1
    3     1     4    1
    4     4     5    1
    5     4     6    1
    6     4     7    1
    7     7     8    1
    8     7     9    1
    9     7    10    1
   10    10    11    1
   11    10    12    1
   12    10    13    1
   13    13    14    1
   14    13    15    1
   15    15    16    1
   16    15    17    1
   17    15    18    1
   18    18    19    1
   19    18    20    1
   20     1    21    1
   21    18    21    1
   22    21    22    1
   23    21    23    1
   24    13    24    1
   25    24    25    1
@<TRIPOS>SUBSTRUCTURE
       1 MOL1            1 RESIDUE      1      MOL     
@<SCITEGIC>MOL_PROPERTY
VConf Rank
SciTegic.value.IntegerValue
583

@<SCITEGIC>MOL_PROPERTY
Conf_Id
SciTegic.value.IntegerValue
165

@<SCITEGIC>MOL_PROPERTY
Delta U+W
SciTegic.value.DoubleValue
-1.999

@<SCITEGIC>MOL_PROPERTY
U+W
SciTegic.value.DoubleValue
8.915

@<SCITEGIC>MOL_PROPERTY
Grad RMS
SciTegic.value.DoubleValue
0.000000

@<SCITEGIC>MOL_PROPERTY
U
SciTegic.value.DoubleValue
10.935

@<SCITEGIC>MOL_PROPERTY
W
SciTegic.value.DoubleValue
-2.020

@<SCITEGIC>MOL_PROPERTY
W(PB)
SciTegic.value.DoubleValue
-4.135

@<SCITEGIC>MOL_PROPERTY
W(SA)
SciTegic.value.DoubleValue
2.115

@<SCITEGIC>MOL_PROPERTY
Valence
SciTegic.value.DoubleValue
16.757

@<SCITEGIC>MOL_PROPERTY
Coulomb
SciTegic.value.DoubleValue
-8.731

@<SCITEGIC>MOL_PROPERTY
VdW
SciTegic.value.DoubleValue
2.908

@<SCITEGIC>MOL_PROPERTY
VdW6
SciTegic.value.DoubleValue
-12.597

@<SCITEGIC>MOL_PROPERTY
VdW12
SciTegic.value.DoubleValue
15.506

@<SCITEGIC>MOL_PROPERTY
Bond
SciTegic.value.DoubleValue
0.434

@<SCITEGIC>MOL_PROPERTY
Angle
SciTegic.value.DoubleValue
5.069

@<SCITEGIC>MOL_PROPERTY
Pdih
SciTegic.value.DoubleValue
11.254

@<SCITEGIC>MOL_PROPERTY
Idih
SciTegic.value.DoubleValue
0.000

@<SCITEGIC>MOL_PROPERTY
Tether
SciTegic.value.DoubleValue
0.000

@<TRIPOS>MOLECULE
guest-s17_confgen4.mol2 : confsearch ligand conformer 584
          25          25           1
SMALL
USER_CHARGES
 
@<TRIPOS>ATOM
       1    C1      21.302365   19.088331   21.119313 C.3        1 MOL1        -0.1684
       2    H1      21.820987   19.016226   20.153437 H          1 MOL1         0.0833
       3    H2      22.065118   19.467224   21.808841 H          1 MOL1         0.0833
       4    C2      20.872169   17.650839   21.511742 C.3        1 MOL1        -0.1684
       5    H3      20.492137   17.157158   20.606833 H          1 MOL1         0.0833
       6    H4      21.762847   17.080310   21.807979 H          1 MOL1         0.0833
       7    C3      19.784640   17.508948   22.606040 C.3        1 MOL1        -0.1684
       8    H5      19.536656   16.441702   22.684716 H          1 MOL1         0.0833
       9    H6      18.852803   17.985747   22.281024 H          1 MOL1         0.0833
      10    C4      20.177221   17.997257   24.024301 C.3        1 MOL1        -0.1760
      11    H7      19.354446   17.733046   24.702349 H          1 MOL1         0.0833
      12    H8      21.048346   17.424692   24.367853 H          1 MOL1         0.0833
      13    C5      20.477900   19.506734   24.194100 C.3        1 MOL1         0.1219
      14    H9      21.482855   19.720616   23.811765 H          1 MOL1         0.0790
      15    C6      19.463153   20.450131   23.498058 C.3        1 MOL1        -0.1760
      16    H10     18.503140   19.944017   23.342046 H          1 MOL1         0.0833
      17    H11     19.239819   21.282438   24.179175 H          1 MOL1         0.0833
      18    C7      19.969685   21.076082   22.171182 C.3        1 MOL1        -0.1684
      19    H12     20.915090   21.604030   22.356833 H          1 MOL1         0.0833
      20    H13     19.252413   21.852927   21.873177 H          1 MOL1         0.0833
      21    C8      20.146441   20.111453   20.969052 C.3        1 MOL1        -0.1684
      22    H14     20.367416   20.732376   20.090054 H          1 MOL1         0.0833
      23    H15     19.200628   19.607654   20.731920 H          1 MOL1         0.0833
      24    O1      20.472686   19.787765   25.589274 O.3        1 MOL1        -0.5508
      25    H16     21.152580   19.210885   25.995958 H          1 MOL1         0.3780
@<TRIPOS>BOND
    1     1     2    1
    2     1     3    1
    3     1     4    1
    4     4     5    1
    5     4     6    1
    6     4     7    1
    7     7     8    1
    8     7     9    1
    9     7    10    1
   10    10    11    1
   11    10    12    1
   12    10    13    1
   13    13    14    1
   14    13    15    1
   15    15    16    1
   16    15    17    1
   17    15    18    1
   18    18    19    1
   19    18    20    1
   20     1    21    1
   21    18    21    1
   22    21    22    1
   23    21    23    1
   24    13    24    1
   25    24    25    1
@<TRIPOS>SUBSTRUCTURE
       1 MOL1            1 RESIDUE      1      MOL     
@<SCITEGIC>MOL_PROPERTY
VConf Rank
SciTegic.value.IntegerValue
584

@<SCITEGIC>MOL_PROPERTY
Conf_Id
SciTegic.value.IntegerValue
133

@<SCITEGIC>MOL_PROPERTY
Delta U+W
SciTegic.value.DoubleValue
-2.139

@<SCITEGIC>MOL_PROPERTY
U+W
SciTegic.value.DoubleValue
8.774

@<SCITEGIC>MOL_PROPERTY
Grad RMS
SciTegic.value.DoubleValue
0.000000

@<SCITEGIC>MOL_PROPERTY
U
SciTegic.value.DoubleValue
10.905

@<SCITEGIC>MOL_PROPERTY
W
SciTegic.value.DoubleValue
-2.131

@<SCITEGIC>MOL_PROPERTY
W(PB)
SciTegic.value.DoubleValue
-4.281

@<SCITEGIC>MOL_PROPERTY
W(SA)
SciTegic.value.DoubleValue
2.150

@<SCITEGIC>MOL_PROPERTY
Valence
SciTegic.value.DoubleValue
16.378

@<SCITEGIC>MOL_PROPERTY
Coulomb
SciTegic.value.DoubleValue
-8.448

@<SCITEGIC>MOL_PROPERTY
VdW
SciTegic.value.DoubleValue
2.976

@<SCITEGIC>MOL_PROPERTY
VdW6
SciTegic.value.DoubleValue
-12.570

@<SCITEGIC>MOL_PROPERTY
VdW12
SciTegic.value.DoubleValue
15.545

@<SCITEGIC>MOL_PROPERTY
Bond
SciTegic.value.DoubleValue
0.439

@<SCITEGIC>MOL_PROPERTY
Angle
SciTegic.value.DoubleValue
5.049

@<SCITEGIC>MOL_PROPERTY
Pdih
SciTegic.value.DoubleValue
10.889

@<SCITEGIC>MOL_PROPERTY
Idih
SciTegic.value.DoubleValue
0.000

@<SCITEGIC>MOL_PROPERTY
Tether
SciTegic.value.DoubleValue
0.000

@<TRIPOS>MOLECULE
guest-s17_confgen4.mol2 : confsearch ligand conformer 585
          25          25           1
SMALL
USER_CHARGES
 
@<TRIPOS>ATOM
       1    C1      18.504899   19.649550   22.547150 C.3        1 MOL1        -0.1684
       2    H1      17.438509   19.913051   22.568742 H          1 MOL1         0.0833
       3    H2      18.669656   19.269521   21.532638 H          1 MOL1         0.0833
       4    C2      18.744920   18.530862   23.594265 C.3        1 MOL1        -0.1684
       5    H3      19.079078   18.950450   24.551811 H          1 MOL1         0.0833
       6    H4      17.772892   18.066380   23.809736 H          1 MOL1         0.0833
       7    C3      19.695149   17.396090   23.129262 C.3        1 MOL1        -0.1684
       8    H5      19.312553   16.959784   22.196392 H          1 MOL1         0.0833
       9    H6      19.642600   16.590431   23.874195 H          1 MOL1         0.0833
      10    C4      21.189880   17.771046   22.944382 C.3        1 MOL1        -0.1760
      11    H7      21.601127   18.180099   23.874796 H          1 MOL1         0.0833
      12    H8      21.736519   16.832815   22.778733 H          1 MOL1         0.0833
      13    C5      21.473340   18.719979   21.751336 C.3        1 MOL1         0.1219
      14    H9      20.628198   18.677720   21.054339 H          1 MOL1         0.0790
      15    C6      21.735910   20.193786   22.147186 C.3        1 MOL1        -0.1760
      16    H10     22.758104   20.265784   22.542725 H          1 MOL1         0.0833
      17    H11     21.718638   20.809913   21.238998 H          1 MOL1         0.0833
      18    C7      20.786234   20.824277   23.198196 C.3        1 MOL1        -0.1684
      19    H12     21.159952   21.834896   23.411936 H          1 MOL1         0.0833
      20    H13     20.865248   20.292851   24.153516 H          1 MOL1         0.0833
      21    C8      19.300928   20.960288   22.779018 C.3        1 MOL1        -0.1684
      22    H14     19.233204   21.583093   21.876745 H          1 MOL1         0.0833
      23    H15     18.788692   21.526914   23.568673 H          1 MOL1         0.0833
      24    O1      22.628730   18.250859   21.065397 O.3        1 MOL1        -0.5508
      25    H16     22.757408   18.840476   20.293236 H          1 MOL1         0.3780
@<TRIPOS>BOND
    1     1     2    1
    2     1     3    1
    3     1     4    1
    4     4     5    1
    5     4     6    1
    6     4     7    1
    7     7     8    1
    8     7     9    1
    9     7    10    1
   10    10    11    1
   11    10    12    1
   12    10    13    1
   13    13    14    1
   14    13    15    1
   15    15    16    1
   16    15    17    1
   17    15    18    1
   18    18    19    1
   19    18    20    1
   20     1    21    1
   21    18    21    1
   22    21    22    1
   23    21    23    1
   24    13    24    1
   25    24    25    1
@<TRIPOS>SUBSTRUCTURE
       1 MOL1            1 RESIDUE      1      MOL     
@<SCITEGIC>MOL_PROPERTY
VConf Rank
SciTegic.value.IntegerValue
585

@<SCITEGIC>MOL_PROPERTY
Conf_Id
SciTegic.value.IntegerValue
95

@<SCITEGIC>MOL_PROPERTY
Delta U+W
SciTegic.value.DoubleValue
-2.190

@<SCITEGIC>MOL_PROPERTY
U+W
SciTegic.value.DoubleValue
8.723

@<SCITEGIC>MOL_PROPERTY
Grad RMS
SciTegic.value.DoubleValue
0.000000

@<SCITEGIC>MOL_PROPERTY
U
SciTegic.value.DoubleValue
10.905

@<SCITEGIC>MOL_PROPERTY
W
SciTegic.value.DoubleValue
-2.182

@<SCITEGIC>MOL_PROPERTY
W(PB)
SciTegic.value.DoubleValue
-4.296

@<SCITEGIC>MOL_PROPERTY
W(SA)
SciTegic.value.DoubleValue
2.114

@<SCITEGIC>MOL_PROPERTY
Valence
SciTegic.value.DoubleValue
16.377

@<SCITEGIC>MOL_PROPERTY
Coulomb
SciTegic.value.DoubleValue
-8.448

@<SCITEGIC>MOL_PROPERTY
VdW
SciTegic.value.DoubleValue
2.976

@<SCITEGIC>MOL_PROPERTY
VdW6
SciTegic.value.DoubleValue
-12.570

@<SCITEGIC>MOL_PROPERTY
VdW12
SciTegic.value.DoubleValue
15.546

@<SCITEGIC>MOL_PROPERTY
Bond
SciTegic.value.DoubleValue
0.439

@<SCITEGIC>MOL_PROPERTY
Angle
SciTegic.value.DoubleValue
5.049

@<SCITEGIC>MOL_PROPERTY
Pdih
SciTegic.value.DoubleValue
10.889

@<SCITEGIC>MOL_PROPERTY
Idih
SciTegic.value.DoubleValue
0.000

@<SCITEGIC>MOL_PROPERTY
Tether
SciTegic.value.DoubleValue
0.000

@<TRIPOS>MOLECULE
guest-s17_confgen4.mol2 : confsearch ligand conformer 586
          25          25           1
SMALL
USER_CHARGES
 
@<TRIPOS>ATOM
       1    C1      22.038658   19.679140   22.480780 C.3        1 MOL1        -0.1684
       2    H1      23.079041   20.031988   22.482892 H          1 MOL1         0.0833
       3    H2      21.829802   19.510874   21.419507 H          1 MOL1         0.0833
       4    C2      21.163981   20.837525   23.044077 C.3        1 MOL1        -0.1684
       5    H3      21.756302   21.350962   23.813804 H          1 MOL1         0.0833
       6    H4      21.006100   21.582334   22.252367 H          1 MOL1         0.0833
       7    C3      19.799759   20.479033   23.689736 C.3        1 MOL1        -0.1684
       8    H5      19.388821   21.397688   24.130214 H          1 MOL1         0.0833
       9    H6      19.968964   19.833072   24.556992 H          1 MOL1         0.0833
      10    C4      18.700267   19.883807   22.760573 C.3        1 MOL1        -0.1760
      11    H7      17.963423   19.353150   23.377692 H          1 MOL1         0.0833
      12    H8      18.161115   20.731251   22.317382 H          1 MOL1         0.0833
      13    C5      19.143654   18.962039   21.596338 C.3        1 MOL1         0.1219
      14    H9      19.842060   19.522934   20.966701 H          1 MOL1         0.0790
      15    C6      19.775079   17.593447   21.982150 C.3        1 MOL1        -0.1760
      16    H10     18.958421   16.873586   22.127705 H          1 MOL1         0.0833
      17    H11     20.345407   17.222294   21.121185 H          1 MOL1         0.0833
      18    C7      20.670370   17.521315   23.248746 C.3        1 MOL1        -0.1684
      19    H12     20.929047   16.466319   23.412401 H          1 MOL1         0.0833
      20    H13     20.072580   17.777457   24.129149 H          1 MOL1         0.0833
      21    C8      22.004962   18.322646   23.233192 C.3        1 MOL1        -0.1684
      22    H14     22.767895   17.681342   22.771100 H          1 MOL1         0.0833
      23    H15     22.339528   18.475359   24.268174 H          1 MOL1         0.0833
      24    O1      17.991008   18.688553   20.808159 O.3        1 MOL1        -0.5508
      25    H16     17.636839   19.553836   20.515061 H          1 MOL1         0.3780
@<TRIPOS>BOND
    1     1     2    1
    2     1     3    1
    3     1     4    1
    4     4     5    1
    5     4     6    1
    6     4     7    1
    7     7     8    1
    8     7     9    1
    9     7    10    1
   10    10    11    1
   11    10    12    1
   12    10    13    1
   13    13    14    1
   14    13    15    1
   15    15    16    1
   16    15    17    1
   17    15    18    1
   18    18    19    1
   19    18    20    1
   20     1    21    1
   21    18    21    1
   22    21    22    1
   23    21    23    1
   24    13    24    1
   25    24    25    1
@<TRIPOS>SUBSTRUCTURE
       1 MOL1            1 RESIDUE      1      MOL     
@<SCITEGIC>MOL_PROPERTY
VConf Rank
SciTegic.value.IntegerValue
586

@<SCITEGIC>MOL_PROPERTY
Conf_Id
SciTegic.value.IntegerValue
161

@<SCITEGIC>MOL_PROPERTY
Delta U+W
SciTegic.value.DoubleValue
2.120

@<SCITEGIC>MOL_PROPERTY
U+W
SciTegic.value.DoubleValue
13.033

@<SCITEGIC>MOL_PROPERTY
Grad RMS
SciTegic.value.DoubleValue
0.000000

@<SCITEGIC>MOL_PROPERTY
U
SciTegic.value.DoubleValue
15.076

@<SCITEGIC>MOL_PROPERTY
W
SciTegic.value.DoubleValue
-2.043

@<SCITEGIC>MOL_PROPERTY
W(PB)
SciTegic.value.DoubleValue
-4.186

@<SCITEGIC>MOL_PROPERTY
W(SA)
SciTegic.value.DoubleValue
2.143

@<SCITEGIC>MOL_PROPERTY
Valence
SciTegic.value.DoubleValue
18.884

@<SCITEGIC>MOL_PROPERTY
Coulomb
SciTegic.value.DoubleValue
-8.074

@<SCITEGIC>MOL_PROPERTY
VdW
SciTegic.value.DoubleValue
4.266

@<SCITEGIC>MOL_PROPERTY
VdW6
SciTegic.value.DoubleValue
-13.486

@<SCITEGIC>MOL_PROPERTY
VdW12
SciTegic.value.DoubleValue
17.752

@<SCITEGIC>MOL_PROPERTY
Bond
SciTegic.value.DoubleValue
0.713

@<SCITEGIC>MOL_PROPERTY
Angle
SciTegic.value.DoubleValue
8.955

@<SCITEGIC>MOL_PROPERTY
Pdih
SciTegic.value.DoubleValue
9.215

@<SCITEGIC>MOL_PROPERTY
Idih
SciTegic.value.DoubleValue
0.000

@<SCITEGIC>MOL_PROPERTY
Tether
SciTegic.value.DoubleValue
0.000

@<TRIPOS>MOLECULE
guest-s17_confgen4.mol2 : confsearch ligand conformer 587
          25          25           1
SMALL
USER_CHARGES
 
@<TRIPOS>ATOM
       1    C1      20.133949   19.066678   20.669424 C.3        1 MOL1        -0.1684
       2    H1      20.084104   18.732412   19.624068 H          1 MOL1         0.0833
       3    H2      20.164129   20.162103   20.611376 H          1 MOL1         0.0833
       4    C2      21.453981   18.533213   21.279839 C.3        1 MOL1        -0.1684
       5    H3      21.318933   17.517314   21.674678 H          1 MOL1         0.0833
       6    H4      22.168640   18.430051   20.451714 H          1 MOL1         0.0833
       7    C3      22.118254   19.462356   22.333768 C.3        1 MOL1        -0.1684
       8    H5      22.002193   20.519509   22.059466 H          1 MOL1         0.0833
       9    H6      23.198908   19.268532   22.291112 H          1 MOL1         0.0833
      10    C4      21.677051   19.222005   23.800754 C.3        1 MOL1        -0.1760
      11    H7      21.478108   18.155151   23.959536 H          1 MOL1         0.0833
      12    H8      22.534247   19.449250   24.448217 H          1 MOL1         0.0833
      13    C5      20.497747   20.087848   24.312016 C.3        1 MOL1         0.1219
      14    H9      20.856232   21.122644   24.409275 H          1 MOL1         0.0790
      15    C6      19.231146   20.117930   23.425618 C.3        1 MOL1        -0.1760
      16    H10     18.414878   20.567165   24.006977 H          1 MOL1         0.0833
      17    H11     19.392746   20.816599   22.597664 H          1 MOL1         0.0833
      18    C7      18.767914   18.732986   22.899713 C.3        1 MOL1        -0.1684
      19    H12     17.730750   18.562652   23.219097 H          1 MOL1         0.0833
      20    H13     19.341445   17.920788   23.360687 H          1 MOL1         0.0833
      21    C8      18.828122   18.591563   21.359889 C.3        1 MOL1        -0.1684
      22    H14     17.987946   19.147203   20.921507 H          1 MOL1         0.0833
      23    H15     18.654709   17.537345   21.104286 H          1 MOL1         0.0833
      24    O1      20.127689   19.609269   25.597467 O.3        1 MOL1        -0.5508
      25    H16     19.689122   18.747490   25.446456 H          1 MOL1         0.3780
@<TRIPOS>BOND
    1     1     2    1
    2     1     3    1
    3     1     4    1
    4     4     5    1
    5     4     6    1
    6     4     7    1
    7     7     8    1
    8     7     9    1
    9     7    10    1
   10    10    11    1
   11    10    12    1
   12    10    13    1
   13    13    14    1
   14    13    15    1
   15    15    16    1
   16    15    17    1
   17    15    18    1
   18    18    19    1
   19    18    20    1
   20     1    21    1
   21    18    21    1
   22    21    22    1
   23    21    23    1
   24    13    24    1
   25    24    25    1
@<TRIPOS>SUBSTRUCTURE
       1 MOL1            1 RESIDUE      1      MOL     
@<SCITEGIC>MOL_PROPERTY
VConf Rank
SciTegic.value.IntegerValue
587

@<SCITEGIC>MOL_PROPERTY
Conf_Id
SciTegic.value.IntegerValue
164

@<SCITEGIC>MOL_PROPERTY
Delta U+W
SciTegic.value.DoubleValue
0.008

@<SCITEGIC>MOL_PROPERTY
U+W
SciTegic.value.DoubleValue
10.922

@<SCITEGIC>MOL_PROPERTY
Grad RMS
SciTegic.value.DoubleValue
0.000000

@<SCITEGIC>MOL_PROPERTY
U
SciTegic.value.DoubleValue
12.433

@<SCITEGIC>MOL_PROPERTY
W
SciTegic.value.DoubleValue
-1.511

@<SCITEGIC>MOL_PROPERTY
W(PB)
SciTegic.value.DoubleValue
-3.669

@<SCITEGIC>MOL_PROPERTY
W(SA)
SciTegic.value.DoubleValue
2.157

@<SCITEGIC>MOL_PROPERTY
Valence
SciTegic.value.DoubleValue
19.007

@<SCITEGIC>MOL_PROPERTY
Coulomb
SciTegic.value.DoubleValue
-9.373

@<SCITEGIC>MOL_PROPERTY
VdW
SciTegic.value.DoubleValue
2.799

@<SCITEGIC>MOL_PROPERTY
VdW6
SciTegic.value.DoubleValue
-12.597

@<SCITEGIC>MOL_PROPERTY
VdW12
SciTegic.value.DoubleValue
15.396

@<SCITEGIC>MOL_PROPERTY
Bond
SciTegic.value.DoubleValue
0.425

@<SCITEGIC>MOL_PROPERTY
Angle
SciTegic.value.DoubleValue
4.784

@<SCITEGIC>MOL_PROPERTY
Pdih
SciTegic.value.DoubleValue
13.799

@<SCITEGIC>MOL_PROPERTY
Idih
SciTegic.value.DoubleValue
0.000

@<SCITEGIC>MOL_PROPERTY
Tether
SciTegic.value.DoubleValue
0.000

@<TRIPOS>MOLECULE
guest-s17_confgen4.mol2 : confsearch ligand conformer 588
          25          25           1
SMALL
USER_CHARGES
 
@<TRIPOS>ATOM
       1    C1      20.154843   19.801461   24.350083 C.3        1 MOL1        -0.1684
       2    H1      19.169179   19.965041   23.899939 H          1 MOL1         0.0833
       3    H2      20.049840   20.160306   25.382980 H          1 MOL1         0.0833
       4    C2      21.218687   20.691378   23.660153 C.3        1 MOL1        -0.1684
       5    H3      20.910245   21.737108   23.795113 H          1 MOL1         0.0833
       6    H4      22.174541   20.592889   24.192272 H          1 MOL1         0.0833
       7    C3      21.459595   20.460226   22.146451 C.3        1 MOL1        -0.1684
       8    H5      22.152891   19.626017   21.989934 H          1 MOL1         0.0833
       9    H6      21.997568   21.339407   21.766148 H          1 MOL1         0.0833
      10    C4      20.177446   20.269966   21.292827 C.3        1 MOL1        -0.1760
      11    H7      19.311299   20.738538   21.775536 H          1 MOL1         0.0833
      12    H8      20.323580   20.825262   20.356595 H          1 MOL1         0.0833
      13    C5      19.864599   18.803085   20.904419 C.3        1 MOL1         0.1219
      14    H9      20.760059   18.375752   20.430988 H          1 MOL1         0.0790
      15    C6      19.429795   17.859882   22.054111 C.3        1 MOL1        -0.1760
      16    H10     18.539050   18.249179   22.561850 H          1 MOL1         0.0833
      17    H11     19.110950   16.916259   21.591344 H          1 MOL1         0.0833
      18    C7      20.546780   17.517765   23.075914 C.3        1 MOL1        -0.1684
      19    H12     21.535613   17.636184   22.618475 H          1 MOL1         0.0833
      20    H13     20.479761   16.446809   23.311636 H          1 MOL1         0.0833
      21    C8      20.472777   18.286933   24.419667 C.3        1 MOL1        -0.1684
      22    H14     21.413091   18.138358   24.967610 H          1 MOL1         0.0833
      23    H15     19.693605   17.815276   25.033942 H          1 MOL1         0.0833
      24    O1      18.815910   18.825612   19.945804 O.3        1 MOL1        -0.5508
      25    H16     18.036938   19.210114   20.397630 H          1 MOL1         0.3780
@<TRIPOS>BOND
    1     1     2    1
    2     1     3    1
    3     1     4    1
    4     4     5    1
    5     4     6    1
    6     4     7    1
    7     7     8    1
    8     7     9    1
    9     7    10    1
   10    10    11    1
   11    10    12    1
   12    10    13    1
   13    13    14    1
   14    13    15    1
   15    15    16    1
   16    15    17    1
   17    15    18    1
   18    18    19    1
   19    18    20    1
   20     1    21    1
   21    18    21    1
   22    21    22    1
   23    21    23    1
   24    13    24    1
   25    24    25    1
@<TRIPOS>SUBSTRUCTURE
       1 MOL1            1 RESIDUE      1      MOL     
@<SCITEGIC>MOL_PROPERTY
VConf Rank
SciTegic.value.IntegerValue
588

@<SCITEGIC>MOL_PROPERTY
Conf_Id
SciTegic.value.IntegerValue
15

@<SCITEGIC>MOL_PROPERTY
Delta U+W
SciTegic.value.DoubleValue
-1.271

@<SCITEGIC>MOL_PROPERTY
U+W
SciTegic.value.DoubleValue
9.643

@<SCITEGIC>MOL_PROPERTY
Grad RMS
SciTegic.value.DoubleValue
0.000000

@<SCITEGIC>MOL_PROPERTY
U
SciTegic.value.DoubleValue
11.413

@<SCITEGIC>MOL_PROPERTY
W
SciTegic.value.DoubleValue
-1.770

@<SCITEGIC>MOL_PROPERTY
W(PB)
SciTegic.value.DoubleValue
-3.908

@<SCITEGIC>MOL_PROPERTY
W(SA)
SciTegic.value.DoubleValue
2.138

@<SCITEGIC>MOL_PROPERTY
Valence
SciTegic.value.DoubleValue
17.496

@<SCITEGIC>MOL_PROPERTY
Coulomb
SciTegic.value.DoubleValue
-8.736

@<SCITEGIC>MOL_PROPERTY
VdW
SciTegic.value.DoubleValue
2.653

@<SCITEGIC>MOL_PROPERTY
VdW6
SciTegic.value.DoubleValue
-12.485

@<SCITEGIC>MOL_PROPERTY
VdW12
SciTegic.value.DoubleValue
15.138

@<SCITEGIC>MOL_PROPERTY
Bond
SciTegic.value.DoubleValue
0.414

@<SCITEGIC>MOL_PROPERTY
Angle
SciTegic.value.DoubleValue
5.295

@<SCITEGIC>MOL_PROPERTY
Pdih
SciTegic.value.DoubleValue
11.787

@<SCITEGIC>MOL_PROPERTY
Idih
SciTegic.value.DoubleValue
0.000

@<SCITEGIC>MOL_PROPERTY
Tether
SciTegic.value.DoubleValue
0.000

@<TRIPOS>MOLECULE
guest-s17_confgen4.mol2 : confsearch ligand conformer 589
          25          25           1
SMALL
USER_CHARGES
 
@<TRIPOS>ATOM
       1    C1      21.893352   18.202109   22.175394 C.3        1 MOL1        -0.1684
       2    H1      22.650476   17.480424   21.839366 H          1 MOL1         0.0833
       3    H2      22.370233   18.742887   23.002624 H          1 MOL1         0.0833
       4    C2      21.617760   19.157178   20.984295 C.3        1 MOL1        -0.1684
       5    H3      22.526945   19.746352   20.802413 H          1 MOL1         0.0833
       6    H4      21.463898   18.557960   20.076529 H          1 MOL1         0.0833
       7    C3      20.420683   20.126619   21.134381 C.3        1 MOL1        -0.1684
       8    H5      19.485798   19.587676   20.941248 H          1 MOL1         0.0833
       9    H6      20.484547   20.873863   20.331676 H          1 MOL1         0.0833
      10    C4      20.368669   20.863463   22.498128 C.3        1 MOL1        -0.1760
      11    H7      21.286141   20.690354   23.071425 H          1 MOL1         0.0833
      12    H8      20.354621   21.944597   22.307997 H          1 MOL1         0.0833
      13    C5      19.131808   20.526278   23.362274 C.3        1 MOL1         0.1219
      14    H9      18.263897   21.027291   22.910007 H          1 MOL1         0.0790
      15    C6      18.770918   19.024507   23.499829 C.3        1 MOL1        -0.1760
      16    H10     17.990238   18.951678   24.268964 H          1 MOL1         0.0833
      17    H11     18.285047   18.669946   22.582917 H          1 MOL1         0.0833
      18    C7      19.920565   18.057807   23.890782 C.3        1 MOL1        -0.1684
      19    H12     19.464043   17.238542   24.463088 H          1 MOL1         0.0833
      20    H13     20.623558   18.537123   24.584229 H          1 MOL1         0.0833
      21    C8      20.672290   17.405464   22.697828 C.3        1 MOL1        -0.1684
      22    H14     19.982978   17.164847   21.877379 H          1 MOL1         0.0833
      23    H15     21.051461   16.436997   23.052054 H          1 MOL1         0.0833
      24    O1      19.340013   21.060430   24.662174 O.3        1 MOL1        -0.5508
      25    H16     20.054702   20.524155   25.060637 H          1 MOL1         0.3780
@<TRIPOS>BOND
    1     1     2    1
    2     1     3    1
    3     1     4    1
    4     4     5    1
    5     4     6    1
    6     4     7    1
    7     7     8    1
    8     7     9    1
    9     7    10    1
   10    10    11    1
   11    10    12    1
   12    10    13    1
   13    13    14    1
   14    13    15    1
   15    15    16    1
   16    15    17    1
   17    15    18    1
   18    18    19    1
   19    18    20    1
   20     1    21    1
   21    18    21    1
   22    21    22    1
   23    21    23    1
   24    13    24    1
   25    24    25    1
@<TRIPOS>SUBSTRUCTURE
       1 MOL1            1 RESIDUE      1      MOL     
@<SCITEGIC>MOL_PROPERTY
VConf Rank
SciTegic.value.IntegerValue
589

@<SCITEGIC>MOL_PROPERTY
Conf_Id
SciTegic.value.IntegerValue
115

@<SCITEGIC>MOL_PROPERTY
Delta U+W
SciTegic.value.DoubleValue
0.038

@<SCITEGIC>MOL_PROPERTY
U+W
SciTegic.value.DoubleValue
10.952

@<SCITEGIC>MOL_PROPERTY
Grad RMS
SciTegic.value.DoubleValue
0.000000

@<SCITEGIC>MOL_PROPERTY
U
SciTegic.value.DoubleValue
12.526

@<SCITEGIC>MOL_PROPERTY
W
SciTegic.value.DoubleValue
-1.575

@<SCITEGIC>MOL_PROPERTY
W(PB)
SciTegic.value.DoubleValue
-3.698

@<SCITEGIC>MOL_PROPERTY
W(SA)
SciTegic.value.DoubleValue
2.123

@<SCITEGIC>MOL_PROPERTY
Valence
SciTegic.value.DoubleValue
19.016

@<SCITEGIC>MOL_PROPERTY
Coulomb
SciTegic.value.DoubleValue
-9.226

@<SCITEGIC>MOL_PROPERTY
VdW
SciTegic.value.DoubleValue
2.737

@<SCITEGIC>MOL_PROPERTY
VdW6
SciTegic.value.DoubleValue
-12.612

@<SCITEGIC>MOL_PROPERTY
VdW12
SciTegic.value.DoubleValue
15.349

@<SCITEGIC>MOL_PROPERTY
Bond
SciTegic.value.DoubleValue
0.421

@<SCITEGIC>MOL_PROPERTY
Angle
SciTegic.value.DoubleValue
4.883

@<SCITEGIC>MOL_PROPERTY
Pdih
SciTegic.value.DoubleValue
13.711

@<SCITEGIC>MOL_PROPERTY
Idih
SciTegic.value.DoubleValue
0.000

@<SCITEGIC>MOL_PROPERTY
Tether
SciTegic.value.DoubleValue
0.000

@<TRIPOS>MOLECULE
guest-s17_confgen4.mol2 : confsearch ligand conformer 590
          25          25           1
SMALL
USER_CHARGES
 
@<TRIPOS>ATOM
       1    C1      22.154826   19.112553   21.544907 C.3        1 MOL1        -0.1684
       2    H1      23.129579   19.484485   21.200657 H          1 MOL1         0.0833
       3    H2      22.127165   18.052220   21.259591 H          1 MOL1         0.0833
       4    C2      21.065326   19.897466   20.777810 C.3        1 MOL1        -0.1684
       5    H3      21.171067   20.973998   20.968840 H          1 MOL1         0.0833
       6    H4      21.261390   19.767721   19.704626 H          1 MOL1         0.0833
       7    C3      19.612448   19.446150   21.054130 C.3        1 MOL1        -0.1684
       8    H5      19.554715   18.350239   21.094426 H          1 MOL1         0.0833
       9    H6      19.006812   19.738013   20.185117 H          1 MOL1         0.0833
      10    C4      18.969578   20.095184   22.309285 C.3        1 MOL1        -0.1760
      11    H7      19.562142   20.947142   22.665437 H          1 MOL1         0.0833
      12    H8      18.004487   20.519233   22.000509 H          1 MOL1         0.0833
      13    C5      18.705436   19.112556   23.472310 C.3        1 MOL1         0.1219
      14    H9      18.410286   18.138997   23.055490 H          1 MOL1         0.0790
      15    C6      19.902449   18.907644   24.427089 C.3        1 MOL1        -0.1760
      16    H10     20.171500   19.861173   24.900359 H          1 MOL1         0.0833
      17    H11     19.567119   18.253588   25.242672 H          1 MOL1         0.0833
      18    C7      21.154947   18.256303   23.791737 C.3        1 MOL1        -0.1684
      19    H12     20.861937   17.437734   23.120826 H          1 MOL1         0.0833
      20    H13     21.721726   17.778502   24.602722 H          1 MOL1         0.0833
      21    C8      22.109568   19.253614   23.084579 C.3        1 MOL1        -0.1684
      22    H14     23.123775   19.059449   23.459930 H          1 MOL1         0.0833
      23    H15     21.889210   20.291367   23.368018 H          1 MOL1         0.0833
      24    O1      17.625853   19.624419   24.244415 O.3        1 MOL1        -0.5508
      25    H16     17.438503   18.963006   24.942818 H          1 MOL1         0.3780
@<TRIPOS>BOND
    1     1     2    1
    2     1     3    1
    3     1     4    1
    4     4     5    1
    5     4     6    1
    6     4     7    1
    7     7     8    1
    8     7     9    1
    9     7    10    1
   10    10    11    1
   11    10    12    1
   12    10    13    1
   13    13    14    1
   14    13    15    1
   15    15    16    1
   16    15    17    1
   17    15    18    1
   18    18    19    1
   19    18    20    1
   20     1    21    1
   21    18    21    1
   22    21    22    1
   23    21    23    1
   24    13    24    1
   25    24    25    1
@<TRIPOS>SUBSTRUCTURE
       1 MOL1            1 RESIDUE      1      MOL     
@<SCITEGIC>MOL_PROPERTY
VConf Rank
SciTegic.value.IntegerValue
590

@<SCITEGIC>MOL_PROPERTY
Conf_Id
SciTegic.value.IntegerValue
30

@<SCITEGIC>MOL_PROPERTY
Delta U+W
SciTegic.value.DoubleValue
0.000

@<SCITEGIC>MOL_PROPERTY
U+W
SciTegic.value.DoubleValue
10.913

@<SCITEGIC>MOL_PROPERTY
Grad RMS
SciTegic.value.DoubleValue
0.000000

@<SCITEGIC>MOL_PROPERTY
U
SciTegic.value.DoubleValue
13.140

@<SCITEGIC>MOL_PROPERTY
W
SciTegic.value.DoubleValue
-2.227

@<SCITEGIC>MOL_PROPERTY
W(PB)
SciTegic.value.DoubleValue
-4.367

@<SCITEGIC>MOL_PROPERTY
W(SA)
SciTegic.value.DoubleValue
2.140

@<SCITEGIC>MOL_PROPERTY
Valence
SciTegic.value.DoubleValue
19.155

@<SCITEGIC>MOL_PROPERTY
Coulomb
SciTegic.value.DoubleValue
-8.157

@<SCITEGIC>MOL_PROPERTY
VdW
SciTegic.value.DoubleValue
2.142

@<SCITEGIC>MOL_PROPERTY
VdW6
SciTegic.value.DoubleValue
-11.576

@<SCITEGIC>MOL_PROPERTY
VdW12
SciTegic.value.DoubleValue
13.718

@<SCITEGIC>MOL_PROPERTY
Bond
SciTegic.value.DoubleValue
0.294

@<SCITEGIC>MOL_PROPERTY
Angle
SciTegic.value.DoubleValue
3.547

@<SCITEGIC>MOL_PROPERTY
Pdih
SciTegic.value.DoubleValue
15.314

@<SCITEGIC>MOL_PROPERTY
Idih
SciTegic.value.DoubleValue
0.000

@<SCITEGIC>MOL_PROPERTY
Tether
SciTegic.value.DoubleValue
0.000

@<TRIPOS>MOLECULE
guest-s17_confgen4.mol2 : confsearch ligand conformer 591
          25          25           1
SMALL
USER_CHARGES
 
@<TRIPOS>ATOM
       1    C1      20.194237   18.411464   24.619221 C.3        1 MOL1        -0.1684
       2    H1      20.746437   18.609733   25.547995 H          1 MOL1         0.0833
       3    H2      19.526103   17.569288   24.845295 H          1 MOL1         0.0833
       4    C2      21.202429   17.953424   23.536709 C.3        1 MOL1        -0.1684
       5    H3      21.893541   17.236063   23.999987 H          1 MOL1         0.0833
       6    H4      20.678600   17.375202   22.766762 H          1 MOL1         0.0833
       7    C3      22.030583   19.101425   22.905792 C.3        1 MOL1        -0.1684
       8    H5      23.098403   18.872898   23.025042 H          1 MOL1         0.0833
       9    H6      21.882739   20.039876   23.452680 H          1 MOL1         0.0833
      10    C4      21.753110   19.326243   21.397805 C.3        1 MOL1        -0.1760
      11    H7      22.234799   20.264707   21.092814 H          1 MOL1         0.0833
      12    H8      22.254805   18.531727   20.830169 H          1 MOL1         0.0833
      13    C5      20.268482   19.353527   20.955862 C.3        1 MOL1         0.1219
      14    H9      19.853301   18.338930   21.020691 H          1 MOL1         0.0790
      15    C6      19.359703   20.312468   21.763233 C.3        1 MOL1        -0.1760
      16    H10     19.934277   21.180907   22.109977 H          1 MOL1         0.0833
      17    H11     18.601873   20.719888   21.080812 H          1 MOL1         0.0833
      18    C7      18.590647   19.650305   22.941301 C.3        1 MOL1        -0.1684
      19    H12     18.267318   18.632779   22.683383 H          1 MOL1         0.0833
      20    H13     17.663891   20.224082   23.079647 H          1 MOL1         0.0833
      21    C8      19.333741   19.662971   24.300143 C.3        1 MOL1        -0.1684
      22    H14     18.580327   19.743776   25.095695 H          1 MOL1         0.0833
      23    H15     19.933690   20.577406   24.390690 H          1 MOL1         0.0833
      24    O1      20.243944   19.754112   19.590891 O.3        1 MOL1        -0.5508
      25    H16     19.311655   19.692099   19.295180 H          1 MOL1         0.3780
@<TRIPOS>BOND
    1     1     2    1
    2     1     3    1
    3     1     4    1
    4     4     5    1
    5     4     6    1
    6     4     7    1
    7     7     8    1
    8     7     9    1
    9     7    10    1
   10    10    11    1
   11    10    12    1
   12    10    13    1
   13    13    14    1
   14    13    15    1
   15    15    16    1
   16    15    17    1
   17    15    18    1
   18    18    19    1
   19    18    20    1
   20     1    21    1
   21    18    21    1
   22    21    22    1
   23    21    23    1
   24    13    24    1
   25    24    25    1
@<TRIPOS>SUBSTRUCTURE
       1 MOL1            1 RESIDUE      1      MOL     
@<SCITEGIC>MOL_PROPERTY
VConf Rank
SciTegic.value.IntegerValue
591

@<SCITEGIC>MOL_PROPERTY
Conf_Id
SciTegic.value.IntegerValue
162

@<SCITEGIC>MOL_PROPERTY
Delta U+W
SciTegic.value.DoubleValue
0.219

@<SCITEGIC>MOL_PROPERTY
U+W
SciTegic.value.DoubleValue
11.132

@<SCITEGIC>MOL_PROPERTY
Grad RMS
SciTegic.value.DoubleValue
0.000000

@<SCITEGIC>MOL_PROPERTY
U
SciTegic.value.DoubleValue
13.296

@<SCITEGIC>MOL_PROPERTY
W
SciTegic.value.DoubleValue
-2.164

@<SCITEGIC>MOL_PROPERTY
W(PB)
SciTegic.value.DoubleValue
-4.311

@<SCITEGIC>MOL_PROPERTY
W(SA)
SciTegic.value.DoubleValue
2.148

@<SCITEGIC>MOL_PROPERTY
Valence
SciTegic.value.DoubleValue
18.607

@<SCITEGIC>MOL_PROPERTY
Coulomb
SciTegic.value.DoubleValue
-8.339

@<SCITEGIC>MOL_PROPERTY
VdW
SciTegic.value.DoubleValue
3.028

@<SCITEGIC>MOL_PROPERTY
VdW6
SciTegic.value.DoubleValue
-12.271

@<SCITEGIC>MOL_PROPERTY
VdW12
SciTegic.value.DoubleValue
15.299

@<SCITEGIC>MOL_PROPERTY
Bond
SciTegic.value.DoubleValue
0.423

@<SCITEGIC>MOL_PROPERTY
Angle
SciTegic.value.DoubleValue
4.488

@<SCITEGIC>MOL_PROPERTY
Pdih
SciTegic.value.DoubleValue
13.696

@<SCITEGIC>MOL_PROPERTY
Idih
SciTegic.value.DoubleValue
0.000

@<SCITEGIC>MOL_PROPERTY
Tether
SciTegic.value.DoubleValue
0.000

@<TRIPOS>MOLECULE
guest-s17_confgen4.mol2 : confsearch ligand conformer 592
          25          25           1
SMALL
USER_CHARGES
 
@<TRIPOS>ATOM
       1    C1      21.925596   19.730996   21.536784 C.3        1 MOL1        -0.1684
       2    H1      21.637627   18.915207   20.861687 H          1 MOL1         0.0833
       3    H2      22.795411   20.198553   21.055349 H          1 MOL1         0.0833
       4    C2      20.792786   20.785406   21.605069 C.3        1 MOL1        -0.1684
       5    H3      20.888602   21.402550   22.508499 H          1 MOL1         0.0833
       6    H4      20.948692   21.475147   20.764183 H          1 MOL1         0.0833
       7    C3      19.352371   20.219522   21.461745 C.3        1 MOL1        -0.1684
       8    H5      19.321159   19.391528   20.740898 H          1 MOL1         0.0833
       9    H6      18.741590   21.016221   21.015261 H          1 MOL1         0.0833
      10    C4      18.663600   19.818916   22.792270 C.3        1 MOL1        -0.1760
      11    H7      18.987471   20.489161   23.597983 H          1 MOL1         0.0833
      12    H8      17.587689   20.007817   22.682980 H          1 MOL1         0.0833
      13    C5      18.809734   18.337848   23.224020 C.3        1 MOL1         0.1219
      14    H9      18.206971   17.726093   22.537343 H          1 MOL1         0.0790
      15    C6      20.245052   17.760062   23.215099 C.3        1 MOL1        -0.1760
      16    H10     20.235802   16.793109   23.734633 H          1 MOL1         0.0833
      17    H11     20.522509   17.513060   22.184767 H          1 MOL1         0.0833
      18    C7      21.315803   18.669546   23.873738 C.3        1 MOL1        -0.1684
      19    H12     21.804564   18.110535   24.683045 H          1 MOL1         0.0833
      20    H13     20.848404   19.527975   24.370477 H          1 MOL1         0.0833
      21    C8      22.410192   19.168017   22.899252 C.3        1 MOL1        -0.1684
      22    H14     23.106364   18.342135   22.699251 H          1 MOL1         0.0833
      23    H15     23.001175   19.939107   23.411961 H          1 MOL1         0.0833
      24    O1      18.279613   18.214040   24.538457 O.3        1 MOL1        -0.5508
      25    H16     18.381933   17.274769   24.796174 H          1 MOL1         0.3780
@<TRIPOS>BOND
    1     1     2    1
    2     1     3    1
    3     1     4    1
    4     4     5    1
    5     4     6    1
    6     4     7    1
    7     7     8    1
    8     7     9    1
    9     7    10    1
   10    10    11    1
   11    10    12    1
   12    10    13    1
   13    13    14    1
   14    13    15    1
   15    15    16    1
   16    15    17    1
   17    15    18    1
   18    18    19    1
   19    18    20    1
   20     1    21    1
   21    18    21    1
   22    21    22    1
   23    21    23    1
   24    13    24    1
   25    24    25    1
@<TRIPOS>SUBSTRUCTURE
       1 MOL1            1 RESIDUE      1      MOL     
@<SCITEGIC>MOL_PROPERTY
VConf Rank
SciTegic.value.IntegerValue
592

@<SCITEGIC>MOL_PROPERTY
Conf_Id
SciTegic.value.IntegerValue
155

@<SCITEGIC>MOL_PROPERTY
Delta U+W
SciTegic.value.DoubleValue
0.339

@<SCITEGIC>MOL_PROPERTY
U+W
SciTegic.value.DoubleValue
11.252

@<SCITEGIC>MOL_PROPERTY
Grad RMS
SciTegic.value.DoubleValue
0.000000

@<SCITEGIC>MOL_PROPERTY
U
SciTegic.value.DoubleValue
13.420

@<SCITEGIC>MOL_PROPERTY
W
SciTegic.value.DoubleValue
-2.167

@<SCITEGIC>MOL_PROPERTY
W(PB)
SciTegic.value.DoubleValue
-4.325

@<SCITEGIC>MOL_PROPERTY
W(SA)
SciTegic.value.DoubleValue
2.157

@<SCITEGIC>MOL_PROPERTY
Valence
SciTegic.value.DoubleValue
18.609

@<SCITEGIC>MOL_PROPERTY
Coulomb
SciTegic.value.DoubleValue
-8.052

@<SCITEGIC>MOL_PROPERTY
VdW
SciTegic.value.DoubleValue
2.863

@<SCITEGIC>MOL_PROPERTY
VdW6
SciTegic.value.DoubleValue
-12.524

@<SCITEGIC>MOL_PROPERTY
VdW12
SciTegic.value.DoubleValue
15.387

@<SCITEGIC>MOL_PROPERTY
Bond
SciTegic.value.DoubleValue
0.430

@<SCITEGIC>MOL_PROPERTY
Angle
SciTegic.value.DoubleValue
4.724

@<SCITEGIC>MOL_PROPERTY
Pdih
SciTegic.value.DoubleValue
13.455

@<SCITEGIC>MOL_PROPERTY
Idih
SciTegic.value.DoubleValue
0.000

@<SCITEGIC>MOL_PROPERTY
Tether
SciTegic.value.DoubleValue
0.000

@<TRIPOS>MOLECULE
guest-s17_confgen4.mol2 : confsearch ligand conformer 593
          25          25           1
SMALL
USER_CHARGES
 
@<TRIPOS>ATOM
       1    C1      18.659188   18.919134   21.639272 C.3        1 MOL1        -0.1684
       2    H1      18.764504   18.237915   20.784176 H          1 MOL1         0.0833
       3    H2      17.600378   19.211642   21.651241 H          1 MOL1         0.0833
       4    C2      18.925489   18.136453   22.952023 C.3        1 MOL1        -0.1684
       5    H3      18.707146   18.782125   23.808512 H          1 MOL1         0.0833
       6    H4      18.166694   17.345638   23.026576 H          1 MOL1         0.0833
       7    C3      20.314906   17.453386   23.113745 C.3        1 MOL1        -0.1684
       8    H5      20.251515   16.463209   22.642486 H          1 MOL1         0.0833
       9    H6      20.494671   17.260180   24.180082 H          1 MOL1         0.0833
      10    C4      21.556186   18.164838   22.509623 C.3        1 MOL1        -0.1760
      11    H7      22.404954   17.473999   22.596983 H          1 MOL1         0.0833
      12    H8      21.424515   18.260710   21.428316 H          1 MOL1         0.0833
      13    C5      21.987140   19.528897   23.124379 C.3        1 MOL1         0.1219
      14    H9      22.565481   20.071610   22.362963 H          1 MOL1         0.0790
      15    C6      20.870246   20.472930   23.636132 C.3        1 MOL1        -0.1760
      16    H10     20.321512   19.974095   24.440231 H          1 MOL1         0.0833
      17    H11     21.357783   21.317529   24.140696 H          1 MOL1         0.0833
      18    C7      19.889006   21.076673   22.586863 C.3        1 MOL1        -0.1684
      19    H12     20.352440   21.990721   22.191156 H          1 MOL1         0.0833
      20    H13     18.978597   21.410118   23.102896 H          1 MOL1         0.0833
      21    C8      19.493362   20.204999   21.366069 C.3        1 MOL1        -0.1684
      22    H14     20.388378   19.971577   20.780888 H          1 MOL1         0.0833
      23    H15     18.901301   20.834525   20.687806 H          1 MOL1         0.0833
      24    O1      22.839786   19.258204   24.231585 O.3        1 MOL1        -0.5508
      25    H16     23.573548   18.703765   23.894789 H          1 MOL1         0.3780
@<TRIPOS>BOND
    1     1     2    1
    2     1     3    1
    3     1     4    1
    4     4     5    1
    5     4     6    1
    6     4     7    1
    7     7     8    1
    8     7     9    1
    9     7    10    1
   10    10    11    1
   11    10    12    1
   12    10    13    1
   13    13    14    1
   14    13    15    1
   15    15    16    1
   16    15    17    1
   17    15    18    1
   18    18    19    1
   19    18    20    1
   20     1    21    1
   21    18    21    1
   22    21    22    1
   23    21    23    1
   24    13    24    1
   25    24    25    1
@<TRIPOS>SUBSTRUCTURE
       1 MOL1            1 RESIDUE      1      MOL     
@<SCITEGIC>MOL_PROPERTY
VConf Rank
SciTegic.value.IntegerValue
593

@<SCITEGIC>MOL_PROPERTY
Conf_Id
SciTegic.value.IntegerValue
146

@<SCITEGIC>MOL_PROPERTY
Delta U+W
SciTegic.value.DoubleValue
2.553

@<SCITEGIC>MOL_PROPERTY
U+W
SciTegic.value.DoubleValue
13.466

@<SCITEGIC>MOL_PROPERTY
Grad RMS
SciTegic.value.DoubleValue
0.000000

@<SCITEGIC>MOL_PROPERTY
U
SciTegic.value.DoubleValue
15.643

@<SCITEGIC>MOL_PROPERTY
W
SciTegic.value.DoubleValue
-2.176

@<SCITEGIC>MOL_PROPERTY
W(PB)
SciTegic.value.DoubleValue
-4.307

@<SCITEGIC>MOL_PROPERTY
W(SA)
SciTegic.value.DoubleValue
2.131

@<SCITEGIC>MOL_PROPERTY
Valence
SciTegic.value.DoubleValue
18.916

@<SCITEGIC>MOL_PROPERTY
Coulomb
SciTegic.value.DoubleValue
-7.506

@<SCITEGIC>MOL_PROPERTY
VdW
SciTegic.value.DoubleValue
4.232

@<SCITEGIC>MOL_PROPERTY
VdW6
SciTegic.value.DoubleValue
-13.632

@<SCITEGIC>MOL_PROPERTY
VdW12
SciTegic.value.DoubleValue
17.864

@<SCITEGIC>MOL_PROPERTY
Bond
SciTegic.value.DoubleValue
0.735

@<SCITEGIC>MOL_PROPERTY
Angle
SciTegic.value.DoubleValue
9.140

@<SCITEGIC>MOL_PROPERTY
Pdih
SciTegic.value.DoubleValue
9.042

@<SCITEGIC>MOL_PROPERTY
Idih
SciTegic.value.DoubleValue
0.000

@<SCITEGIC>MOL_PROPERTY
Tether
SciTegic.value.DoubleValue
0.000

@<TRIPOS>MOLECULE
guest-s17_confgen4.mol2 : confsearch ligand conformer 594
          25          25           1
SMALL
USER_CHARGES
 
@<TRIPOS>ATOM
       1    C1      21.379308   18.714126   24.358991 C.3        1 MOL1        -0.1684
       2    H1      21.534913   17.667632   24.654191 H          1 MOL1         0.0833
       3    H2      21.883567   19.316551   25.126923 H          1 MOL1         0.0833
       4    C2      19.867698   19.046028   24.429828 C.3        1 MOL1        -0.1684
       5    H3      19.549811   18.896697   25.470716 H          1 MOL1         0.0833
       6    H4      19.702473   20.113016   24.241721 H          1 MOL1         0.0833
       7    C3      18.937763   18.186093   23.537575 C.3        1 MOL1        -0.1684
       8    H5      17.901554   18.456388   23.782917 H          1 MOL1         0.0833
       9    H6      19.043508   17.128775   23.815676 H          1 MOL1         0.0833
      10    C4      19.112711   18.322920   22.002527 C.3        1 MOL1        -0.1760
      11    H7      19.945664   17.702078   21.657834 H          1 MOL1         0.0833
      12    H8      18.225256   17.874846   21.535419 H          1 MOL1         0.0833
      13    C5      19.278018   19.775381   21.485705 C.3        1 MOL1         0.1219
      14    H9      18.893375   20.479243   22.235953 H          1 MOL1         0.0790
      15    C6      20.735684   20.157234   21.123541 C.3        1 MOL1        -0.1760
      16    H10     21.128604   19.432495   20.398223 H          1 MOL1         0.0833
      17    H11     20.712955   21.120615   20.597498 H          1 MOL1         0.0833
      18    C7      21.737628   20.298571   22.301564 C.3        1 MOL1        -0.1684
      19    H12     21.387379   21.047583   23.023441 H          1 MOL1         0.0833
      20    H13     22.665350   20.714259   21.885011 H          1 MOL1         0.0833
      21    C8      22.101006   18.968087   23.010263 C.3        1 MOL1        -0.1684
      22    H14     23.179728   18.975597   23.218445 H          1 MOL1         0.0833
      23    H15     21.960769   18.119488   22.331266 H          1 MOL1         0.0833
      24    O1      18.497869   19.915407   20.303712 O.3        1 MOL1        -0.5508
      25    H16     18.568506   20.852787   20.027035 H          1 MOL1         0.3780
@<TRIPOS>BOND
    1     1     2    1
    2     1     3    1
    3     1     4    1
    4     4     5    1
    5     4     6    1
    6     4     7    1
    7     7     8    1
    8     7     9    1
    9     7    10    1
   10    10    11    1
   11    10    12    1
   12    10    13    1
   13    13    14    1
   14    13    15    1
   15    15    16    1
   16    15    17    1
   17    15    18    1
   18    18    19    1
   19    18    20    1
   20     1    21    1
   21    18    21    1
   22    21    22    1
   23    21    23    1
   24    13    24    1
   25    24    25    1
@<TRIPOS>SUBSTRUCTURE
       1 MOL1            1 RESIDUE      1      MOL     
@<SCITEGIC>MOL_PROPERTY
VConf Rank
SciTegic.value.IntegerValue
594

@<SCITEGIC>MOL_PROPERTY
Conf_Id
SciTegic.value.IntegerValue
62

@<SCITEGIC>MOL_PROPERTY
Delta U+W
SciTegic.value.DoubleValue
-1.779

@<SCITEGIC>MOL_PROPERTY
U+W
SciTegic.value.DoubleValue
9.134

@<SCITEGIC>MOL_PROPERTY
Grad RMS
SciTegic.value.DoubleValue
0.000000

@<SCITEGIC>MOL_PROPERTY
U
SciTegic.value.DoubleValue
11.364

@<SCITEGIC>MOL_PROPERTY
W
SciTegic.value.DoubleValue
-2.230

@<SCITEGIC>MOL_PROPERTY
W(PB)
SciTegic.value.DoubleValue
-4.359

@<SCITEGIC>MOL_PROPERTY
W(SA)
SciTegic.value.DoubleValue
2.129

@<SCITEGIC>MOL_PROPERTY
Valence
SciTegic.value.DoubleValue
16.582

@<SCITEGIC>MOL_PROPERTY
Coulomb
SciTegic.value.DoubleValue
-8.150

@<SCITEGIC>MOL_PROPERTY
VdW
SciTegic.value.DoubleValue
2.933

@<SCITEGIC>MOL_PROPERTY
VdW6
SciTegic.value.DoubleValue
-12.531

@<SCITEGIC>MOL_PROPERTY
VdW12
SciTegic.value.DoubleValue
15.464

@<SCITEGIC>MOL_PROPERTY
Bond
SciTegic.value.DoubleValue
0.439

@<SCITEGIC>MOL_PROPERTY
Angle
SciTegic.value.DoubleValue
5.099

@<SCITEGIC>MOL_PROPERTY
Pdih
SciTegic.value.DoubleValue
11.044

@<SCITEGIC>MOL_PROPERTY
Idih
SciTegic.value.DoubleValue
0.000

@<SCITEGIC>MOL_PROPERTY
Tether
SciTegic.value.DoubleValue
0.000

@<TRIPOS>MOLECULE
guest-s17_confgen4.mol2 : confsearch ligand conformer 595
          25          25           1
SMALL
USER_CHARGES
 
@<TRIPOS>ATOM
       1    C1      20.138530   20.817697   21.770545 C.3        1 MOL1        -0.1684
       2    H1      19.398584   20.852146   22.578268 H          1 MOL1         0.0833
       3    H2      19.997024   21.760872   21.225534 H          1 MOL1         0.0833
       4    C2      19.812520   19.665236   20.788097 C.3        1 MOL1        -0.1684
       5    H3      18.811849   19.856646   20.377112 H          1 MOL1         0.0833
       6    H4      20.499164   19.713015   19.932100 H          1 MOL1         0.0833
       7    C3      19.821912   18.224816   21.360656 C.3        1 MOL1        -0.1684
       8    H5      20.842916   17.827434   21.385786 H          1 MOL1         0.0833
       9    H6      19.296439   17.585850   20.637727 H          1 MOL1         0.0833
      10    C4      19.137647   18.056502   22.743683 C.3        1 MOL1        -0.1760
      11    H7      18.400732   18.850006   22.918495 H          1 MOL1         0.0833
      12    H8      18.556915   17.125515   22.706825 H          1 MOL1         0.0833
      13    C5      20.111223   17.945750   23.944215 C.3        1 MOL1         0.1219
      14    H9      20.836112   17.147878   23.727609 H          1 MOL1         0.0790
      15    C6      20.901113   19.227005   24.310779 C.3        1 MOL1        -0.1760
      16    H10     20.213700   20.052355   24.532252 H          1 MOL1         0.0833
      17    H11     21.420409   19.022803   25.256529 H          1 MOL1         0.0833
      18    C7      21.975578   19.654325   23.275167 C.3        1 MOL1        -0.1684
      19    H12     22.299871   18.792958   22.680333 H          1 MOL1         0.0833
      20    H13     22.875887   19.964052   23.823311 H          1 MOL1         0.0833
      21    C8      21.574140   20.833382   22.352350 C.3        1 MOL1        -0.1684
      22    H14     22.298483   20.904957   21.529739 H          1 MOL1         0.0833
      23    H15     21.685423   21.762625   22.927681 H          1 MOL1         0.0833
      24    O1      19.348681   17.572430   25.085087 O.3        1 MOL1        -0.5508
      25    H16     18.907342   16.725475   24.865919 H          1 MOL1         0.3780
@<TRIPOS>BOND
    1     1     2    1
    2     1     3    1
    3     1     4    1
    4     4     5    1
    5     4     6    1
    6     4     7    1
    7     7     8    1
    8     7     9    1
    9     7    10    1
   10    10    11    1
   11    10    12    1
   12    10    13    1
   13    13    14    1
   14    13    15    1
   15    15    16    1
   16    15    17    1
   17    15    18    1
   18    18    19    1
   19    18    20    1
   20     1    21    1
   21    18    21    1
   22    21    22    1
   23    21    23    1
   24    13    24    1
   25    24    25    1
@<TRIPOS>SUBSTRUCTURE
       1 MOL1            1 RESIDUE      1      MOL     
@<SCITEGIC>MOL_PROPERTY
VConf Rank
SciTegic.value.IntegerValue
595

@<SCITEGIC>MOL_PROPERTY
Conf_Id
SciTegic.value.IntegerValue
121

@<SCITEGIC>MOL_PROPERTY
Delta U+W
SciTegic.value.DoubleValue
-1.283

@<SCITEGIC>MOL_PROPERTY
U+W
SciTegic.value.DoubleValue
9.630

@<SCITEGIC>MOL_PROPERTY
Grad RMS
SciTegic.value.DoubleValue
0.000000

@<SCITEGIC>MOL_PROPERTY
U
SciTegic.value.DoubleValue
11.876

@<SCITEGIC>MOL_PROPERTY
W
SciTegic.value.DoubleValue
-2.246

@<SCITEGIC>MOL_PROPERTY
W(PB)
SciTegic.value.DoubleValue
-4.376

@<SCITEGIC>MOL_PROPERTY
W(SA)
SciTegic.value.DoubleValue
2.130

@<SCITEGIC>MOL_PROPERTY
Valence
SciTegic.value.DoubleValue
17.153

@<SCITEGIC>MOL_PROPERTY
Coulomb
SciTegic.value.DoubleValue
-7.966

@<SCITEGIC>MOL_PROPERTY
VdW
SciTegic.value.DoubleValue
2.689

@<SCITEGIC>MOL_PROPERTY
VdW6
SciTegic.value.DoubleValue
-12.458

@<SCITEGIC>MOL_PROPERTY
VdW12
SciTegic.value.DoubleValue
15.147

@<SCITEGIC>MOL_PROPERTY
Bond
SciTegic.value.DoubleValue
0.421

@<SCITEGIC>MOL_PROPERTY
Angle
SciTegic.value.DoubleValue
5.258

@<SCITEGIC>MOL_PROPERTY
Pdih
SciTegic.value.DoubleValue
11.475

@<SCITEGIC>MOL_PROPERTY
Idih
SciTegic.value.DoubleValue
0.000

@<SCITEGIC>MOL_PROPERTY
Tether
SciTegic.value.DoubleValue
0.000

@<TRIPOS>MOLECULE
guest-s17_confgen4.mol2 : confsearch ligand conformer 596
          25          25           1
SMALL
USER_CHARGES
 
@<TRIPOS>ATOM
       1    C1      22.096752   19.857797   22.897669 C.3        1 MOL1        -0.1684
       2    H1      22.178875   19.069922   22.140283 H          1 MOL1         0.0833
       3    H2      23.123069   20.228663   23.023245 H          1 MOL1         0.0833
       4    C2      21.655056   19.257426   24.255676 C.3        1 MOL1        -0.1684
       5    H3      22.416653   18.524050   24.554026 H          1 MOL1         0.0833
       6    H4      21.680446   20.041349   25.024637 H          1 MOL1         0.0833
       7    C3      20.275343   18.552276   24.301297 C.3        1 MOL1        -0.1684
       8    H5      19.472859   19.285132   24.442317 H          1 MOL1         0.0833
       9    H6      20.253515   17.942077   25.214603 H          1 MOL1         0.0833
      10    C4      19.962465   17.628227   23.093898 C.3        1 MOL1        -0.1760
      11    H7      20.884120   17.275474   22.615456 H          1 MOL1         0.0833
      12    H8      19.479005   16.724971   23.489125 H          1 MOL1         0.0833
      13    C5      18.999786   18.230731   22.040261 C.3        1 MOL1         0.1219
      14    H9      18.094138   18.573138   22.561356 H          1 MOL1         0.0790
      15    C6      19.550510   19.409256   21.198140 C.3        1 MOL1        -0.1760
      16    H10     20.462023   19.108961   20.666896 H          1 MOL1         0.0833
      17    H11     18.814147   19.621374   20.411934 H          1 MOL1         0.0833
      18    C7      19.772312   20.728046   21.986115 C.3        1 MOL1        -0.1684
      19    H12     19.133922   20.756134   22.876432 H          1 MOL1         0.0833
      20    H13     19.415841   21.562241   21.366381 H          1 MOL1         0.0833
      21    C8      21.244385   21.035209   22.362105 C.3        1 MOL1        -0.1684
      22    H14     21.262118   21.856882   23.090825 H          1 MOL1         0.0833
      23    H15     21.746117   21.423032   21.465028 H          1 MOL1         0.0833
      24    O1      18.642754   17.188045   21.141507 O.3        1 MOL1        -0.5508
      25    H16     17.982353   17.562161   20.521783 H          1 MOL1         0.3780
@<TRIPOS>BOND
    1     1     2    1
    2     1     3    1
    3     1     4    1
    4     4     5    1
    5     4     6    1
    6     4     7    1
    7     7     8    1
    8     7     9    1
    9     7    10    1
   10    10    11    1
   11    10    12    1
   12    10    13    1
   13    13    14    1
   14    13    15    1
   15    15    16    1
   16    15    17    1
   17    15    18    1
   18    18    19    1
   19    18    20    1
   20     1    21    1
   21    18    21    1
   22    21    22    1
   23    21    23    1
   24    13    24    1
   25    24    25    1
@<TRIPOS>SUBSTRUCTURE
       1 MOL1            1 RESIDUE      1      MOL     
@<SCITEGIC>MOL_PROPERTY
VConf Rank
SciTegic.value.IntegerValue
596

@<SCITEGIC>MOL_PROPERTY
Conf_Id
SciTegic.value.IntegerValue
24

@<SCITEGIC>MOL_PROPERTY
Delta U+W
SciTegic.value.DoubleValue
-1.236

@<SCITEGIC>MOL_PROPERTY
U+W
SciTegic.value.DoubleValue
9.678

@<SCITEGIC>MOL_PROPERTY
Grad RMS
SciTegic.value.DoubleValue
0.000000

@<SCITEGIC>MOL_PROPERTY
U
SciTegic.value.DoubleValue
11.876

@<SCITEGIC>MOL_PROPERTY
W
SciTegic.value.DoubleValue
-2.199

@<SCITEGIC>MOL_PROPERTY
W(PB)
SciTegic.value.DoubleValue
-4.335

@<SCITEGIC>MOL_PROPERTY
W(SA)
SciTegic.value.DoubleValue
2.137

@<SCITEGIC>MOL_PROPERTY
Valence
SciTegic.value.DoubleValue
17.153

@<SCITEGIC>MOL_PROPERTY
Coulomb
SciTegic.value.DoubleValue
-7.966

@<SCITEGIC>MOL_PROPERTY
VdW
SciTegic.value.DoubleValue
2.689

@<SCITEGIC>MOL_PROPERTY
VdW6
SciTegic.value.DoubleValue
-12.458

@<SCITEGIC>MOL_PROPERTY
VdW12
SciTegic.value.DoubleValue
15.147

@<SCITEGIC>MOL_PROPERTY
Bond
SciTegic.value.DoubleValue
0.421

@<SCITEGIC>MOL_PROPERTY
Angle
SciTegic.value.DoubleValue
5.258

@<SCITEGIC>MOL_PROPERTY
Pdih
SciTegic.value.DoubleValue
11.475

@<SCITEGIC>MOL_PROPERTY
Idih
SciTegic.value.DoubleValue
0.000

@<SCITEGIC>MOL_PROPERTY
Tether
SciTegic.value.DoubleValue
0.000

@<TRIPOS>MOLECULE
guest-s17_confgen4.mol2 : confsearch ligand conformer 597
          25          25           1
SMALL
USER_CHARGES
 
@<TRIPOS>ATOM
       1    C1      22.198423   20.080320   22.902547 C.3        1 MOL1        -0.1684
       2    H1      22.615157   20.333460   23.886940 H          1 MOL1         0.0833
       3    H2      22.933977   20.436086   22.168214 H          1 MOL1         0.0833
       4    C2      22.107965   18.536139   22.777952 C.3        1 MOL1        -0.1684
       5    H3      22.014401   18.238081   21.725954 H          1 MOL1         0.0833
       6    H4      23.078631   18.132392   23.097111 H          1 MOL1         0.0833
       7    C3      21.006199   17.849463   23.622491 C.3        1 MOL1        -0.1684
       8    H5      20.861508   18.374760   24.576212 H          1 MOL1         0.0833
       9    H6      21.385671   16.854472   23.893040 H          1 MOL1         0.0833
      10    C4      19.651955   17.631675   22.890015 C.3        1 MOL1        -0.1760
      11    H7      19.814912   17.385596   21.832958 H          1 MOL1         0.0833
      12    H8      19.196282   16.736019   23.333987 H          1 MOL1         0.0833
      13    C5      18.639425   18.794858   23.027368 C.3        1 MOL1         0.1219
      14    H9      18.824956   19.308120   23.980162 H          1 MOL1         0.0790
      15    C6      18.658318   19.831265   21.875277 C.3        1 MOL1        -0.1760
      16    H10     18.220536   19.382271   20.974099 H          1 MOL1         0.0833
      17    H11     17.989067   20.654580   22.157902 H          1 MOL1         0.0833
      18    C7      20.035818   20.430839   21.496273 C.3        1 MOL1        -0.1684
      19    H12     19.862052   21.300021   20.847362 H          1 MOL1         0.0833
      20    H13     20.588425   19.720784   20.870063 H          1 MOL1         0.0833
      21    C8      20.886236   20.879779   22.711425 C.3        1 MOL1        -0.1684
      22    H14     20.299258   20.850578   23.636769 H          1 MOL1         0.0833
      23    H15     21.150188   21.938445   22.583263 H          1 MOL1         0.0833
      24    O1      17.329571   18.243924   23.076978 O.3        1 MOL1        -0.5508
      25    H16     17.193933   17.774997   22.228047 H          1 MOL1         0.3780
@<TRIPOS>BOND
    1     1     2    1
    2     1     3    1
    3     1     4    1
    4     4     5    1
    5     4     6    1
    6     4     7    1
    7     7     8    1
    8     7     9    1
    9     7    10    1
   10    10    11    1
   11    10    12    1
   12    10    13    1
   13    13    14    1
   14    13    15    1
   15    15    16    1
   16    15    17    1
   17    15    18    1
   18    18    19    1
   19    18    20    1
   20     1    21    1
   21    18    21    1
   22    21    22    1
   23    21    23    1
   24    13    24    1
   25    24    25    1
@<TRIPOS>SUBSTRUCTURE
       1 MOL1            1 RESIDUE      1      MOL     
@<SCITEGIC>MOL_PROPERTY
VConf Rank
SciTegic.value.IntegerValue
597

@<SCITEGIC>MOL_PROPERTY
Conf_Id
SciTegic.value.IntegerValue
167

@<SCITEGIC>MOL_PROPERTY
Delta U+W
SciTegic.value.DoubleValue
0.388

@<SCITEGIC>MOL_PROPERTY
U+W
SciTegic.value.DoubleValue
11.301

@<SCITEGIC>MOL_PROPERTY
Grad RMS
SciTegic.value.DoubleValue
0.000000

@<SCITEGIC>MOL_PROPERTY
U
SciTegic.value.DoubleValue
13.202

@<SCITEGIC>MOL_PROPERTY
W
SciTegic.value.DoubleValue
-1.901

@<SCITEGIC>MOL_PROPERTY
W(PB)
SciTegic.value.DoubleValue
-4.065

@<SCITEGIC>MOL_PROPERTY
W(SA)
SciTegic.value.DoubleValue
2.163

@<SCITEGIC>MOL_PROPERTY
Valence
SciTegic.value.DoubleValue
18.957

@<SCITEGIC>MOL_PROPERTY
Coulomb
SciTegic.value.DoubleValue
-8.753

@<SCITEGIC>MOL_PROPERTY
VdW
SciTegic.value.DoubleValue
2.998

@<SCITEGIC>MOL_PROPERTY
VdW6
SciTegic.value.DoubleValue
-12.294

@<SCITEGIC>MOL_PROPERTY
VdW12
SciTegic.value.DoubleValue
15.292

@<SCITEGIC>MOL_PROPERTY
Bond
SciTegic.value.DoubleValue
0.419

@<SCITEGIC>MOL_PROPERTY
Angle
SciTegic.value.DoubleValue
4.543

@<SCITEGIC>MOL_PROPERTY
Pdih
SciTegic.value.DoubleValue
13.996

@<SCITEGIC>MOL_PROPERTY
Idih
SciTegic.value.DoubleValue
0.000

@<SCITEGIC>MOL_PROPERTY
Tether
SciTegic.value.DoubleValue
0.000

@<TRIPOS>MOLECULE
guest-s17_confgen4.mol2 : confsearch ligand conformer 598
          25          25           1
SMALL
USER_CHARGES
 
@<TRIPOS>ATOM
       1    C1      18.928031   17.825691   23.258782 C.3        1 MOL1        -0.1684
       2    H1      17.851307   17.975623   23.101659 H          1 MOL1         0.0833
       3    H2      19.023567   16.837544   23.729269 H          1 MOL1         0.0833
       4    C2      19.439419   18.882110   24.272570 C.3        1 MOL1        -0.1684
       5    H3      18.983352   19.858935   24.076050 H          1 MOL1         0.0833
       6    H4      19.052514   18.594485   25.259793 H          1 MOL1         0.0833
       7    C3      20.980991   19.012715   24.379057 C.3        1 MOL1        -0.1684
       8    H5      21.477554   18.080193   24.081401 H          1 MOL1         0.0833
       9    H6      21.228665   19.142917   25.441418 H          1 MOL1         0.0833
      10    C4      21.586579   20.225555   23.621079 C.3        1 MOL1        -0.1760
      11    H7      21.103069   21.149268   23.964903 H          1 MOL1         0.0833
      12    H8      22.638678   20.311989   23.923410 H          1 MOL1         0.0833
      13    C5      21.545832   20.174615   22.073450 C.3        1 MOL1         0.1219
      14    H9      22.000535   19.234702   21.732916 H          1 MOL1         0.0790
      15    C6      20.123473   20.317740   21.472504 C.3        1 MOL1        -0.1760
      16    H10     19.458654   20.807453   22.191162 H          1 MOL1         0.0833
      17    H11     20.154541   21.006611   20.617849 H          1 MOL1         0.0833
      18    C7      19.488197   18.995216   20.970389 C.3        1 MOL1        -0.1684
      19    H12     19.941730   18.749712   20.000347 H          1 MOL1         0.0833
      20    H13     18.422691   19.166799   20.765921 H          1 MOL1         0.0833
      21    C8      19.640034   17.753400   21.884558 C.3        1 MOL1        -0.1684
      22    H14     20.697880   17.499196   22.016815 H          1 MOL1         0.0833
      23    H15     19.216137   16.896774   21.342964 H          1 MOL1         0.0833
      24    O1      22.342233   21.251406   21.593419 O.3        1 MOL1        -0.5508
      25    H16     22.366350   21.169194   20.617111 H          1 MOL1         0.3780
@<TRIPOS>BOND
    1     1     2    1
    2     1     3    1
    3     1     4    1
    4     4     5    1
    5     4     6    1
    6     4     7    1
    7     7     8    1
    8     7     9    1
    9     7    10    1
   10    10    11    1
   11    10    12    1
   12    10    13    1
   13    13    14    1
   14    13    15    1
   15    15    16    1
   16    15    17    1
   17    15    18    1
   18    18    19    1
   19    18    20    1
   20     1    21    1
   21    18    21    1
   22    21    22    1
   23    21    23    1
   24    13    24    1
   25    24    25    1
@<TRIPOS>SUBSTRUCTURE
       1 MOL1            1 RESIDUE      1      MOL     
@<SCITEGIC>MOL_PROPERTY
VConf Rank
SciTegic.value.IntegerValue
598

@<SCITEGIC>MOL_PROPERTY
Conf_Id
SciTegic.value.IntegerValue
60

@<SCITEGIC>MOL_PROPERTY
Delta U+W
SciTegic.value.DoubleValue
-1.838

@<SCITEGIC>MOL_PROPERTY
U+W
SciTegic.value.DoubleValue
9.075

@<SCITEGIC>MOL_PROPERTY
Grad RMS
SciTegic.value.DoubleValue
0.000000

@<SCITEGIC>MOL_PROPERTY
U
SciTegic.value.DoubleValue
11.150

@<SCITEGIC>MOL_PROPERTY
W
SciTegic.value.DoubleValue
-2.074

@<SCITEGIC>MOL_PROPERTY
W(PB)
SciTegic.value.DoubleValue
-4.196

@<SCITEGIC>MOL_PROPERTY
W(SA)
SciTegic.value.DoubleValue
2.121

@<SCITEGIC>MOL_PROPERTY
Valence
SciTegic.value.DoubleValue
16.582

@<SCITEGIC>MOL_PROPERTY
Coulomb
SciTegic.value.DoubleValue
-8.361

@<SCITEGIC>MOL_PROPERTY
VdW
SciTegic.value.DoubleValue
2.928

@<SCITEGIC>MOL_PROPERTY
VdW6
SciTegic.value.DoubleValue
-12.539

@<SCITEGIC>MOL_PROPERTY
VdW12
SciTegic.value.DoubleValue
15.467

@<SCITEGIC>MOL_PROPERTY
Bond
SciTegic.value.DoubleValue
0.441

@<SCITEGIC>MOL_PROPERTY
Angle
SciTegic.value.DoubleValue
5.093

@<SCITEGIC>MOL_PROPERTY
Pdih
SciTegic.value.DoubleValue
11.049

@<SCITEGIC>MOL_PROPERTY
Idih
SciTegic.value.DoubleValue
0.000

@<SCITEGIC>MOL_PROPERTY
Tether
SciTegic.value.DoubleValue
0.000

@<TRIPOS>MOLECULE
guest-s17_confgen4.mol2 : confsearch ligand conformer 599
          25          25           1
SMALL
USER_CHARGES
 
@<TRIPOS>ATOM
       1    C1      18.901762   17.806850   23.229577 C.3        1 MOL1        -0.1684
       2    H1      17.905401   17.786100   22.767693 H          1 MOL1         0.0833
       3    H2      18.891959   17.013904   23.989880 H          1 MOL1         0.0833
       4    C2      19.093957   19.154133   23.970220 C.3        1 MOL1        -0.1684
       5    H3      18.318463   19.212598   24.746115 H          1 MOL1         0.0833
       6    H4      20.038962   19.151962   24.525295 H          1 MOL1         0.0833
       7    C3      18.973839   20.433124   23.103834 C.3        1 MOL1        -0.1684
       8    H5      19.015932   21.297050   23.781185 H          1 MOL1         0.0833
       9    H6      17.977991   20.465627   22.641470 H          1 MOL1         0.0833
      10    C4      20.046604   20.637894   22.002923 C.3        1 MOL1        -0.1760
      11    H7      19.792215   20.052368   21.113699 H          1 MOL1         0.0833
      12    H8      19.973993   21.682071   21.670712 H          1 MOL1         0.0833
      13    C5      21.502566   20.334996   22.442411 C.3        1 MOL1         0.1219
      14    H9      21.573221   20.360648   23.538086 H          1 MOL1         0.0790
      15    C6      22.048218   18.978407   21.931199 C.3        1 MOL1        -0.1760
      16    H10     21.948228   18.937477   20.838694 H          1 MOL1         0.0833
      17    H11     23.127854   18.957785   22.130557 H          1 MOL1         0.0833
      18    C7      21.433651   17.695380   22.554415 C.3        1 MOL1        -0.1684
      19    H12     21.558147   17.694176   23.644951 H          1 MOL1         0.0833
      20    H13     22.032798   16.846932   22.196556 H          1 MOL1         0.0833
      21    C8      19.958503   17.422857   22.161329 C.3        1 MOL1        -0.1684
      22    H14     19.849112   16.346016   21.972966 H          1 MOL1         0.0833
      23    H15     19.723844   17.892184   21.199315 H          1 MOL1         0.0833
      24    O1      22.346365   21.354496   21.920120 O.3        1 MOL1        -0.5508
      25    H16     22.035129   22.200655   22.304390 H          1 MOL1         0.3780
@<TRIPOS>BOND
    1     1     2    1
    2     1     3    1
    3     1     4    1
    4     4     5    1
    5     4     6    1
    6     4     7    1
    7     7     8    1
    8     7     9    1
    9     7    10    1
   10    10    11    1
   11    10    12    1
   12    10    13    1
   13    13    14    1
   14    13    15    1
   15    15    16    1
   16    15    17    1
   17    15    18    1
   18    18    19    1
   19    18    20    1
   20     1    21    1
   21    18    21    1
   22    21    22    1
   23    21    23    1
   24    13    24    1
   25    24    25    1
@<TRIPOS>SUBSTRUCTURE
       1 MOL1            1 RESIDUE      1      MOL     
@<SCITEGIC>MOL_PROPERTY
VConf Rank
SciTegic.value.IntegerValue
599

@<SCITEGIC>MOL_PROPERTY
Conf_Id
SciTegic.value.IntegerValue
129

@<SCITEGIC>MOL_PROPERTY
Delta U+W
SciTegic.value.DoubleValue
-1.846

@<SCITEGIC>MOL_PROPERTY
U+W
SciTegic.value.DoubleValue
9.067

@<SCITEGIC>MOL_PROPERTY
Grad RMS
SciTegic.value.DoubleValue
0.000000

@<SCITEGIC>MOL_PROPERTY
U
SciTegic.value.DoubleValue
11.150

@<SCITEGIC>MOL_PROPERTY
W
SciTegic.value.DoubleValue
-2.083

@<SCITEGIC>MOL_PROPERTY
W(PB)
SciTegic.value.DoubleValue
-4.217

@<SCITEGIC>MOL_PROPERTY
W(SA)
SciTegic.value.DoubleValue
2.134

@<SCITEGIC>MOL_PROPERTY
Valence
SciTegic.value.DoubleValue
16.583

@<SCITEGIC>MOL_PROPERTY
Coulomb
SciTegic.value.DoubleValue
-8.361

@<SCITEGIC>MOL_PROPERTY
VdW
SciTegic.value.DoubleValue
2.928

@<SCITEGIC>MOL_PROPERTY
VdW6
SciTegic.value.DoubleValue
-12.539

@<SCITEGIC>MOL_PROPERTY
VdW12
SciTegic.value.DoubleValue
15.467

@<SCITEGIC>MOL_PROPERTY
Bond
SciTegic.value.DoubleValue
0.441

@<SCITEGIC>MOL_PROPERTY
Angle
SciTegic.value.DoubleValue
5.093

@<SCITEGIC>MOL_PROPERTY
Pdih
SciTegic.value.DoubleValue
11.049

@<SCITEGIC>MOL_PROPERTY
Idih
SciTegic.value.DoubleValue
0.000

@<SCITEGIC>MOL_PROPERTY
Tether
SciTegic.value.DoubleValue
0.000

@<TRIPOS>MOLECULE
guest-s17_confgen4.mol2 : confsearch ligand conformer 600
          25          25           1
SMALL
USER_CHARGES
 
@<TRIPOS>ATOM
       1    C1      21.566691   19.901623   21.202891 C.3        1 MOL1        -0.1684
       2    H1      21.552066   20.952389   20.883230 H          1 MOL1         0.0833
       3    H2      22.363628   19.424711   20.616063 H          1 MOL1         0.0833
       4    C2      20.230960   19.226553   20.802494 C.3        1 MOL1        -0.1684
       5    H3      20.151482   19.285338   19.708404 H          1 MOL1         0.0833
       6    H4      20.266547   18.152674   21.018632 H          1 MOL1         0.0833
       7    C3      18.944011   19.857242   21.390935 C.3        1 MOL1        -0.1684
       8    H5      18.086243   19.349409   20.928991 H          1 MOL1         0.0833
       9    H6      18.875594   20.906306   21.072691 H          1 MOL1         0.0833
      10    C4      18.765492   19.785052   22.929829 C.3        1 MOL1        -0.1760
      11    H7      19.331121   20.587845   23.413694 H          1 MOL1         0.0833
      12    H8      17.713665   20.021095   23.140918 H          1 MOL1         0.0833
      13    C5      19.120382   18.417214   23.568301 C.3        1 MOL1         0.1219
      14    H9      19.096642   17.632911   22.800073 H          1 MOL1         0.0790
      15    C6      20.492812   18.386827   24.286919 C.3        1 MOL1        -0.1760
      16    H10     20.531547   19.189317   25.035067 H          1 MOL1         0.0833
      17    H11     20.551688   17.447919   24.853681 H          1 MOL1         0.0833
      18    C7      21.756629   18.466360   23.388331 C.3        1 MOL1        -0.1684
      19    H12     21.766493   17.648281   22.656592 H          1 MOL1         0.0833
      20    H13     22.623533   18.280643   24.037140 H          1 MOL1         0.0833
      21    C8      21.977223   19.836628   22.696775 C.3        1 MOL1        -0.1684
      22    H14     23.048275   20.076098   22.747294 H          1 MOL1         0.0833
      23    H15     21.492158   20.637685   23.265826 H          1 MOL1         0.0833
      24    O1      18.128428   18.109630   24.539683 O.3        1 MOL1        -0.5508
      25    H16     18.172058   18.818664   25.213707 H          1 MOL1         0.3780
@<TRIPOS>BOND
    1     1     2    1
    2     1     3    1
    3     1     4    1
    4     4     5    1
    5     4     6    1
    6     4     7    1
    7     7     8    1
    8     7     9    1
    9     7    10    1
   10    10    11    1
   11    10    12    1
   12    10    13    1
   13    13    14    1
   14    13    15    1
   15    15    16    1
   16    15    17    1
   17    15    18    1
   18    18    19    1
   19    18    20    1
   20     1    21    1
   21    18    21    1
   22    21    22    1
   23    21    23    1
   24    13    24    1
   25    24    25    1
@<TRIPOS>SUBSTRUCTURE
       1 MOL1            1 RESIDUE      1      MOL     
@<SCITEGIC>MOL_PROPERTY
VConf Rank
SciTegic.value.IntegerValue
600

@<SCITEGIC>MOL_PROPERTY
Conf_Id
SciTegic.value.IntegerValue
140

@<SCITEGIC>MOL_PROPERTY
Delta U+W
SciTegic.value.DoubleValue
-1.702

@<SCITEGIC>MOL_PROPERTY
U+W
SciTegic.value.DoubleValue
9.211

@<SCITEGIC>MOL_PROPERTY
Grad RMS
SciTegic.value.DoubleValue
0.000000

@<SCITEGIC>MOL_PROPERTY
U
SciTegic.value.DoubleValue
11.181

@<SCITEGIC>MOL_PROPERTY
W
SciTegic.value.DoubleValue
-1.969

@<SCITEGIC>MOL_PROPERTY
W(PB)
SciTegic.value.DoubleValue
-4.093

@<SCITEGIC>MOL_PROPERTY
W(SA)
SciTegic.value.DoubleValue
2.124

@<SCITEGIC>MOL_PROPERTY
Valence
SciTegic.value.DoubleValue
16.954

@<SCITEGIC>MOL_PROPERTY
Coulomb
SciTegic.value.DoubleValue
-8.661

@<SCITEGIC>MOL_PROPERTY
VdW
SciTegic.value.DoubleValue
2.887

@<SCITEGIC>MOL_PROPERTY
VdW6
SciTegic.value.DoubleValue
-12.561

@<SCITEGIC>MOL_PROPERTY
VdW12
SciTegic.value.DoubleValue
15.448

@<SCITEGIC>MOL_PROPERTY
Bond
SciTegic.value.DoubleValue
0.433

@<SCITEGIC>MOL_PROPERTY
Angle
SciTegic.value.DoubleValue
5.120

@<SCITEGIC>MOL_PROPERTY
Pdih
SciTegic.value.DoubleValue
11.401

@<SCITEGIC>MOL_PROPERTY
Idih
SciTegic.value.DoubleValue
0.000

@<SCITEGIC>MOL_PROPERTY
Tether
SciTegic.value.DoubleValue
0.000

@<TRIPOS>MOLECULE
guest-s17_confgen4.mol2 : confsearch ligand conformer 601
          25          25           1
SMALL
USER_CHARGES
 
@<TRIPOS>ATOM
       1    C1      21.001062   19.202011   24.580088 C.3        1 MOL1        -0.1684
       2    H1      21.059349   18.278354   25.171669 H          1 MOL1         0.0833
       3    H2      21.373992   19.998943   25.237920 H          1 MOL1         0.0833
       4    C2      19.512836   19.505560   24.267853 C.3        1 MOL1        -0.1684
       5    H3      18.976586   18.585119   24.010897 H          1 MOL1         0.0833
       6    H4      19.048345   19.839087   25.205968 H          1 MOL1         0.0833
       7    C3      19.267563   20.596985   23.193990 C.3        1 MOL1        -0.1684
       8    H5      20.117675   21.288556   23.132073 H          1 MOL1         0.0833
       9    H6      18.422882   21.211358   23.534613 H          1 MOL1         0.0833
      10    C4      18.895068   20.054251   21.787682 C.3        1 MOL1        -0.1760
      11    H7      18.017011   19.401034   21.874501 H          1 MOL1         0.0833
      12    H8      18.570803   20.910318   21.180856 H          1 MOL1         0.0833
      13    C5      20.010548   19.317763   21.003986 C.3        1 MOL1         0.1219
      14    H9      20.897729   19.962249   20.945495 H          1 MOL1         0.0790
      15    C6      20.403498   17.940273   21.597855 C.3        1 MOL1        -0.1760
      16    H10     19.587444   17.544731   22.211159 H          1 MOL1         0.0833
      17    H11     20.514815   17.212889   20.782296 H          1 MOL1         0.0833
      18    C7      21.730930   17.925659   22.399718 C.3        1 MOL1        -0.1684
      19    H12     22.559340   17.919975   21.678085 H          1 MOL1         0.0833
      20    H13     21.806543   16.976430   22.947208 H          1 MOL1         0.0833
      21    C8      21.973687   19.101940   23.378340 C.3        1 MOL1        -0.1684
      22    H14     22.008032   20.053293   22.835247 H          1 MOL1         0.0833
      23    H15     22.985907   18.981239   23.787786 H          1 MOL1         0.0833
      24    O1      19.530974   19.110840   19.681356 O.3        1 MOL1        -0.5508
      25    H16     18.740122   18.538757   19.760207 H          1 MOL1         0.3780
@<TRIPOS>BOND
    1     1     2    1
    2     1     3    1
    3     1     4    1
    4     4     5    1
    5     4     6    1
    6     4     7    1
    7     7     8    1
    8     7     9    1
    9     7    10    1
   10    10    11    1
   11    10    12    1
   12    10    13    1
   13    13    14    1
   14    13    15    1
   15    15    16    1
   16    15    17    1
   17    15    18    1
   18    18    19    1
   19    18    20    1
   20     1    21    1
   21    18    21    1
   22    21    22    1
   23    21    23    1
   24    13    24    1
   25    24    25    1
@<TRIPOS>SUBSTRUCTURE
       1 MOL1            1 RESIDUE      1      MOL     
@<SCITEGIC>MOL_PROPERTY
VConf Rank
SciTegic.value.IntegerValue
601

@<SCITEGIC>MOL_PROPERTY
Conf_Id
SciTegic.value.IntegerValue
68

@<SCITEGIC>MOL_PROPERTY
Delta U+W
SciTegic.value.DoubleValue
-1.765

@<SCITEGIC>MOL_PROPERTY
U+W
SciTegic.value.DoubleValue
9.148

@<SCITEGIC>MOL_PROPERTY
Grad RMS
SciTegic.value.DoubleValue
0.000000

@<SCITEGIC>MOL_PROPERTY
U
SciTegic.value.DoubleValue
11.181

@<SCITEGIC>MOL_PROPERTY
W
SciTegic.value.DoubleValue
-2.032

@<SCITEGIC>MOL_PROPERTY
W(PB)
SciTegic.value.DoubleValue
-4.147

@<SCITEGIC>MOL_PROPERTY
W(SA)
SciTegic.value.DoubleValue
2.114

@<SCITEGIC>MOL_PROPERTY
Valence
SciTegic.value.DoubleValue
16.955

@<SCITEGIC>MOL_PROPERTY
Coulomb
SciTegic.value.DoubleValue
-8.661

@<SCITEGIC>MOL_PROPERTY
VdW
SciTegic.value.DoubleValue
2.887

@<SCITEGIC>MOL_PROPERTY
VdW6
SciTegic.value.DoubleValue
-12.561

@<SCITEGIC>MOL_PROPERTY
VdW12
SciTegic.value.DoubleValue
15.448

@<SCITEGIC>MOL_PROPERTY
Bond
SciTegic.value.DoubleValue
0.433

@<SCITEGIC>MOL_PROPERTY
Angle
SciTegic.value.DoubleValue
5.121

@<SCITEGIC>MOL_PROPERTY
Pdih
SciTegic.value.DoubleValue
11.402

@<SCITEGIC>MOL_PROPERTY
Idih
SciTegic.value.DoubleValue
0.000

@<SCITEGIC>MOL_PROPERTY
Tether
SciTegic.value.DoubleValue
0.000

@<TRIPOS>MOLECULE
guest-s17_confgen4.mol2 : confsearch ligand conformer 602
          25          25           1
SMALL
USER_CHARGES
 
@<TRIPOS>ATOM
       1    C1      19.434699   20.366968   23.864712 C.3        1 MOL1        -0.1684
       2    H1      18.940910   20.963620   24.643977 H          1 MOL1         0.0833
       3    H2      19.441572   21.021302   22.985683 H          1 MOL1         0.0833
       4    C2      18.567797   19.108300   23.601009 C.3        1 MOL1        -0.1684
       5    H3      18.923093   18.252701   24.189505 H          1 MOL1         0.0833
       6    H4      17.558501   19.317125   23.981447 H          1 MOL1         0.0833
       7    C3      18.416779   18.723308   22.105824 C.3        1 MOL1        -0.1684
       8    H5      18.015155   19.580213   21.547716 H          1 MOL1         0.0833
       9    H6      17.647614   17.941832   22.038640 H          1 MOL1         0.0833
      10    C4      19.689019   18.196209   21.390194 C.3        1 MOL1        -0.1760
      11    H7      20.087973   17.320898   21.916714 H          1 MOL1         0.0833
      12    H8      19.367181   17.820689   20.409369 H          1 MOL1         0.0833
      13    C5      20.793199   19.263235   21.173102 C.3        1 MOL1         0.1219
      14    H9      20.345439   20.261008   21.247285 H          1 MOL1         0.0790
      15    C6      21.988339   19.168788   22.153287 C.3        1 MOL1        -0.1760
      16    H10     22.635652   18.341081   21.834755 H          1 MOL1         0.0833
      17    H11     22.592866   20.079392   22.051158 H          1 MOL1         0.0833
      18    C7      21.659068   18.948002   23.652253 C.3        1 MOL1        -0.1684
      19    H12     22.613725   18.829887   24.182726 H          1 MOL1         0.0833
      20    H13     21.143575   17.991300   23.794718 H          1 MOL1         0.0833
      21    C8      20.879987   20.088853   24.353418 C.3        1 MOL1        -0.1684
      22    H14     21.462284   21.018192   24.291396 H          1 MOL1         0.0833
      23    H15     20.829623   19.841980   25.422771 H          1 MOL1         0.0833
      24    O1      21.308792   19.119822   19.855422 O.3        1 MOL1        -0.5508
      25    H16     21.687756   18.218431   19.802795 H          1 MOL1         0.3780
@<TRIPOS>BOND
    1     1     2    1
    2     1     3    1
    3     1     4    1
    4     4     5    1
    5     4     6    1
    6     4     7    1
    7     7     8    1
    8     7     9    1
    9     7    10    1
   10    10    11    1
   11    10    12    1
   12    10    13    1
   13    13    14    1
   14    13    15    1
   15    15    16    1
   16    15    17    1
   17    15    18    1
   18    18    19    1
   19    18    20    1
   20     1    21    1
   21    18    21    1
   22    21    22    1
   23    21    23    1
   24    13    24    1
   25    24    25    1
@<TRIPOS>SUBSTRUCTURE
       1 MOL1            1 RESIDUE      1      MOL     
@<SCITEGIC>MOL_PROPERTY
VConf Rank
SciTegic.value.IntegerValue
602

@<SCITEGIC>MOL_PROPERTY
Conf_Id
SciTegic.value.IntegerValue
165

@<SCITEGIC>MOL_PROPERTY
Delta U+W
SciTegic.value.DoubleValue
-1.999

@<SCITEGIC>MOL_PROPERTY
U+W
SciTegic.value.DoubleValue
8.915

@<SCITEGIC>MOL_PROPERTY
Grad RMS
SciTegic.value.DoubleValue
0.000000

@<SCITEGIC>MOL_PROPERTY
U
SciTegic.value.DoubleValue
10.935

@<SCITEGIC>MOL_PROPERTY
W
SciTegic.value.DoubleValue
-2.020

@<SCITEGIC>MOL_PROPERTY
W(PB)
SciTegic.value.DoubleValue
-4.135

@<SCITEGIC>MOL_PROPERTY
W(SA)
SciTegic.value.DoubleValue
2.115

@<SCITEGIC>MOL_PROPERTY
Valence
SciTegic.value.DoubleValue
16.757

@<SCITEGIC>MOL_PROPERTY
Coulomb
SciTegic.value.DoubleValue
-8.731

@<SCITEGIC>MOL_PROPERTY
VdW
SciTegic.value.DoubleValue
2.908

@<SCITEGIC>MOL_PROPERTY
VdW6
SciTegic.value.DoubleValue
-12.597

@<SCITEGIC>MOL_PROPERTY
VdW12
SciTegic.value.DoubleValue
15.506

@<SCITEGIC>MOL_PROPERTY
Bond
SciTegic.value.DoubleValue
0.434

@<SCITEGIC>MOL_PROPERTY
Angle
SciTegic.value.DoubleValue
5.069

@<SCITEGIC>MOL_PROPERTY
Pdih
SciTegic.value.DoubleValue
11.254

@<SCITEGIC>MOL_PROPERTY
Idih
SciTegic.value.DoubleValue
0.000

@<SCITEGIC>MOL_PROPERTY
Tether
SciTegic.value.DoubleValue
0.000

@<TRIPOS>MOLECULE
guest-s17_confgen4.mol2 : confsearch ligand conformer 603
          25          25           1
SMALL
USER_CHARGES
 
@<TRIPOS>ATOM
       1    C1      19.974720   20.072571   24.225612 C.3        1 MOL1        -0.1684
       2    H1      19.710329   20.653650   25.119776 H          1 MOL1         0.0833
       3    H2      20.683143   19.320532   24.590818 H          1 MOL1         0.0833
       4    C2      20.668545   21.047979   23.239388 C.3        1 MOL1        -0.1684
       5    H3      20.109781   21.993759   23.256421 H          1 MOL1         0.0833
       6    H4      21.669807   21.289123   23.621348 H          1 MOL1         0.0833
       7    C3      20.777500   20.603048   21.759353 C.3        1 MOL1        -0.1684
       8    H5      21.200953   21.444844   21.194757 H          1 MOL1         0.0833
       9    H6      19.779223   20.457504   21.330922 H          1 MOL1         0.0833
      10    C4      21.671139   19.366365   21.483572 C.3        1 MOL1        -0.1760
      11    H7      21.735585   19.243837   20.393917 H          1 MOL1         0.0833
      12    H8      22.691590   19.583231   21.824697 H          1 MOL1         0.0833
      13    C5      21.219967   18.017584   22.095939 C.3        1 MOL1         0.1219
      14    H9      21.476549   18.000340   23.161644 H          1 MOL1         0.0790
      15    C6      19.708800   17.708924   21.936924 C.3        1 MOL1        -0.1760
      16    H10     19.281742   18.270934   21.097946 H          1 MOL1         0.0833
      17    H11     19.598100   16.652142   21.658555 H          1 MOL1         0.0833
      18    C7      18.867044   17.927733   23.222443 C.3        1 MOL1        -0.1684
      19    H12     19.293392   17.331786   24.041016 H          1 MOL1         0.0833
      20    H13     17.867726   17.508415   23.042695 H          1 MOL1         0.0833
      21    C8      18.685015   19.394371   23.694364 C.3        1 MOL1        -0.1684
      22    H14     17.957639   19.377924   24.517567 H          1 MOL1         0.0833
      23    H15     18.214035   20.000155   22.909627 H          1 MOL1         0.0833
      24    O1      21.961743   16.987945   21.451636 O.3        1 MOL1        -0.5508
      25    H16     22.909470   17.183895   21.606086 H          1 MOL1         0.3780
@<TRIPOS>BOND
    1     1     2    1
    2     1     3    1
    3     1     4    1
    4     4     5    1
    5     4     6    1
    6     4     7    1
    7     7     8    1
    8     7     9    1
    9     7    10    1
   10    10    11    1
   11    10    12    1
   12    10    13    1
   13    13    14    1
   14    13    15    1
   15    15    16    1
   16    15    17    1
   17    15    18    1
   18    18    19    1
   19    18    20    1
   20     1    21    1
   21    18    21    1
   22    21    22    1
   23    21    23    1
   24    13    24    1
   25    24    25    1
@<TRIPOS>SUBSTRUCTURE
       1 MOL1            1 RESIDUE      1      MOL     
@<SCITEGIC>MOL_PROPERTY
VConf Rank
SciTegic.value.IntegerValue
603

@<SCITEGIC>MOL_PROPERTY
Conf_Id
SciTegic.value.IntegerValue
133

@<SCITEGIC>MOL_PROPERTY
Delta U+W
SciTegic.value.DoubleValue
-2.139

@<SCITEGIC>MOL_PROPERTY
U+W
SciTegic.value.DoubleValue
8.774

@<SCITEGIC>MOL_PROPERTY
Grad RMS
SciTegic.value.DoubleValue
0.000000

@<SCITEGIC>MOL_PROPERTY
U
SciTegic.value.DoubleValue
10.905

@<SCITEGIC>MOL_PROPERTY
W
SciTegic.value.DoubleValue
-2.131

@<SCITEGIC>MOL_PROPERTY
W(PB)
SciTegic.value.DoubleValue
-4.281

@<SCITEGIC>MOL_PROPERTY
W(SA)
SciTegic.value.DoubleValue
2.150

@<SCITEGIC>MOL_PROPERTY
Valence
SciTegic.value.DoubleValue
16.378

@<SCITEGIC>MOL_PROPERTY
Coulomb
SciTegic.value.DoubleValue
-8.448

@<SCITEGIC>MOL_PROPERTY
VdW
SciTegic.value.DoubleValue
2.976

@<SCITEGIC>MOL_PROPERTY
VdW6
SciTegic.value.DoubleValue
-12.570

@<SCITEGIC>MOL_PROPERTY
VdW12
SciTegic.value.DoubleValue
15.545

@<SCITEGIC>MOL_PROPERTY
Bond
SciTegic.value.DoubleValue
0.439

@<SCITEGIC>MOL_PROPERTY
Angle
SciTegic.value.DoubleValue
5.049

@<SCITEGIC>MOL_PROPERTY
Pdih
SciTegic.value.DoubleValue
10.889

@<SCITEGIC>MOL_PROPERTY
Idih
SciTegic.value.DoubleValue
0.000

@<SCITEGIC>MOL_PROPERTY
Tether
SciTegic.value.DoubleValue
0.000

@<TRIPOS>MOLECULE
guest-s17_confgen4.mol2 : confsearch ligand conformer 604
          25          25           1
SMALL
USER_CHARGES
 
@<TRIPOS>ATOM
       1    C1      21.752972   18.840747   21.626335 C.3        1 MOL1        -0.1684
       2    H1      22.573997   18.559949   20.952424 H          1 MOL1         0.0833
       3    H2      22.253819   19.291424   22.490538 H          1 MOL1         0.0833
       4    C2      21.007950   17.545502   22.042033 C.3        1 MOL1        -0.1684
       5    H3      20.140343   17.363249   21.394999 H          1 MOL1         0.0833
       6    H4      21.685399   16.700859   21.855889 H          1 MOL1         0.0833
       7    C3      20.602369   17.478655   23.537997 C.3        1 MOL1        -0.1684
       8    H5      21.494966   17.614361   24.163970 H          1 MOL1         0.0833
       9    H6      20.251249   16.458216   23.743409 H          1 MOL1         0.0833
      10    C4      19.495231   18.461434   24.004238 C.3        1 MOL1        -0.1760
      11    H7      18.583023   18.321094   23.412376 H          1 MOL1         0.0833
      12    H8      19.219683   18.170436   25.026942 H          1 MOL1         0.0833
      13    C5      19.920899   19.952346   24.017344 C.3        1 MOL1         0.1219
      14    H9      21.015623   20.009860   24.028590 H          1 MOL1         0.0790
      15    C6      19.377471   20.789112   22.833175 C.3        1 MOL1        -0.1760
      16    H10     18.319944   21.012987   23.028195 H          1 MOL1         0.0833
      17    H11     19.894521   21.757212   22.820577 H          1 MOL1         0.0833
      18    C7      19.464892   20.156277   21.420411 C.3        1 MOL1        -0.1684
      19    H12     18.972201   20.846337   20.722004 H          1 MOL1         0.0833
      20    H13     18.864772   19.240355   21.373136 H          1 MOL1         0.0833
      21    C8      20.892593   19.893017   20.879386 C.3        1 MOL1        -0.1684
      22    H14     21.445937   20.840943   20.836776 H          1 MOL1         0.0833
      23    H15     20.791493   19.562413   19.836560 H          1 MOL1         0.0833
      24    O1      19.440089   20.549061   25.216621 O.3        1 MOL1        -0.5508
      25    H16     19.760933   21.475068   25.219482 H          1 MOL1         0.3780
@<TRIPOS>BOND
    1     1     2    1
    2     1     3    1
    3     1     4    1
    4     4     5    1
    5     4     6    1
    6     4     7    1
    7     7     8    1
    8     7     9    1
    9     7    10    1
   10    10    11    1
   11    10    12    1
   12    10    13    1
   13    13    14    1
   14    13    15    1
   15    15    16    1
   16    15    17    1
   17    15    18    1
   18    18    19    1
   19    18    20    1
   20     1    21    1
   21    18    21    1
   22    21    22    1
   23    21    23    1
   24    13    24    1
   25    24    25    1
@<TRIPOS>SUBSTRUCTURE
       1 MOL1            1 RESIDUE      1      MOL     
@<SCITEGIC>MOL_PROPERTY
VConf Rank
SciTegic.value.IntegerValue
604

@<SCITEGIC>MOL_PROPERTY
Conf_Id
SciTegic.value.IntegerValue
95

@<SCITEGIC>MOL_PROPERTY
Delta U+W
SciTegic.value.DoubleValue
-2.190

@<SCITEGIC>MOL_PROPERTY
U+W
SciTegic.value.DoubleValue
8.723

@<SCITEGIC>MOL_PROPERTY
Grad RMS
SciTegic.value.DoubleValue
0.000000

@<SCITEGIC>MOL_PROPERTY
U
SciTegic.value.DoubleValue
10.905

@<SCITEGIC>MOL_PROPERTY
W
SciTegic.value.DoubleValue
-2.182

@<SCITEGIC>MOL_PROPERTY
W(PB)
SciTegic.value.DoubleValue
-4.296

@<SCITEGIC>MOL_PROPERTY
W(SA)
SciTegic.value.DoubleValue
2.114

@<SCITEGIC>MOL_PROPERTY
Valence
SciTegic.value.DoubleValue
16.377

@<SCITEGIC>MOL_PROPERTY
Coulomb
SciTegic.value.DoubleValue
-8.448

@<SCITEGIC>MOL_PROPERTY
VdW
SciTegic.value.DoubleValue
2.976

@<SCITEGIC>MOL_PROPERTY
VdW6
SciTegic.value.DoubleValue
-12.570

@<SCITEGIC>MOL_PROPERTY
VdW12
SciTegic.value.DoubleValue
15.546

@<SCITEGIC>MOL_PROPERTY
Bond
SciTegic.value.DoubleValue
0.439

@<SCITEGIC>MOL_PROPERTY
Angle
SciTegic.value.DoubleValue
5.049

@<SCITEGIC>MOL_PROPERTY
Pdih
SciTegic.value.DoubleValue
10.889

@<SCITEGIC>MOL_PROPERTY
Idih
SciTegic.value.DoubleValue
0.000

@<SCITEGIC>MOL_PROPERTY
Tether
SciTegic.value.DoubleValue
0.000

@<TRIPOS>MOLECULE
guest-s17_confgen4.mol2 : confsearch ligand conformer 605
          25          25           1
SMALL
USER_CHARGES
 
@<TRIPOS>ATOM
       1    C1      21.140783   17.570578   22.878102 C.3        1 MOL1        -0.1684
       2    H1      21.564872   16.579482   23.089713 H          1 MOL1         0.0833
       3    H2      21.975159   18.111234   22.420126 H          1 MOL1         0.0833
       4    C2      20.752559   18.201430   24.247601 C.3        1 MOL1        -0.1684
       5    H3      20.406871   17.386116   24.897759 H          1 MOL1         0.0833
       6    H4      21.658540   18.594082   24.728740 H          1 MOL1         0.0833
       7    C3      19.648997   19.291520   24.266269 C.3        1 MOL1        -0.1684
       8    H5      19.431172   19.526066   25.317154 H          1 MOL1         0.0833
       9    H6      18.710926   18.862475   23.900248 H          1 MOL1         0.0833
      10    C4      19.959455   20.639478   23.549927 C.3        1 MOL1        -0.1760
      11    H7      19.012686   21.147065   23.323309 H          1 MOL1         0.0833
      12    H8      20.472515   21.279929   24.279210 H          1 MOL1         0.0833
      13    C5      20.834991   20.606398   22.271633 C.3        1 MOL1         0.1219
      14    H9      21.791375   20.138789   22.527539 H          1 MOL1         0.0790
      15    C6      20.230800   19.904534   21.021460 C.3        1 MOL1        -0.1760
      16    H10     19.621294   20.641716   20.481664 H          1 MOL1         0.0833
      17    H11     21.052066   19.645961   20.341056 H          1 MOL1         0.0833
      18    C7      19.338863   18.651422   21.234006 C.3        1 MOL1        -0.1684
      19    H12     18.924932   18.369273   20.256373 H          1 MOL1         0.0833
      20    H13     18.454412   18.931440   21.814875 H          1 MOL1         0.0833
      21    C8      20.013105   17.380849   21.829444 C.3        1 MOL1        -0.1684
      22    H14     20.446014   16.815850   20.992643 H          1 MOL1         0.0833
      23    H15     19.234779   16.729799   22.249903 H          1 MOL1         0.0833
      24    O1      21.108186   21.954800   21.908603 O.3        1 MOL1        -0.5508
      25    H16     21.547733   22.371661   22.678722 H          1 MOL1         0.3780
@<TRIPOS>BOND
    1     1     2    1
    2     1     3    1
    3     1     4    1
    4     4     5    1
    5     4     6    1
    6     4     7    1
    7     7     8    1
    8     7     9    1
    9     7    10    1
   10    10    11    1
   11    10    12    1
   12    10    13    1
   13    13    14    1
   14    13    15    1
   15    15    16    1
   16    15    17    1
   17    15    18    1
   18    18    19    1
   19    18    20    1
   20     1    21    1
   21    18    21    1
   22    21    22    1
   23    21    23    1
   24    13    24    1
   25    24    25    1
@<TRIPOS>SUBSTRUCTURE
       1 MOL1            1 RESIDUE      1      MOL     
@<SCITEGIC>MOL_PROPERTY
VConf Rank
SciTegic.value.IntegerValue
605

@<SCITEGIC>MOL_PROPERTY
Conf_Id
SciTegic.value.IntegerValue
161

@<SCITEGIC>MOL_PROPERTY
Delta U+W
SciTegic.value.DoubleValue
2.120

@<SCITEGIC>MOL_PROPERTY
U+W
SciTegic.value.DoubleValue
13.033

@<SCITEGIC>MOL_PROPERTY
Grad RMS
SciTegic.value.DoubleValue
0.000000

@<SCITEGIC>MOL_PROPERTY
U
SciTegic.value.DoubleValue
15.076

@<SCITEGIC>MOL_PROPERTY
W
SciTegic.value.DoubleValue
-2.043

@<SCITEGIC>MOL_PROPERTY
W(PB)
SciTegic.value.DoubleValue
-4.186

@<SCITEGIC>MOL_PROPERTY
W(SA)
SciTegic.value.DoubleValue
2.143

@<SCITEGIC>MOL_PROPERTY
Valence
SciTegic.value.DoubleValue
18.884

@<SCITEGIC>MOL_PROPERTY
Coulomb
SciTegic.value.DoubleValue
-8.074

@<SCITEGIC>MOL_PROPERTY
VdW
SciTegic.value.DoubleValue
4.266

@<SCITEGIC>MOL_PROPERTY
VdW6
SciTegic.value.DoubleValue
-13.486

@<SCITEGIC>MOL_PROPERTY
VdW12
SciTegic.value.DoubleValue
17.752

@<SCITEGIC>MOL_PROPERTY
Bond
SciTegic.value.DoubleValue
0.713

@<SCITEGIC>MOL_PROPERTY
Angle
SciTegic.value.DoubleValue
8.955

@<SCITEGIC>MOL_PROPERTY
Pdih
SciTegic.value.DoubleValue
9.215

@<SCITEGIC>MOL_PROPERTY
Idih
SciTegic.value.DoubleValue
0.000

@<SCITEGIC>MOL_PROPERTY
Tether
SciTegic.value.DoubleValue
0.000

@<TRIPOS>MOLECULE
guest-s17_confgen4.mol2 : confsearch ligand conformer 606
          25          25           1
SMALL
USER_CHARGES
 
@<TRIPOS>ATOM
       1    C1      21.705744   19.035152   21.238844 C.3        1 MOL1        -0.1684
       2    H1      22.268061   18.897630   20.305102 H          1 MOL1         0.0833
       3    H2      22.466085   19.007193   22.029625 H          1 MOL1         0.0833
       4    C2      20.736790   17.836607   21.394716 C.3        1 MOL1        -0.1684
       5    H3      19.791823   18.027618   20.868656 H          1 MOL1         0.0833
       6    H4      21.194594   16.986961   20.869655 H          1 MOL1         0.0833
       7    C3      20.483025   17.377191   22.857546 C.3        1 MOL1        -0.1684
       8    H5      21.396972   17.454943   23.461651 H          1 MOL1         0.0833
       9    H6      20.252346   16.303708   22.817275 H          1 MOL1         0.0833
      10    C4      19.290702   18.065696   23.570849 C.3        1 MOL1        -0.1760
      11    H7      18.495424   18.277743   22.845910 H          1 MOL1         0.0833
      12    H8      18.852665   17.337573   24.266258 H          1 MOL1         0.0833
      13    C5      19.628095   19.325624   24.407853 C.3        1 MOL1         0.1219
      14    H9      20.192280   19.000971   25.293894 H          1 MOL1         0.0790
      15    C6      20.463959   20.417788   23.701175 C.3        1 MOL1        -0.1760
      16    H10     20.429823   21.328044   24.314652 H          1 MOL1         0.0833
      17    H11     21.518376   20.121382   23.711638 H          1 MOL1         0.0833
      18    C7      20.000616   20.766736   22.261460 C.3        1 MOL1        -0.1684
      19    H12     19.780729   21.841875   22.211913 H          1 MOL1         0.0833
      20    H13     19.052253   20.273939   22.018854 H          1 MOL1         0.0833
      21    C8      21.043251   20.436423   21.166706 C.3        1 MOL1        -0.1684
      22    H14     21.839229   21.192897   21.197924 H          1 MOL1         0.0833
      23    H15     20.560762   20.550946   20.186466 H          1 MOL1         0.0833
      24    O1      18.404875   19.909723   24.833207 O.3        1 MOL1        -0.5508
      25    H16     18.004466   20.305692   24.032776 H          1 MOL1         0.3780
@<TRIPOS>BOND
    1     1     2    1
    2     1     3    1
    3     1     4    1
    4     4     5    1
    5     4     6    1
    6     4     7    1
    7     7     8    1
    8     7     9    1
    9     7    10    1
   10    10    11    1
   11    10    12    1
   12    10    13    1
   13    13    14    1
   14    13    15    1
   15    15    16    1
   16    15    17    1
   17    15    18    1
   18    18    19    1
   19    18    20    1
   20     1    21    1
   21    18    21    1
   22    21    22    1
   23    21    23    1
   24    13    24    1
   25    24    25    1
@<TRIPOS>SUBSTRUCTURE
       1 MOL1            1 RESIDUE      1      MOL     
@<SCITEGIC>MOL_PROPERTY
VConf Rank
SciTegic.value.IntegerValue
606

@<SCITEGIC>MOL_PROPERTY
Conf_Id
SciTegic.value.IntegerValue
164

@<SCITEGIC>MOL_PROPERTY
Delta U+W
SciTegic.value.DoubleValue
0.008

@<SCITEGIC>MOL_PROPERTY
U+W
SciTegic.value.DoubleValue
10.922

@<SCITEGIC>MOL_PROPERTY
Grad RMS
SciTegic.value.DoubleValue
0.000000

@<SCITEGIC>MOL_PROPERTY
U
SciTegic.value.DoubleValue
12.433

@<SCITEGIC>MOL_PROPERTY
W
SciTegic.value.DoubleValue
-1.511

@<SCITEGIC>MOL_PROPERTY
W(PB)
SciTegic.value.DoubleValue
-3.669

@<SCITEGIC>MOL_PROPERTY
W(SA)
SciTegic.value.DoubleValue
2.157

@<SCITEGIC>MOL_PROPERTY
Valence
SciTegic.value.DoubleValue
19.007

@<SCITEGIC>MOL_PROPERTY
Coulomb
SciTegic.value.DoubleValue
-9.373

@<SCITEGIC>MOL_PROPERTY
VdW
SciTegic.value.DoubleValue
2.799

@<SCITEGIC>MOL_PROPERTY
VdW6
SciTegic.value.DoubleValue
-12.597

@<SCITEGIC>MOL_PROPERTY
VdW12
SciTegic.value.DoubleValue
15.396

@<SCITEGIC>MOL_PROPERTY
Bond
SciTegic.value.DoubleValue
0.425

@<SCITEGIC>MOL_PROPERTY
Angle
SciTegic.value.DoubleValue
4.784

@<SCITEGIC>MOL_PROPERTY
Pdih
SciTegic.value.DoubleValue
13.799

@<SCITEGIC>MOL_PROPERTY
Idih
SciTegic.value.DoubleValue
0.000

@<SCITEGIC>MOL_PROPERTY
Tether
SciTegic.value.DoubleValue
0.000

@<TRIPOS>MOLECULE
guest-s17_confgen4.mol2 : confsearch ligand conformer 607
          25          25           1
SMALL
USER_CHARGES
 
@<TRIPOS>ATOM
       1    C1      20.378750   19.186938   24.454203 C.3        1 MOL1        -0.1684
       2    H1      21.413145   19.352384   24.132371 H          1 MOL1         0.0833
       3    H2      20.429563   19.173691   25.551434 H          1 MOL1         0.0833
       4    C2      19.888118   17.789609   23.999812 C.3        1 MOL1        -0.1684
       5    H3      20.550825   17.043174   24.458676 H          1 MOL1         0.0833
       6    H4      18.891444   17.600352   24.420919 H          1 MOL1         0.0833
       7    C3      19.850079   17.515335   22.474660 C.3        1 MOL1        -0.1684
       8    H5      18.926144   17.908664   22.035684 H          1 MOL1         0.0833
       9    H6      19.775075   16.427192   22.343040 H          1 MOL1         0.0833
      10    C4      21.086085   18.015488   21.680360 C.3        1 MOL1        -0.1760
      11    H7      21.965303   18.094503   22.331138 H          1 MOL1         0.0833
      12    H8      21.337686   17.238901   20.945617 H          1 MOL1         0.0833
      13    C5      20.865364   19.330290   20.891023 C.3        1 MOL1         0.1219
      14    H9      19.974111   19.205187   20.259663 H          1 MOL1         0.0790
      15    C6      20.685063   20.620046   21.730367 C.3        1 MOL1        -0.1760
      16    H10     21.551097   20.784733   22.382779 H          1 MOL1         0.0833
      17    H11     20.687242   21.463322   21.026719 H          1 MOL1         0.0833
      18    C7      19.360479   20.695236   22.535728 C.3        1 MOL1        -0.1684
      19    H12     18.595044   20.059060   22.076975 H          1 MOL1         0.0833
      20    H13     18.961002   21.714607   22.444598 H          1 MOL1         0.0833
      21    C8      19.488039   20.388079   24.049713 C.3        1 MOL1        -0.1684
      22    H14     18.483033   20.252951   24.471862 H          1 MOL1         0.0833
      23    H15     19.898269   21.281478   24.540072 H          1 MOL1         0.0833
      24    O1      21.992258   19.520007   20.046442 O.3        1 MOL1        -0.5508
      25    H16     22.765424   19.627580   20.637567 H          1 MOL1         0.3780
@<TRIPOS>BOND
    1     1     2    1
    2     1     3    1
    3     1     4    1
    4     4     5    1
    5     4     6    1
    6     4     7    1
    7     7     8    1
    8     7     9    1
    9     7    10    1
   10    10    11    1
   11    10    12    1
   12    10    13    1
   13    13    14    1
   14    13    15    1
   15    15    16    1
   16    15    17    1
   17    15    18    1
   18    18    19    1
   19    18    20    1
   20     1    21    1
   21    18    21    1
   22    21    22    1
   23    21    23    1
   24    13    24    1
   25    24    25    1
@<TRIPOS>SUBSTRUCTURE
       1 MOL1            1 RESIDUE      1      MOL     
@<SCITEGIC>MOL_PROPERTY
VConf Rank
SciTegic.value.IntegerValue
607

@<SCITEGIC>MOL_PROPERTY
Conf_Id
SciTegic.value.IntegerValue
15

@<SCITEGIC>MOL_PROPERTY
Delta U+W
SciTegic.value.DoubleValue
-1.271

@<SCITEGIC>MOL_PROPERTY
U+W
SciTegic.value.DoubleValue
9.643

@<SCITEGIC>MOL_PROPERTY
Grad RMS
SciTegic.value.DoubleValue
0.000000

@<SCITEGIC>MOL_PROPERTY
U
SciTegic.value.DoubleValue
11.413

@<SCITEGIC>MOL_PROPERTY
W
SciTegic.value.DoubleValue
-1.770

@<SCITEGIC>MOL_PROPERTY
W(PB)
SciTegic.value.DoubleValue
-3.908

@<SCITEGIC>MOL_PROPERTY
W(SA)
SciTegic.value.DoubleValue
2.138

@<SCITEGIC>MOL_PROPERTY
Valence
SciTegic.value.DoubleValue
17.496

@<SCITEGIC>MOL_PROPERTY
Coulomb
SciTegic.value.DoubleValue
-8.736

@<SCITEGIC>MOL_PROPERTY
VdW
SciTegic.value.DoubleValue
2.653

@<SCITEGIC>MOL_PROPERTY
VdW6
SciTegic.value.DoubleValue
-12.485

@<SCITEGIC>MOL_PROPERTY
VdW12
SciTegic.value.DoubleValue
15.138

@<SCITEGIC>MOL_PROPERTY
Bond
SciTegic.value.DoubleValue
0.414

@<SCITEGIC>MOL_PROPERTY
Angle
SciTegic.value.DoubleValue
5.295

@<SCITEGIC>MOL_PROPERTY
Pdih
SciTegic.value.DoubleValue
11.787

@<SCITEGIC>MOL_PROPERTY
Idih
SciTegic.value.DoubleValue
0.000

@<SCITEGIC>MOL_PROPERTY
Tether
SciTegic.value.DoubleValue
0.000

@<TRIPOS>MOLECULE
guest-s17_confgen4.mol2 : confsearch ligand conformer 608
          25          25           1
SMALL
USER_CHARGES
 
@<TRIPOS>ATOM
       1    C1      19.630752   19.519221   24.400992 C.3        1 MOL1        -0.1684
       2    H1      19.106526   19.824872   25.316823 H          1 MOL1         0.0833
       3    H2      20.619352   19.187054   24.742312 H          1 MOL1         0.0833
       4    C2      18.833572   18.333203   23.797094 C.3        1 MOL1        -0.1684
       5    H3      18.918412   17.480392   24.484363 H          1 MOL1         0.0833
       6    H4      17.766978   18.595408   23.777122 H          1 MOL1         0.0833
       7    C3      19.245929   17.869954   22.379104 C.3        1 MOL1        -0.1684
       8    H5      18.826231   18.554755   21.633000 H          1 MOL1         0.0833
       9    H6      18.758466   16.905764   22.180349 H          1 MOL1         0.0833
      10    C4      20.775864   17.703965   22.186227 C.3        1 MOL1        -0.1760
      11    H7      21.302413   17.791189   23.143060 H          1 MOL1         0.0833
      12    H8      20.973643   16.678488   21.847883 H          1 MOL1         0.0833
      13    C5      21.399260   18.665407   21.148309 C.3        1 MOL1         0.1219
      14    H9      21.102874   18.313798   20.149632 H          1 MOL1         0.0790
      15    C6      20.985234   20.156400   21.248304 C.3        1 MOL1        -0.1760
      16    H10     21.636802   20.716490   20.564132 H          1 MOL1         0.0833
      17    H11     19.977060   20.294001   20.839448 H          1 MOL1         0.0833
      18    C7      21.077535   20.819610   22.648545 C.3        1 MOL1        -0.1684
      19    H12     21.302769   21.881867   22.481146 H          1 MOL1         0.0833
      20    H13     21.931944   20.429798   23.216738 H          1 MOL1         0.0833
      21    C8      19.775245   20.766322   23.494110 C.3        1 MOL1        -0.1684
      22    H14     18.885858   20.895202   22.862789 H          1 MOL1         0.0833
      23    H15     19.790291   21.642413   24.156992 H          1 MOL1         0.0833
      24    O1      22.813140   18.582067   21.259693 O.3        1 MOL1        -0.5508
      25    H16     23.038490   18.990906   22.119468 H          1 MOL1         0.3780
@<TRIPOS>BOND
    1     1     2    1
    2     1     3    1
    3     1     4    1
    4     4     5    1
    5     4     6    1
    6     4     7    1
    7     7     8    1
    8     7     9    1
    9     7    10    1
   10    10    11    1
   11    10    12    1
   12    10    13    1
   13    13    14    1
   14    13    15    1
   15    15    16    1
   16    15    17    1
   17    15    18    1
   18    18    19    1
   19    18    20    1
   20     1    21    1
   21    18    21    1
   22    21    22    1
   23    21    23    1
   24    13    24    1
   25    24    25    1
@<TRIPOS>SUBSTRUCTURE
       1 MOL1            1 RESIDUE      1      MOL     
@<SCITEGIC>MOL_PROPERTY
VConf Rank
SciTegic.value.IntegerValue
608

@<SCITEGIC>MOL_PROPERTY
Conf_Id
SciTegic.value.IntegerValue
115

@<SCITEGIC>MOL_PROPERTY
Delta U+W
SciTegic.value.DoubleValue
0.038

@<SCITEGIC>MOL_PROPERTY
U+W
SciTegic.value.DoubleValue
10.952

@<SCITEGIC>MOL_PROPERTY
Grad RMS
SciTegic.value.DoubleValue
0.000000

@<SCITEGIC>MOL_PROPERTY
U
SciTegic.value.DoubleValue
12.526

@<SCITEGIC>MOL_PROPERTY
W
SciTegic.value.DoubleValue
-1.575

@<SCITEGIC>MOL_PROPERTY
W(PB)
SciTegic.value.DoubleValue
-3.698

@<SCITEGIC>MOL_PROPERTY
W(SA)
SciTegic.value.DoubleValue
2.123

@<SCITEGIC>MOL_PROPERTY
Valence
SciTegic.value.DoubleValue
19.016

@<SCITEGIC>MOL_PROPERTY
Coulomb
SciTegic.value.DoubleValue
-9.226

@<SCITEGIC>MOL_PROPERTY
VdW
SciTegic.value.DoubleValue
2.737

@<SCITEGIC>MOL_PROPERTY
VdW6
SciTegic.value.DoubleValue
-12.612

@<SCITEGIC>MOL_PROPERTY
VdW12
SciTegic.value.DoubleValue
15.349

@<SCITEGIC>MOL_PROPERTY
Bond
SciTegic.value.DoubleValue
0.421

@<SCITEGIC>MOL_PROPERTY
Angle
SciTegic.value.DoubleValue
4.883

@<SCITEGIC>MOL_PROPERTY
Pdih
SciTegic.value.DoubleValue
13.711

@<SCITEGIC>MOL_PROPERTY
Idih
SciTegic.value.DoubleValue
0.000

@<SCITEGIC>MOL_PROPERTY
Tether
SciTegic.value.DoubleValue
0.000

@<TRIPOS>MOLECULE
guest-s17_confgen4.mol2 : confsearch ligand conformer 609
          25          25           1
SMALL
USER_CHARGES
 
@<TRIPOS>ATOM
       1    C1      20.551193   17.288385   21.836789 C.3        1 MOL1        -0.1684
       2    H1      21.065296   16.325809   21.709776 H          1 MOL1         0.0833
       3    H2      19.555227   17.150468   21.394628 H          1 MOL1         0.0833
       4    C2      21.346585   18.344675   21.034829 C.3        1 MOL1        -0.1684
       5    H3      22.381480   18.394540   21.399658 H          1 MOL1         0.0833
       6    H4      21.416117   17.986322   19.998611 H          1 MOL1         0.0833
       7    C3      20.720830   19.758405   21.008503 C.3        1 MOL1        -0.1684
       8    H5      19.632975   19.691451   20.874097 H          1 MOL1         0.0833
       9    H6      21.094764   20.266547   20.108987 H          1 MOL1         0.0833
      10    C4      21.088691   20.642782   22.230180 C.3        1 MOL1        -0.1760
      11    H7      21.921540   20.210676   22.798912 H          1 MOL1         0.0833
      12    H8      21.465383   21.598358   21.840902 H          1 MOL1         0.0833
      13    C5      19.905933   20.949347   23.176254 C.3        1 MOL1         0.1219
      14    H9      18.991817   21.066221   22.576753 H          1 MOL1         0.0790
      15    C6      19.658778   19.882104   24.265447 C.3        1 MOL1        -0.1760
      16    H10     20.541390   19.796429   24.912938 H          1 MOL1         0.0833
      17    H11     18.849598   20.248779   24.910575 H          1 MOL1         0.0833
      18    C7      19.243012   18.484937   23.744168 C.3        1 MOL1        -0.1684
      19    H12     18.523476   18.582417   22.920277 H          1 MOL1         0.0833
      20    H13     18.692555   17.984920   24.553000 H          1 MOL1         0.0833
      21    C8      20.429413   17.565145   23.353730 C.3        1 MOL1        -0.1684
      22    H14     20.271925   16.597741   23.850248 H          1 MOL1         0.0833
      23    H15     21.380172   17.943958   23.751706 H          1 MOL1         0.0833
      24    O1      20.178337   22.179212   23.837221 O.3        1 MOL1        -0.5508
      25    H16     19.395354   22.383132   24.390111 H          1 MOL1         0.3780
@<TRIPOS>BOND
    1     1     2    1
    2     1     3    1
    3     1     4    1
    4     4     5    1
    5     4     6    1
    6     4     7    1
    7     7     8    1
    8     7     9    1
    9     7    10    1
   10    10    11    1
   11    10    12    1
   12    10    13    1
   13    13    14    1
   14    13    15    1
   15    15    16    1
   16    15    17    1
   17    15    18    1
   18    18    19    1
   19    18    20    1
   20     1    21    1
   21    18    21    1
   22    21    22    1
   23    21    23    1
   24    13    24    1
   25    24    25    1
@<TRIPOS>SUBSTRUCTURE
       1 MOL1            1 RESIDUE      1      MOL     
@<SCITEGIC>MOL_PROPERTY
VConf Rank
SciTegic.value.IntegerValue
609

@<SCITEGIC>MOL_PROPERTY
Conf_Id
SciTegic.value.IntegerValue
30

@<SCITEGIC>MOL_PROPERTY
Delta U+W
SciTegic.value.DoubleValue
0.000

@<SCITEGIC>MOL_PROPERTY
U+W
SciTegic.value.DoubleValue
10.913

@<SCITEGIC>MOL_PROPERTY
Grad RMS
SciTegic.value.DoubleValue
0.000000

@<SCITEGIC>MOL_PROPERTY
U
SciTegic.value.DoubleValue
13.140

@<SCITEGIC>MOL_PROPERTY
W
SciTegic.value.DoubleValue
-2.227

@<SCITEGIC>MOL_PROPERTY
W(PB)
SciTegic.value.DoubleValue
-4.367

@<SCITEGIC>MOL_PROPERTY
W(SA)
SciTegic.value.DoubleValue
2.140

@<SCITEGIC>MOL_PROPERTY
Valence
SciTegic.value.DoubleValue
19.155

@<SCITEGIC>MOL_PROPERTY
Coulomb
SciTegic.value.DoubleValue
-8.157

@<SCITEGIC>MOL_PROPERTY
VdW
SciTegic.value.DoubleValue
2.142

@<SCITEGIC>MOL_PROPERTY
VdW6
SciTegic.value.DoubleValue
-11.576

@<SCITEGIC>MOL_PROPERTY
VdW12
SciTegic.value.DoubleValue
13.718

@<SCITEGIC>MOL_PROPERTY
Bond
SciTegic.value.DoubleValue
0.294

@<SCITEGIC>MOL_PROPERTY
Angle
SciTegic.value.DoubleValue
3.547

@<SCITEGIC>MOL_PROPERTY
Pdih
SciTegic.value.DoubleValue
15.314

@<SCITEGIC>MOL_PROPERTY
Idih
SciTegic.value.DoubleValue
0.000

@<SCITEGIC>MOL_PROPERTY
Tether
SciTegic.value.DoubleValue
0.000

@<TRIPOS>MOLECULE
guest-s17_confgen4.mol2 : confsearch ligand conformer 610
          25          25           1
SMALL
USER_CHARGES
 
@<TRIPOS>ATOM
       1    C1      18.439127   18.553797   21.853309 C.3        1 MOL1        -0.1684
       2    H1      18.087473   17.568855   21.517030 H          1 MOL1         0.0833
       3    H2      17.616441   19.250514   21.642250 H          1 MOL1         0.0833
       4    C2      19.655489   18.963140   20.986715 C.3        1 MOL1        -0.1684
       5    H3      19.421130   18.724134   19.940377 H          1 MOL1         0.0833
       6    H4      19.768842   20.053300   21.002779 H          1 MOL1         0.0833
       7    C3      20.981431   18.258385   21.370117 C.3        1 MOL1        -0.1684
       8    H5      21.382663   17.753664   20.480759 H          1 MOL1         0.0833
       9    H6      20.804492   17.453169   22.092582 H          1 MOL1         0.0833
      10    C4      22.072635   19.216065   21.912038 C.3        1 MOL1        -0.1760
      11    H7      22.889495   18.611195   22.327526 H          1 MOL1         0.0833
      12    H8      22.504766   19.764862   21.065132 H          1 MOL1         0.0833
      13    C5      21.627422   20.257817   22.968785 C.3        1 MOL1         0.1219
      14    H9      21.005025   21.021537   22.483666 H          1 MOL1         0.0790
      15    C6      20.849186   19.678782   24.175584 C.3        1 MOL1        -0.1760
      16    H10     21.189321   18.658584   24.394797 H          1 MOL1         0.0833
      17    H11     21.109781   20.268606   25.064512 H          1 MOL1         0.0833
      18    C7      19.300801   19.730450   24.042978 C.3        1 MOL1        -0.1684
      19    H12     18.975350   20.648976   23.536211 H          1 MOL1         0.0833
      20    H13     18.895701   19.800827   25.061888 H          1 MOL1         0.0833
      21    C8      18.655894   18.483664   23.388440 C.3        1 MOL1        -0.1684
      22    H14     17.667033   18.337054   23.844209 H          1 MOL1         0.0833
      23    H15     19.222952   17.583488   23.657620 H          1 MOL1         0.0833
      24    O1      22.804524   20.891609   23.455568 O.3        1 MOL1        -0.5508
      25    H16     22.511660   21.602825   24.062904 H          1 MOL1         0.3780
@<TRIPOS>BOND
    1     1     2    1
    2     1     3    1
    3     1     4    1
    4     4     5    1
    5     4     6    1
    6     4     7    1
    7     7     8    1
    8     7     9    1
    9     7    10    1
   10    10    11    1
   11    10    12    1
   12    10    13    1
   13    13    14    1
   14    13    15    1
   15    15    16    1
   16    15    17    1
   17    15    18    1
   18    18    19    1
   19    18    20    1
   20     1    21    1
   21    18    21    1
   22    21    22    1
   23    21    23    1
   24    13    24    1
   25    24    25    1
@<TRIPOS>SUBSTRUCTURE
       1 MOL1            1 RESIDUE      1      MOL     
@<SCITEGIC>MOL_PROPERTY
VConf Rank
SciTegic.value.IntegerValue
610

@<SCITEGIC>MOL_PROPERTY
Conf_Id
SciTegic.value.IntegerValue
162

@<SCITEGIC>MOL_PROPERTY
Delta U+W
SciTegic.value.DoubleValue
0.219

@<SCITEGIC>MOL_PROPERTY
U+W
SciTegic.value.DoubleValue
11.132

@<SCITEGIC>MOL_PROPERTY
Grad RMS
SciTegic.value.DoubleValue
0.000000

@<SCITEGIC>MOL_PROPERTY
U
SciTegic.value.DoubleValue
13.296

@<SCITEGIC>MOL_PROPERTY
W
SciTegic.value.DoubleValue
-2.164

@<SCITEGIC>MOL_PROPERTY
W(PB)
SciTegic.value.DoubleValue
-4.311

@<SCITEGIC>MOL_PROPERTY
W(SA)
SciTegic.value.DoubleValue
2.148

@<SCITEGIC>MOL_PROPERTY
Valence
SciTegic.value.DoubleValue
18.607

@<SCITEGIC>MOL_PROPERTY
Coulomb
SciTegic.value.DoubleValue
-8.339

@<SCITEGIC>MOL_PROPERTY
VdW
SciTegic.value.DoubleValue
3.028

@<SCITEGIC>MOL_PROPERTY
VdW6
SciTegic.value.DoubleValue
-12.271

@<SCITEGIC>MOL_PROPERTY
VdW12
SciTegic.value.DoubleValue
15.299

@<SCITEGIC>MOL_PROPERTY
Bond
SciTegic.value.DoubleValue
0.423

@<SCITEGIC>MOL_PROPERTY
Angle
SciTegic.value.DoubleValue
4.488

@<SCITEGIC>MOL_PROPERTY
Pdih
SciTegic.value.DoubleValue
13.696

@<SCITEGIC>MOL_PROPERTY
Idih
SciTegic.value.DoubleValue
0.000

@<SCITEGIC>MOL_PROPERTY
Tether
SciTegic.value.DoubleValue
0.000

@<TRIPOS>MOLECULE
guest-s17_confgen4.mol2 : confsearch ligand conformer 611
          25          25           1
SMALL
USER_CHARGES
 
@<TRIPOS>ATOM
       1    C1      21.501676   20.273199   21.403541 C.3        1 MOL1        -0.1684
       2    H1      20.701903   21.023714   21.367701 H          1 MOL1         0.0833
       3    H2      22.301445   20.686477   20.773830 H          1 MOL1         0.0833
       4    C2      22.046405   20.149794   22.848444 C.3        1 MOL1        -0.1684
       5    H3      22.570435   19.194619   22.987238 H          1 MOL1         0.0833
       6    H4      22.817390   20.923795   22.965251 H          1 MOL1         0.0833
       7    C3      20.999333   20.384397   23.972794 C.3        1 MOL1        -0.1684
       8    H5      20.288232   21.173725   23.694474 H          1 MOL1         0.0833
       9    H6      21.547377   20.779759   24.839089 H          1 MOL1         0.0833
      10    C4      20.252274   19.114310   24.456502 C.3        1 MOL1        -0.1760
      11    H7      20.919260   18.245013   24.404073 H          1 MOL1         0.0833
      12    H8      20.035088   19.239708   25.525295 H          1 MOL1         0.0833
      13    C5      18.900253   18.805974   23.764914 C.3        1 MOL1         0.1219
      14    H9      18.172459   19.560202   24.097401 H          1 MOL1         0.0790
      15    C6      18.903144   18.820507   22.217712 C.3        1 MOL1        -0.1760
      16    H10     17.959931   18.385694   21.862343 H          1 MOL1         0.0833
      17    H11     18.871636   19.859234   21.871835 H          1 MOL1         0.0833
      18    C7      20.083014   18.054662   21.562836 C.3        1 MOL1        -0.1684
      19    H12     19.676151   17.281429   20.897305 H          1 MOL1         0.0833
      20    H13     20.656395   17.501057   22.315741 H          1 MOL1         0.0833
      21    C8      21.039648   18.949532   20.738310 C.3        1 MOL1        -0.1684
      22    H14     20.554894   19.197903   19.784337 H          1 MOL1         0.0833
      23    H15     21.925880   18.355353   20.477048 H          1 MOL1         0.0833
      24    O1      18.469434   17.523536   24.205193 O.3        1 MOL1        -0.5508
      25    H16     17.617054   17.343727   23.757716 H          1 MOL1         0.3780
@<TRIPOS>BOND
    1     1     2    1
    2     1     3    1
    3     1     4    1
    4     4     5    1
    5     4     6    1
    6     4     7    1
    7     7     8    1
    8     7     9    1
    9     7    10    1
   10    10    11    1
   11    10    12    1
   12    10    13    1
   13    13    14    1
   14    13    15    1
   15    15    16    1
   16    15    17    1
   17    15    18    1
   18    18    19    1
   19    18    20    1
   20     1    21    1
   21    18    21    1
   22    21    22    1
   23    21    23    1
   24    13    24    1
   25    24    25    1
@<TRIPOS>SUBSTRUCTURE
       1 MOL1            1 RESIDUE      1      MOL     
@<SCITEGIC>MOL_PROPERTY
VConf Rank
SciTegic.value.IntegerValue
611

@<SCITEGIC>MOL_PROPERTY
Conf_Id
SciTegic.value.IntegerValue
155

@<SCITEGIC>MOL_PROPERTY
Delta U+W
SciTegic.value.DoubleValue
0.339

@<SCITEGIC>MOL_PROPERTY
U+W
SciTegic.value.DoubleValue
11.252

@<SCITEGIC>MOL_PROPERTY
Grad RMS
SciTegic.value.DoubleValue
0.000000

@<SCITEGIC>MOL_PROPERTY
U
SciTegic.value.DoubleValue
13.420

@<SCITEGIC>MOL_PROPERTY
W
SciTegic.value.DoubleValue
-2.167

@<SCITEGIC>MOL_PROPERTY
W(PB)
SciTegic.value.DoubleValue
-4.325

@<SCITEGIC>MOL_PROPERTY
W(SA)
SciTegic.value.DoubleValue
2.157

@<SCITEGIC>MOL_PROPERTY
Valence
SciTegic.value.DoubleValue
18.609

@<SCITEGIC>MOL_PROPERTY
Coulomb
SciTegic.value.DoubleValue
-8.052

@<SCITEGIC>MOL_PROPERTY
VdW
SciTegic.value.DoubleValue
2.863

@<SCITEGIC>MOL_PROPERTY
VdW6
SciTegic.value.DoubleValue
-12.524

@<SCITEGIC>MOL_PROPERTY
VdW12
SciTegic.value.DoubleValue
15.387

@<SCITEGIC>MOL_PROPERTY
Bond
SciTegic.value.DoubleValue
0.430

@<SCITEGIC>MOL_PROPERTY
Angle
SciTegic.value.DoubleValue
4.724

@<SCITEGIC>MOL_PROPERTY
Pdih
SciTegic.value.DoubleValue
13.455

@<SCITEGIC>MOL_PROPERTY
Idih
SciTegic.value.DoubleValue
0.000

@<SCITEGIC>MOL_PROPERTY
Tether
SciTegic.value.DoubleValue
0.000

@<TRIPOS>MOLECULE
guest-s17_confgen4.mol2 : confsearch ligand conformer 612
          25          25           1
SMALL
USER_CHARGES
 
@<TRIPOS>ATOM
       1    C1      19.508287   20.890603   21.947423 C.3        1 MOL1        -0.1684
       2    H1      19.350581   20.884128   20.860489 H          1 MOL1         0.0833
       3    H2      19.115832   21.856359   22.293944 H          1 MOL1         0.0833
       4    C2      18.631449   19.788235   22.597623 C.3        1 MOL1        -0.1684
       5    H3      18.697406   19.869648   23.687193 H          1 MOL1         0.0833
       6    H4      17.581426   20.031112   22.385070 H          1 MOL1         0.0833
       7    C3      18.862997   18.319330   22.137279 C.3        1 MOL1        -0.1684
       8    H5      18.247879   18.154230   21.242335 H          1 MOL1         0.0833
       9    H6      18.459981   17.639429   22.900190 H          1 MOL1         0.0833
      10    C4      20.309951   17.882535   21.780294 C.3        1 MOL1        -0.1760
      11    H7      20.251184   16.874935   21.348337 H          1 MOL1         0.0833
      12    H8      20.672986   18.489342   20.946181 H          1 MOL1         0.0833
      13    C5      21.365895   17.849535   22.924058 C.3        1 MOL1         0.1219
      14    H9      22.360523   17.939563   22.464299 H          1 MOL1         0.0790
      15    C6      21.256629   18.922942   24.035992 C.3        1 MOL1        -0.1760
      16    H10     20.297214   18.809480   24.548992 H          1 MOL1         0.0833
      17    H11     21.994842   18.672973   24.809416 H          1 MOL1         0.0833
      18    C7      21.500950   20.410070   23.639681 C.3        1 MOL1        -0.1684
      19    H12     22.582676   20.592474   23.698302 H          1 MOL1         0.0833
      20    H13     21.053002   21.059325   24.403967 H          1 MOL1         0.0833
      21    C8      21.038243   20.880445   22.235638 C.3        1 MOL1        -0.1684
      22    H14     21.575459   20.315098   21.467681 H          1 MOL1         0.0833
      23    H15     21.398866   21.908644   22.095509 H          1 MOL1         0.0833
      24    O1      21.276712   16.580850   23.563331 O.3        1 MOL1        -0.5508
      25    H16     21.397756   15.903588   22.866262 H          1 MOL1         0.3780
@<TRIPOS>BOND
    1     1     2    1
    2     1     3    1
    3     1     4    1
    4     4     5    1
    5     4     6    1
    6     4     7    1
    7     7     8    1
    8     7     9    1
    9     7    10    1
   10    10    11    1
   11    10    12    1
   12    10    13    1
   13    13    14    1
   14    13    15    1
   15    15    16    1
   16    15    17    1
   17    15    18    1
   18    18    19    1
   19    18    20    1
   20     1    21    1
   21    18    21    1
   22    21    22    1
   23    21    23    1
   24    13    24    1
   25    24    25    1
@<TRIPOS>SUBSTRUCTURE
       1 MOL1            1 RESIDUE      1      MOL     
@<SCITEGIC>MOL_PROPERTY
VConf Rank
SciTegic.value.IntegerValue
612

@<SCITEGIC>MOL_PROPERTY
Conf_Id
SciTegic.value.IntegerValue
146

@<SCITEGIC>MOL_PROPERTY
Delta U+W
SciTegic.value.DoubleValue
2.553

@<SCITEGIC>MOL_PROPERTY
U+W
SciTegic.value.DoubleValue
13.466

@<SCITEGIC>MOL_PROPERTY
Grad RMS
SciTegic.value.DoubleValue
0.000000

@<SCITEGIC>MOL_PROPERTY
U
SciTegic.value.DoubleValue
15.643

@<SCITEGIC>MOL_PROPERTY
W
SciTegic.value.DoubleValue
-2.176

@<SCITEGIC>MOL_PROPERTY
W(PB)
SciTegic.value.DoubleValue
-4.307

@<SCITEGIC>MOL_PROPERTY
W(SA)
SciTegic.value.DoubleValue
2.131

@<SCITEGIC>MOL_PROPERTY
Valence
SciTegic.value.DoubleValue
18.916

@<SCITEGIC>MOL_PROPERTY
Coulomb
SciTegic.value.DoubleValue
-7.506

@<SCITEGIC>MOL_PROPERTY
VdW
SciTegic.value.DoubleValue
4.232

@<SCITEGIC>MOL_PROPERTY
VdW6
SciTegic.value.DoubleValue
-13.632

@<SCITEGIC>MOL_PROPERTY
VdW12
SciTegic.value.DoubleValue
17.864

@<SCITEGIC>MOL_PROPERTY
Bond
SciTegic.value.DoubleValue
0.735

@<SCITEGIC>MOL_PROPERTY
Angle
SciTegic.value.DoubleValue
9.140

@<SCITEGIC>MOL_PROPERTY
Pdih
SciTegic.value.DoubleValue
9.042

@<SCITEGIC>MOL_PROPERTY
Idih
SciTegic.value.DoubleValue
0.000

@<SCITEGIC>MOL_PROPERTY
Tether
SciTegic.value.DoubleValue
0.000

@<TRIPOS>MOLECULE
guest-s17_confgen4.mol2 : confsearch ligand conformer 613
          25          25           1
SMALL
USER_CHARGES
 
@<TRIPOS>ATOM
       1    C1      22.379997   19.218211   22.463664 C.3        1 MOL1        -0.1684
       2    H1      22.993753   18.369707   22.795098 H          1 MOL1         0.0833
       3    H2      23.086468   19.951433   22.051112 H          1 MOL1         0.0833
       4    C2      21.702503   19.870879   23.694585 C.3        1 MOL1        -0.1684
       5    H3      22.503538   20.221947   24.359336 H          1 MOL1         0.0833
       6    H4      21.170959   20.782430   23.398472 H          1 MOL1         0.0833
       7    C3      20.779670   18.951239   24.533051 C.3        1 MOL1        -0.1684
       8    H5      20.472422   19.515207   25.424409 H          1 MOL1         0.0833
       9    H6      21.360477   18.097117   24.906657 H          1 MOL1         0.0833
      10    C4      19.496295   18.423103   23.840431 C.3        1 MOL1        -0.1760
      11    H7      19.729692   17.551413   23.220955 H          1 MOL1         0.0833
      12    H8      18.841564   18.030663   24.630276 H          1 MOL1         0.0833
      13    C5      18.715130   19.475153   23.011548 C.3        1 MOL1         0.1219
      14    H9      18.998478   20.485004   23.337369 H          1 MOL1         0.0790
      15    C6      18.918931   19.353978   21.480031 C.3        1 MOL1        -0.1760
      16    H10     18.666403   18.333666   21.162362 H          1 MOL1         0.0833
      17    H11     18.186757   20.007505   20.987930 H          1 MOL1         0.0833
      18    C7      20.319750   19.731666   20.926260 C.3        1 MOL1        -0.1684
      19    H12     20.580726   20.762952   21.196706 H          1 MOL1         0.0833
      20    H13     20.241073   19.734197   19.830456 H          1 MOL1         0.0833
      21    C8      21.457348   18.749817   21.308790 C.3        1 MOL1        -0.1684
      22    H14     22.094711   18.604920   20.425720 H          1 MOL1         0.0833
      23    H15     21.051786   17.753565   21.518135 H          1 MOL1         0.0833
      24    O1      17.326655   19.298324   23.268879 O.3        1 MOL1        -0.5508
      25    H16     16.856011   20.007800   22.783741 H          1 MOL1         0.3780
@<TRIPOS>BOND
    1     1     2    1
    2     1     3    1
    3     1     4    1
    4     4     5    1
    5     4     6    1
    6     4     7    1
    7     7     8    1
    8     7     9    1
    9     7    10    1
   10    10    11    1
   11    10    12    1
   12    10    13    1
   13    13    14    1
   14    13    15    1
   15    15    16    1
   16    15    17    1
   17    15    18    1
   18    18    19    1
   19    18    20    1
   20     1    21    1
   21    18    21    1
   22    21    22    1
   23    21    23    1
   24    13    24    1
   25    24    25    1
@<TRIPOS>SUBSTRUCTURE
       1 MOL1            1 RESIDUE      1      MOL     
@<SCITEGIC>MOL_PROPERTY
VConf Rank
SciTegic.value.IntegerValue
613

@<SCITEGIC>MOL_PROPERTY
Conf_Id
SciTegic.value.IntegerValue
62

@<SCITEGIC>MOL_PROPERTY
Delta U+W
SciTegic.value.DoubleValue
-1.779

@<SCITEGIC>MOL_PROPERTY
U+W
SciTegic.value.DoubleValue
9.134

@<SCITEGIC>MOL_PROPERTY
Grad RMS
SciTegic.value.DoubleValue
0.000000

@<SCITEGIC>MOL_PROPERTY
U
SciTegic.value.DoubleValue
11.364

@<SCITEGIC>MOL_PROPERTY
W
SciTegic.value.DoubleValue
-2.230

@<SCITEGIC>MOL_PROPERTY
W(PB)
SciTegic.value.DoubleValue
-4.359

@<SCITEGIC>MOL_PROPERTY
W(SA)
SciTegic.value.DoubleValue
2.129

@<SCITEGIC>MOL_PROPERTY
Valence
SciTegic.value.DoubleValue
16.582

@<SCITEGIC>MOL_PROPERTY
Coulomb
SciTegic.value.DoubleValue
-8.150

@<SCITEGIC>MOL_PROPERTY
VdW
SciTegic.value.DoubleValue
2.933

@<SCITEGIC>MOL_PROPERTY
VdW6
SciTegic.value.DoubleValue
-12.531

@<SCITEGIC>MOL_PROPERTY
VdW12
SciTegic.value.DoubleValue
15.464

@<SCITEGIC>MOL_PROPERTY
Bond
SciTegic.value.DoubleValue
0.439

@<SCITEGIC>MOL_PROPERTY
Angle
SciTegic.value.DoubleValue
5.099

@<SCITEGIC>MOL_PROPERTY
Pdih
SciTegic.value.DoubleValue
11.044

@<SCITEGIC>MOL_PROPERTY
Idih
SciTegic.value.DoubleValue
0.000

@<SCITEGIC>MOL_PROPERTY
Tether
SciTegic.value.DoubleValue
0.000

@<TRIPOS>MOLECULE
guest-s17_confgen4.mol2 : confsearch ligand conformer 614
          25          25           1
SMALL
USER_CHARGES
 
@<TRIPOS>ATOM
       1    C1      19.997298   20.985789   22.281128 C.3        1 MOL1        -0.1684
       2    H1      19.133720   20.440628   21.883442 H          1 MOL1         0.0833
       3    H2      19.795327   22.038073   22.039164 H          1 MOL1         0.0833
       4    C2      21.287234   20.579400   21.525769 C.3        1 MOL1        -0.1684
       5    H3      21.139050   20.826162   20.465563 H          1 MOL1         0.0833
       6    H4      22.119940   21.210834   21.863984 H          1 MOL1         0.0833
       7    C3      21.716864   19.092471   21.610508 C.3        1 MOL1        -0.1684
       8    H5      22.276649   18.905763   22.533966 H          1 MOL1         0.0833
       9    H6      22.446720   18.920307   20.807580 H          1 MOL1         0.0833
      10    C4      20.568518   18.060329   21.451455 C.3        1 MOL1        -0.1760
      11    H7      19.724642   18.491022   20.898618 H          1 MOL1         0.0833
      12    H8      20.947266   17.249515   20.815473 H          1 MOL1         0.0833
      13    C5      20.079835   17.418827   22.774730 C.3        1 MOL1         0.1219
      14    H9      20.952940   17.007011   23.301111 H          1 MOL1         0.0790
      15    C6      19.323313   18.351074   23.753760 C.3        1 MOL1        -0.1760
      16    H10     18.443114   18.787574   23.266413 H          1 MOL1         0.0833
      17    H11     18.923567   17.715994   24.555436 H          1 MOL1         0.0833
      18    C7      20.195639   19.447172   24.422481 C.3        1 MOL1        -0.1684
      19    H12     21.248901   19.144840   24.435908 H          1 MOL1         0.0833
      20    H13     19.914380   19.509608   25.482643 H          1 MOL1         0.0833
      21    C8      20.044883   20.869626   23.825137 C.3        1 MOL1        -0.1684
      22    H14     20.851774   21.506354   24.212419 H          1 MOL1         0.0833
      23    H15     19.113003   21.300582   24.215982 H          1 MOL1         0.0833
      24    O1      19.203636   16.350365   22.438445 O.3        1 MOL1        -0.5508
      25    H16     19.713981   15.732411   21.874681 H          1 MOL1         0.3780
@<TRIPOS>BOND
    1     1     2    1
    2     1     3    1
    3     1     4    1
    4     4     5    1
    5     4     6    1
    6     4     7    1
    7     7     8    1
    8     7     9    1
    9     7    10    1
   10    10    11    1
   11    10    12    1
   12    10    13    1
   13    13    14    1
   14    13    15    1
   15    15    16    1
   16    15    17    1
   17    15    18    1
   18    18    19    1
   19    18    20    1
   20     1    21    1
   21    18    21    1
   22    21    22    1
   23    21    23    1
   24    13    24    1
   25    24    25    1
@<TRIPOS>SUBSTRUCTURE
       1 MOL1            1 RESIDUE      1      MOL     
@<SCITEGIC>MOL_PROPERTY
VConf Rank
SciTegic.value.IntegerValue
614

@<SCITEGIC>MOL_PROPERTY
Conf_Id
SciTegic.value.IntegerValue
121

@<SCITEGIC>MOL_PROPERTY
Delta U+W
SciTegic.value.DoubleValue
-1.283

@<SCITEGIC>MOL_PROPERTY
U+W
SciTegic.value.DoubleValue
9.630

@<SCITEGIC>MOL_PROPERTY
Grad RMS
SciTegic.value.DoubleValue
0.000000

@<SCITEGIC>MOL_PROPERTY
U
SciTegic.value.DoubleValue
11.876

@<SCITEGIC>MOL_PROPERTY
W
SciTegic.value.DoubleValue
-2.246

@<SCITEGIC>MOL_PROPERTY
W(PB)
SciTegic.value.DoubleValue
-4.376

@<SCITEGIC>MOL_PROPERTY
W(SA)
SciTegic.value.DoubleValue
2.130

@<SCITEGIC>MOL_PROPERTY
Valence
SciTegic.value.DoubleValue
17.153

@<SCITEGIC>MOL_PROPERTY
Coulomb
SciTegic.value.DoubleValue
-7.966

@<SCITEGIC>MOL_PROPERTY
VdW
SciTegic.value.DoubleValue
2.689

@<SCITEGIC>MOL_PROPERTY
VdW6
SciTegic.value.DoubleValue
-12.458

@<SCITEGIC>MOL_PROPERTY
VdW12
SciTegic.value.DoubleValue
15.147

@<SCITEGIC>MOL_PROPERTY
Bond
SciTegic.value.DoubleValue
0.421

@<SCITEGIC>MOL_PROPERTY
Angle
SciTegic.value.DoubleValue
5.258

@<SCITEGIC>MOL_PROPERTY
Pdih
SciTegic.value.DoubleValue
11.475

@<SCITEGIC>MOL_PROPERTY
Idih
SciTegic.value.DoubleValue
0.000

@<SCITEGIC>MOL_PROPERTY
Tether
SciTegic.value.DoubleValue
0.000

@<TRIPOS>MOLECULE
guest-s17_confgen4.mol2 : confsearch ligand conformer 615
          25          25           1
SMALL
USER_CHARGES
 
@<TRIPOS>ATOM
       1    C1      18.874041   19.488924   21.542530 C.3        1 MOL1        -0.1684
       2    H1      19.638460   20.155589   21.127385 H          1 MOL1         0.0833
       3    H2      18.011588   19.605986   20.872373 H          1 MOL1         0.0833
       4    C2      18.435983   19.977386   22.945824 C.3        1 MOL1        -0.1684
       5    H3      18.030118   20.991527   22.828889 H          1 MOL1         0.0833
       6    H4      17.598244   19.361296   23.299530 H          1 MOL1         0.0833
       7    C3      19.524515   20.027364   24.048334 C.3        1 MOL1        -0.1684
       8    H5      19.653116   19.040645   24.507456 H          1 MOL1         0.0833
       9    H6      19.135736   20.658799   24.858944 H          1 MOL1         0.0833
      10    C4      20.895312   20.602492   23.601438 C.3        1 MOL1        -0.1760
      11    H7      20.783709   21.264296   22.734057 H          1 MOL1         0.0833
      12    H8      21.259653   21.248105   24.411530 H          1 MOL1         0.0833
      13    C5      21.995502   19.543908   23.338957 C.3        1 MOL1         0.1219
      14    H9      22.071608   18.902540   24.228809 H          1 MOL1         0.0790
      15    C6      21.794913   18.634410   22.100424 C.3        1 MOL1        -0.1760
      16    H10     21.706477   19.239403   21.189702 H          1 MOL1         0.0833
      17    H11     22.715480   18.050260   21.971315 H          1 MOL1         0.0833
      18    C7      20.622845   17.623256   22.215027 C.3        1 MOL1        -0.1684
      19    H12     20.395395   17.415696   23.266777 H          1 MOL1         0.0833
      20    H13     20.960943   16.658808   21.811849 H          1 MOL1         0.0833
      21    C8      19.334488   18.012990   21.446287 C.3        1 MOL1        -0.1684
      22    H14     18.515189   17.355638   21.767428 H          1 MOL1         0.0833
      23    H15     19.496653   17.787750   20.383339 H          1 MOL1         0.0833
      24    O1      23.225158   20.238024   23.169923 O.3        1 MOL1        -0.5508
      25    H16     23.923439   19.557484   23.072868 H          1 MOL1         0.3780
@<TRIPOS>BOND
    1     1     2    1
    2     1     3    1
    3     1     4    1
    4     4     5    1
    5     4     6    1
    6     4     7    1
    7     7     8    1
    8     7     9    1
    9     7    10    1
   10    10    11    1
   11    10    12    1
   12    10    13    1
   13    13    14    1
   14    13    15    1
   15    15    16    1
   16    15    17    1
   17    15    18    1
   18    18    19    1
   19    18    20    1
   20     1    21    1
   21    18    21    1
   22    21    22    1
   23    21    23    1
   24    13    24    1
   25    24    25    1
@<TRIPOS>SUBSTRUCTURE
       1 MOL1            1 RESIDUE      1      MOL     
@<SCITEGIC>MOL_PROPERTY
VConf Rank
SciTegic.value.IntegerValue
615

@<SCITEGIC>MOL_PROPERTY
Conf_Id
SciTegic.value.IntegerValue
24

@<SCITEGIC>MOL_PROPERTY
Delta U+W
SciTegic.value.DoubleValue
-1.236

@<SCITEGIC>MOL_PROPERTY
U+W
SciTegic.value.DoubleValue
9.678

@<SCITEGIC>MOL_PROPERTY
Grad RMS
SciTegic.value.DoubleValue
0.000000

@<SCITEGIC>MOL_PROPERTY
U
SciTegic.value.DoubleValue
11.876

@<SCITEGIC>MOL_PROPERTY
W
SciTegic.value.DoubleValue
-2.199

@<SCITEGIC>MOL_PROPERTY
W(PB)
SciTegic.value.DoubleValue
-4.335

@<SCITEGIC>MOL_PROPERTY
W(SA)
SciTegic.value.DoubleValue
2.137

@<SCITEGIC>MOL_PROPERTY
Valence
SciTegic.value.DoubleValue
17.153

@<SCITEGIC>MOL_PROPERTY
Coulomb
SciTegic.value.DoubleValue
-7.966

@<SCITEGIC>MOL_PROPERTY
VdW
SciTegic.value.DoubleValue
2.689

@<SCITEGIC>MOL_PROPERTY
VdW6
SciTegic.value.DoubleValue
-12.458

@<SCITEGIC>MOL_PROPERTY
VdW12
SciTegic.value.DoubleValue
15.147

@<SCITEGIC>MOL_PROPERTY
Bond
SciTegic.value.DoubleValue
0.421

@<SCITEGIC>MOL_PROPERTY
Angle
SciTegic.value.DoubleValue
5.258

@<SCITEGIC>MOL_PROPERTY
Pdih
SciTegic.value.DoubleValue
11.475

@<SCITEGIC>MOL_PROPERTY
Idih
SciTegic.value.DoubleValue
0.000

@<SCITEGIC>MOL_PROPERTY
Tether
SciTegic.value.DoubleValue
0.000

@<TRIPOS>MOLECULE
guest-s17_confgen4.mol2 : confsearch ligand conformer 616
          25          25           1
SMALL
USER_CHARGES
 
@<TRIPOS>ATOM
       1    C1      19.309222   20.497304   21.235913 C.3        1 MOL1        -0.1684
       2    H1      19.640231   20.595407   20.193039 H          1 MOL1         0.0833
       3    H2      18.495390   21.224905   21.358917 H          1 MOL1         0.0833
       4    C2      18.716167   19.078256   21.442765 C.3        1 MOL1        -0.1684
       5    H3      18.091180   19.048197   22.344309 H          1 MOL1         0.0833
       6    H4      18.018230   18.899578   20.613293 H          1 MOL1         0.0833
       7    C3      19.735437   17.912412   21.466377 C.3        1 MOL1        -0.1684
       8    H5      20.569812   18.109765   20.779845 H          1 MOL1         0.0833
       9    H6      19.222377   17.032114   21.055224 H          1 MOL1         0.0833
      10    C4      20.251657   17.514846   22.878251 C.3        1 MOL1        -0.1760
      11    H7      19.453688   17.607140   23.626052 H          1 MOL1         0.0833
      12    H8      20.491182   16.443579   22.833919 H          1 MOL1         0.0833
      13    C5      21.523226   18.264733   23.345005 C.3        1 MOL1         0.1219
      14    H9      22.107764   18.545270   22.458839 H          1 MOL1         0.0790
      15    C6      21.270762   19.524433   24.211738 C.3        1 MOL1        -0.1760
      16    H10     20.926237   19.218043   25.208131 H          1 MOL1         0.0833
      17    H11     22.237895   20.020831   24.366215 H          1 MOL1         0.0833
      18    C7      20.270538   20.568157   23.654214 C.3        1 MOL1        -0.1684
      19    H12     20.374308   21.488641   24.244721 H          1 MOL1         0.0833
      20    H13     19.243735   20.231838   23.839293 H          1 MOL1         0.0833
      21    C8      20.482407   20.910926   22.157893 C.3        1 MOL1        -0.1684
      22    H14     21.416541   20.477765   21.781833 H          1 MOL1         0.0833
      23    H15     20.621557   21.996489   22.062706 H          1 MOL1         0.0833
      24    O1      22.310286   17.370260   24.120996 O.3        1 MOL1        -0.5508
      25    H16     21.763032   17.118032   24.892921 H          1 MOL1         0.3780
@<TRIPOS>BOND
    1     1     2    1
    2     1     3    1
    3     1     4    1
    4     4     5    1
    5     4     6    1
    6     4     7    1
    7     7     8    1
    8     7     9    1
    9     7    10    1
   10    10    11    1
   11    10    12    1
   12    10    13    1
   13    13    14    1
   14    13    15    1
   15    15    16    1
   16    15    17    1
   17    15    18    1
   18    18    19    1
   19    18    20    1
   20     1    21    1
   21    18    21    1
   22    21    22    1
   23    21    23    1
   24    13    24    1
   25    24    25    1
@<TRIPOS>SUBSTRUCTURE
       1 MOL1            1 RESIDUE      1      MOL     
@<SCITEGIC>MOL_PROPERTY
VConf Rank
SciTegic.value.IntegerValue
616

@<SCITEGIC>MOL_PROPERTY
Conf_Id
SciTegic.value.IntegerValue
167

@<SCITEGIC>MOL_PROPERTY
Delta U+W
SciTegic.value.DoubleValue
0.388

@<SCITEGIC>MOL_PROPERTY
U+W
SciTegic.value.DoubleValue
11.301

@<SCITEGIC>MOL_PROPERTY
Grad RMS
SciTegic.value.DoubleValue
0.000000

@<SCITEGIC>MOL_PROPERTY
U
SciTegic.value.DoubleValue
13.202

@<SCITEGIC>MOL_PROPERTY
W
SciTegic.value.DoubleValue
-1.901

@<SCITEGIC>MOL_PROPERTY
W(PB)
SciTegic.value.DoubleValue
-4.065

@<SCITEGIC>MOL_PROPERTY
W(SA)
SciTegic.value.DoubleValue
2.163

@<SCITEGIC>MOL_PROPERTY
Valence
SciTegic.value.DoubleValue
18.957

@<SCITEGIC>MOL_PROPERTY
Coulomb
SciTegic.value.DoubleValue
-8.753

@<SCITEGIC>MOL_PROPERTY
VdW
SciTegic.value.DoubleValue
2.998

@<SCITEGIC>MOL_PROPERTY
VdW6
SciTegic.value.DoubleValue
-12.294

@<SCITEGIC>MOL_PROPERTY
VdW12
SciTegic.value.DoubleValue
15.292

@<SCITEGIC>MOL_PROPERTY
Bond
SciTegic.value.DoubleValue
0.419

@<SCITEGIC>MOL_PROPERTY
Angle
SciTegic.value.DoubleValue
4.543

@<SCITEGIC>MOL_PROPERTY
Pdih
SciTegic.value.DoubleValue
13.996

@<SCITEGIC>MOL_PROPERTY
Idih
SciTegic.value.DoubleValue
0.000

@<SCITEGIC>MOL_PROPERTY
Tether
SciTegic.value.DoubleValue
0.000

@<TRIPOS>MOLECULE
guest-s17_confgen4.mol2 : confsearch ligand conformer 617
          25          25           1
SMALL
USER_CHARGES
 
@<TRIPOS>ATOM
       1    C1      18.244563   19.261605   22.617320 C.3        1 MOL1        -0.1684
       2    H1      17.663512   18.333710   22.528474 H          1 MOL1         0.0833
       3    H2      17.503205   20.068180   22.699439 H          1 MOL1         0.0833
       4    C2      19.039677   19.483794   21.304411 C.3        1 MOL1        -0.1684
       5    H3      19.455654   18.537899   20.939650 H          1 MOL1         0.0833
       6    H4      18.313370   19.777057   20.534015 H          1 MOL1         0.0833
       7    C3      20.140686   20.574017   21.367928 C.3        1 MOL1        -0.1684
       8    H5      19.916502   21.316522   22.144586 H          1 MOL1         0.0833
       9    H6      20.108979   21.130757   20.421387 H          1 MOL1         0.0833
      10    C4      21.587370   20.031384   21.525732 C.3        1 MOL1        -0.1760
      11    H7      21.801791   19.322621   20.715225 H          1 MOL1         0.0833
      12    H8      22.274636   20.873840   21.371721 H          1 MOL1         0.0833
      13    C5      21.944757   19.376490   22.883229 C.3        1 MOL1         0.1219
      14    H9      21.698885   20.074612   23.694603 H          1 MOL1         0.0790
      15    C6      21.246199   18.014668   23.132595 C.3        1 MOL1        -0.1760
      16    H10     20.938720   17.569436   22.181018 H          1 MOL1         0.0833
      17    H11     21.971807   17.300844   23.544772 H          1 MOL1         0.0833
      18    C7      20.046043   18.063800   24.113399 C.3        1 MOL1        -0.1684
      19    H12     20.446748   18.116749   25.134955 H          1 MOL1         0.0833
      20    H13     19.500264   17.112243   24.056678 H          1 MOL1         0.0833
      21    C8      19.048213   19.236724   23.941780 C.3        1 MOL1        -0.1684
      22    H14     19.551707   20.197308   24.099644 H          1 MOL1         0.0833
      23    H15     18.321164   19.168241   24.762469 H          1 MOL1         0.0833
      24    O1      23.351426   19.163544   22.893120 O.3        1 MOL1        -0.5508
      25    H16     23.576131   18.813800   23.780647 H          1 MOL1         0.3780
@<TRIPOS>BOND
    1     1     2    1
    2     1     3    1
    3     1     4    1
    4     4     5    1
    5     4     6    1
    6     4     7    1
    7     7     8    1
    8     7     9    1
    9     7    10    1
   10    10    11    1
   11    10    12    1
   12    10    13    1
   13    13    14    1
   14    13    15    1
   15    15    16    1
   16    15    17    1
   17    15    18    1
   18    18    19    1
   19    18    20    1
   20     1    21    1
   21    18    21    1
   22    21    22    1
   23    21    23    1
   24    13    24    1
   25    24    25    1
@<TRIPOS>SUBSTRUCTURE
       1 MOL1            1 RESIDUE      1      MOL     
@<SCITEGIC>MOL_PROPERTY
VConf Rank
SciTegic.value.IntegerValue
617

@<SCITEGIC>MOL_PROPERTY
Conf_Id
SciTegic.value.IntegerValue
60

@<SCITEGIC>MOL_PROPERTY
Delta U+W
SciTegic.value.DoubleValue
-1.838

@<SCITEGIC>MOL_PROPERTY
U+W
SciTegic.value.DoubleValue
9.075

@<SCITEGIC>MOL_PROPERTY
Grad RMS
SciTegic.value.DoubleValue
0.000000

@<SCITEGIC>MOL_PROPERTY
U
SciTegic.value.DoubleValue
11.150

@<SCITEGIC>MOL_PROPERTY
W
SciTegic.value.DoubleValue
-2.074

@<SCITEGIC>MOL_PROPERTY
W(PB)
SciTegic.value.DoubleValue
-4.196

@<SCITEGIC>MOL_PROPERTY
W(SA)
SciTegic.value.DoubleValue
2.121

@<SCITEGIC>MOL_PROPERTY
Valence
SciTegic.value.DoubleValue
16.582

@<SCITEGIC>MOL_PROPERTY
Coulomb
SciTegic.value.DoubleValue
-8.361

@<SCITEGIC>MOL_PROPERTY
VdW
SciTegic.value.DoubleValue
2.928

@<SCITEGIC>MOL_PROPERTY
VdW6
SciTegic.value.DoubleValue
-12.539

@<SCITEGIC>MOL_PROPERTY
VdW12
SciTegic.value.DoubleValue
15.467

@<SCITEGIC>MOL_PROPERTY
Bond
SciTegic.value.DoubleValue
0.441

@<SCITEGIC>MOL_PROPERTY
Angle
SciTegic.value.DoubleValue
5.093

@<SCITEGIC>MOL_PROPERTY
Pdih
SciTegic.value.DoubleValue
11.049

@<SCITEGIC>MOL_PROPERTY
Idih
SciTegic.value.DoubleValue
0.000

@<SCITEGIC>MOL_PROPERTY
Tether
SciTegic.value.DoubleValue
0.000

@<TRIPOS>MOLECULE
guest-s17_confgen4.mol2 : confsearch ligand conformer 618
          25          25           1
SMALL
USER_CHARGES
 
@<TRIPOS>ATOM
       1    C1      21.208701   20.947262   23.272213 C.3        1 MOL1        -0.1684
       2    H1      22.257267   20.975140   23.598154 H          1 MOL1         0.0833
       3    H2      20.834606   21.973356   23.390970 H          1 MOL1         0.0833
       4    C2      20.397423   20.045693   24.236404 C.3        1 MOL1        -0.1684
       5    H3      20.468358   20.492853   25.237323 H          1 MOL1         0.0833
       6    H4      19.330236   20.088998   23.990674 H          1 MOL1         0.0833
       7    C3      20.869754   18.574835   24.356201 C.3        1 MOL1        -0.1684
       8    H5      20.279352   18.101290   25.152520 H          1 MOL1         0.0833
       9    H6      21.910818   18.555703   24.706016 H          1 MOL1         0.0833
      10    C4      20.749644   17.693860   23.085683 C.3        1 MOL1        -0.1760
      11    H7      21.597444   17.876293   22.417681 H          1 MOL1         0.0833
      12    H8      20.873421   16.649873   23.403036 H          1 MOL1         0.0833
      13    C5      19.416250   17.843515   22.308259 C.3        1 MOL1         0.1219
      14    H9      18.650637   18.279892   22.963671 H          1 MOL1         0.0790
      15    C6      19.527343   18.697384   21.020636 C.3        1 MOL1        -0.1760
      16    H10     20.315023   18.281939   20.378602 H          1 MOL1         0.0833
      17    H11     18.592033   18.574780   20.458545 H          1 MOL1         0.0833
      18    C7      19.763580   20.221036   21.207522 C.3        1 MOL1        -0.1684
      19    H12     18.964685   20.667427   21.813551 H          1 MOL1         0.0833
      20    H13     19.664461   20.684390   20.216370 H          1 MOL1         0.0833
      21    C8      21.161581   20.600047   21.761409 C.3        1 MOL1        -0.1684
      22    H14     21.515663   21.485851   21.216423 H          1 MOL1         0.0833
      23    H15     21.894575   19.821888   21.520592 H          1 MOL1         0.0833
      24    O1      18.979649   16.546407   21.919602 O.3        1 MOL1        -0.5508
      25    H16     18.846210   16.035976   22.745538 H          1 MOL1         0.3780
@<TRIPOS>BOND
    1     1     2    1
    2     1     3    1
    3     1     4    1
    4     4     5    1
    5     4     6    1
    6     4     7    1
    7     7     8    1
    8     7     9    1
    9     7    10    1
   10    10    11    1
   11    10    12    1
   12    10    13    1
   13    13    14    1
   14    13    15    1
   15    15    16    1
   16    15    17    1
   17    15    18    1
   18    18    19    1
   19    18    20    1
   20     1    21    1
   21    18    21    1
   22    21    22    1
   23    21    23    1
   24    13    24    1
   25    24    25    1
@<TRIPOS>SUBSTRUCTURE
       1 MOL1            1 RESIDUE      1      MOL     
@<SCITEGIC>MOL_PROPERTY
VConf Rank
SciTegic.value.IntegerValue
618

@<SCITEGIC>MOL_PROPERTY
Conf_Id
SciTegic.value.IntegerValue
129

@<SCITEGIC>MOL_PROPERTY
Delta U+W
SciTegic.value.DoubleValue
-1.846

@<SCITEGIC>MOL_PROPERTY
U+W
SciTegic.value.DoubleValue
9.067

@<SCITEGIC>MOL_PROPERTY
Grad RMS
SciTegic.value.DoubleValue
0.000000

@<SCITEGIC>MOL_PROPERTY
U
SciTegic.value.DoubleValue
11.150

@<SCITEGIC>MOL_PROPERTY
W
SciTegic.value.DoubleValue
-2.083

@<SCITEGIC>MOL_PROPERTY
W(PB)
SciTegic.value.DoubleValue
-4.217

@<SCITEGIC>MOL_PROPERTY
W(SA)
SciTegic.value.DoubleValue
2.134

@<SCITEGIC>MOL_PROPERTY
Valence
SciTegic.value.DoubleValue
16.583

@<SCITEGIC>MOL_PROPERTY
Coulomb
SciTegic.value.DoubleValue
-8.361

@<SCITEGIC>MOL_PROPERTY
VdW
SciTegic.value.DoubleValue
2.928

@<SCITEGIC>MOL_PROPERTY
VdW6
SciTegic.value.DoubleValue
-12.539

@<SCITEGIC>MOL_PROPERTY
VdW12
SciTegic.value.DoubleValue
15.467

@<SCITEGIC>MOL_PROPERTY
Bond
SciTegic.value.DoubleValue
0.441

@<SCITEGIC>MOL_PROPERTY
Angle
SciTegic.value.DoubleValue
5.093

@<SCITEGIC>MOL_PROPERTY
Pdih
SciTegic.value.DoubleValue
11.049

@<SCITEGIC>MOL_PROPERTY
Idih
SciTegic.value.DoubleValue
0.000

@<SCITEGIC>MOL_PROPERTY
Tether
SciTegic.value.DoubleValue
0.000

@<TRIPOS>MOLECULE
guest-s17_confgen4.mol2 : confsearch ligand conformer 619
          25          25           1
SMALL
USER_CHARGES
 
@<TRIPOS>ATOM
       1    C1      20.558264   18.379416   20.785533 C.3        1 MOL1        -0.1684
       2    H1      21.568099   18.131191   20.431804 H          1 MOL1         0.0833
       3    H2      19.879065   18.081068   19.975227 H          1 MOL1         0.0833
       4    C2      20.436528   19.915268   20.948491 C.3        1 MOL1        -0.1684
       5    H3      20.608787   20.362324   19.959919 H          1 MOL1         0.0833
       6    H4      19.406174   20.191645   21.199861 H          1 MOL1         0.0833
       7    C3      21.432785   20.578491   21.932296 C.3        1 MOL1        -0.1684
       8    H5      21.302111   21.666353   21.851469 H          1 MOL1         0.0833
       9    H6      22.460019   20.376545   21.599873 H          1 MOL1         0.0833
      10    C4      21.303341   20.195174   23.429489 C.3        1 MOL1        -0.1760
      11    H7      21.810641   19.244127   23.621050 H          1 MOL1         0.0833
      12    H8      21.879392   20.936291   24.000040 H          1 MOL1         0.0833
      13    C5      19.851392   20.148656   23.971940 C.3        1 MOL1         0.1219
      14    H9      19.192119   20.731734   23.315244 H          1 MOL1         0.0790
      15    C6      19.277152   18.718503   24.132595 C.3        1 MOL1        -0.1760
      16    H10     19.949676   18.123354   24.764042 H          1 MOL1         0.0833
      17    H11     18.335608   18.798206   24.692397 H          1 MOL1         0.0833
      18    C7      18.975832   17.933269   22.827362 C.3        1 MOL1        -0.1684
      19    H12     18.270195   18.486295   22.194092 H          1 MOL1         0.0833
      20    H13     18.442125   17.018509   23.119488 H          1 MOL1         0.0833
      21    C8      20.230048   17.504201   22.022757 C.3        1 MOL1        -0.1684
      22    H14     20.068653   16.480053   21.659270 H          1 MOL1         0.0833
      23    H15     21.101834   17.424777   22.681909 H          1 MOL1         0.0833
      24    O1      19.837865   20.755815   25.257762 O.3        1 MOL1        -0.5508
      25    H16     20.427668   20.217146   25.824251 H          1 MOL1         0.3780
@<TRIPOS>BOND
    1     1     2    1
    2     1     3    1
    3     1     4    1
    4     4     5    1
    5     4     6    1
    6     4     7    1
    7     7     8    1
    8     7     9    1
    9     7    10    1
   10    10    11    1
   11    10    12    1
   12    10    13    1
   13    13    14    1
   14    13    15    1
   15    15    16    1
   16    15    17    1
   17    15    18    1
   18    18    19    1
   19    18    20    1
   20     1    21    1
   21    18    21    1
   22    21    22    1
   23    21    23    1
   24    13    24    1
   25    24    25    1
@<TRIPOS>SUBSTRUCTURE
       1 MOL1            1 RESIDUE      1      MOL     
@<SCITEGIC>MOL_PROPERTY
VConf Rank
SciTegic.value.IntegerValue
619

@<SCITEGIC>MOL_PROPERTY
Conf_Id
SciTegic.value.IntegerValue
140

@<SCITEGIC>MOL_PROPERTY
Delta U+W
SciTegic.value.DoubleValue
-1.702

@<SCITEGIC>MOL_PROPERTY
U+W
SciTegic.value.DoubleValue
9.211

@<SCITEGIC>MOL_PROPERTY
Grad RMS
SciTegic.value.DoubleValue
0.000000

@<SCITEGIC>MOL_PROPERTY
U
SciTegic.value.DoubleValue
11.181

@<SCITEGIC>MOL_PROPERTY
W
SciTegic.value.DoubleValue
-1.969

@<SCITEGIC>MOL_PROPERTY
W(PB)
SciTegic.value.DoubleValue
-4.093

@<SCITEGIC>MOL_PROPERTY
W(SA)
SciTegic.value.DoubleValue
2.124

@<SCITEGIC>MOL_PROPERTY
Valence
SciTegic.value.DoubleValue
16.954

@<SCITEGIC>MOL_PROPERTY
Coulomb
SciTegic.value.DoubleValue
-8.661

@<SCITEGIC>MOL_PROPERTY
VdW
SciTegic.value.DoubleValue
2.887

@<SCITEGIC>MOL_PROPERTY
VdW6
SciTegic.value.DoubleValue
-12.561

@<SCITEGIC>MOL_PROPERTY
VdW12
SciTegic.value.DoubleValue
15.448

@<SCITEGIC>MOL_PROPERTY
Bond
SciTegic.value.DoubleValue
0.433

@<SCITEGIC>MOL_PROPERTY
Angle
SciTegic.value.DoubleValue
5.120

@<SCITEGIC>MOL_PROPERTY
Pdih
SciTegic.value.DoubleValue
11.401

@<SCITEGIC>MOL_PROPERTY
Idih
SciTegic.value.DoubleValue
0.000

@<SCITEGIC>MOL_PROPERTY
Tether
SciTegic.value.DoubleValue
0.000

@<TRIPOS>MOLECULE
guest-s17_confgen4.mol2 : confsearch ligand conformer 620
          25          25           1
SMALL
USER_CHARGES
 
@<TRIPOS>ATOM
       1    C1      18.825200   18.366403   21.431890 C.3        1 MOL1        -0.1684
       2    H1      18.106506   19.009276   20.905866 H          1 MOL1         0.0833
       3    H2      18.557629   17.336845   21.157416 H          1 MOL1         0.0833
       4    C2      18.610514   18.518410   22.960043 C.3        1 MOL1        -0.1684
       5    H3      18.428503   19.566742   23.222101 H          1 MOL1         0.0833
       6    H4      17.668845   18.008403   23.205410 H          1 MOL1         0.0833
       7    C3      19.729166   17.920116   23.851789 C.3        1 MOL1        -0.1684
       8    H5      20.264079   17.116798   23.328968 H          1 MOL1         0.0833
       9    H6      19.243330   17.431090   24.707231 H          1 MOL1         0.0833
      10    C4      20.726153   18.960266   24.430683 C.3        1 MOL1        -0.1760
      11    H7      20.167038   19.726388   24.983550 H          1 MOL1         0.0833
      12    H8      21.342382   18.443295   25.178506 H          1 MOL1         0.0833
      13    C5      21.684276   19.646257   23.424547 C.3        1 MOL1         0.1219
      14    H9      22.219450   18.876897   22.852231 H          1 MOL1         0.0790
      15    C6      20.987093   20.631463   22.450958 C.3        1 MOL1        -0.1760
      16    H10     20.037783   20.975227   22.874249 H          1 MOL1         0.0833
      17    H11     21.595435   21.541516   22.359641 H          1 MOL1         0.0833
      18    C7      20.767350   20.089663   21.014491 C.3        1 MOL1        -0.1684
      19    H12     21.727261   20.147256   20.483167 H          1 MOL1         0.0833
      20    H13     20.088957   20.766597   20.477796 H          1 MOL1         0.0833
      21    C8      20.248975   18.635558   20.883592 C.3        1 MOL1        -0.1684
      22    H14     20.965566   17.930925   21.320848 H          1 MOL1         0.0833
      23    H15     20.237707   18.389032   19.813124 H          1 MOL1         0.0833
      24    O1      22.642011   20.374158   24.182875 O.3        1 MOL1        -0.5508
      25    H16     22.141535   21.049035   24.685874 H          1 MOL1         0.3780
@<TRIPOS>BOND
    1     1     2    1
    2     1     3    1
    3     1     4    1
    4     4     5    1
    5     4     6    1
    6     4     7    1
    7     7     8    1
    8     7     9    1
    9     7    10    1
   10    10    11    1
   11    10    12    1
   12    10    13    1
   13    13    14    1
   14    13    15    1
   15    15    16    1
   16    15    17    1
   17    15    18    1
   18    18    19    1
   19    18    20    1
   20     1    21    1
   21    18    21    1
   22    21    22    1
   23    21    23    1
   24    13    24    1
   25    24    25    1
@<TRIPOS>SUBSTRUCTURE
       1 MOL1            1 RESIDUE      1      MOL     
@<SCITEGIC>MOL_PROPERTY
VConf Rank
SciTegic.value.IntegerValue
620

@<SCITEGIC>MOL_PROPERTY
Conf_Id
SciTegic.value.IntegerValue
68

@<SCITEGIC>MOL_PROPERTY
Delta U+W
SciTegic.value.DoubleValue
-1.765

@<SCITEGIC>MOL_PROPERTY
U+W
SciTegic.value.DoubleValue
9.148

@<SCITEGIC>MOL_PROPERTY
Grad RMS
SciTegic.value.DoubleValue
0.000000

@<SCITEGIC>MOL_PROPERTY
U
SciTegic.value.DoubleValue
11.181

@<SCITEGIC>MOL_PROPERTY
W
SciTegic.value.DoubleValue
-2.032

@<SCITEGIC>MOL_PROPERTY
W(PB)
SciTegic.value.DoubleValue
-4.147

@<SCITEGIC>MOL_PROPERTY
W(SA)
SciTegic.value.DoubleValue
2.114

@<SCITEGIC>MOL_PROPERTY
Valence
SciTegic.value.DoubleValue
16.955

@<SCITEGIC>MOL_PROPERTY
Coulomb
SciTegic.value.DoubleValue
-8.661

@<SCITEGIC>MOL_PROPERTY
VdW
SciTegic.value.DoubleValue
2.887

@<SCITEGIC>MOL_PROPERTY
VdW6
SciTegic.value.DoubleValue
-12.561

@<SCITEGIC>MOL_PROPERTY
VdW12
SciTegic.value.DoubleValue
15.448

@<SCITEGIC>MOL_PROPERTY
Bond
SciTegic.value.DoubleValue
0.433

@<SCITEGIC>MOL_PROPERTY
Angle
SciTegic.value.DoubleValue
5.121

@<SCITEGIC>MOL_PROPERTY
Pdih
SciTegic.value.DoubleValue
11.402

@<SCITEGIC>MOL_PROPERTY
Idih
SciTegic.value.DoubleValue
0.000

@<SCITEGIC>MOL_PROPERTY
Tether
SciTegic.value.DoubleValue
0.000

@<TRIPOS>MOLECULE
guest-s17_confgen4.mol2 : confsearch ligand conformer 621
          25          25           1
SMALL
USER_CHARGES
 
@<TRIPOS>ATOM
       1    C1      22.097928   19.033574   22.546965 C.3        1 MOL1        -0.1684
       2    H1      23.180124   18.844060   22.550565 H          1 MOL1         0.0833
       3    H2      22.003979   20.062490   22.181730 H          1 MOL1         0.0833
       4    C2      21.585606   18.924013   24.006700 C.3        1 MOL1        -0.1684
       5    H3      21.198739   17.918432   24.215879 H          1 MOL1         0.0833
       6    H4      22.453301   19.039928   24.670544 H          1 MOL1         0.0833
       7    C3      20.553929   20.007225   24.417669 C.3        1 MOL1        -0.1684
       8    H5      20.982810   21.003608   24.243442 H          1 MOL1         0.0833
       9    H6      20.409397   19.935029   25.504284 H          1 MOL1         0.0833
      10    C4      19.155666   19.926906   23.749115 C.3        1 MOL1        -0.1760
      11    H7      18.698176   18.948306   23.937797 H          1 MOL1         0.0833
      12    H8      18.514163   20.650348   24.270379 H          1 MOL1         0.0833
      13    C5      19.147166   20.259913   22.234545 C.3        1 MOL1         0.1219
      14    H9      20.054462   20.823201   21.987431 H          1 MOL1         0.0790
      15    C6      19.043185   19.029307   21.300286 C.3        1 MOL1        -0.1760
      16    H10     18.001405   18.682541   21.295443 H          1 MOL1         0.0833
      17    H11     19.256264   19.354758   20.273757 H          1 MOL1         0.0833
      18    C7      19.935925   17.807139   21.637011 C.3        1 MOL1        -0.1684
      19    H12     19.679884   17.009562   20.926352 H          1 MOL1         0.0833
      20    H13     19.671329   17.397906   22.618757 H          1 MOL1         0.0833
      21    C8      21.465472   18.034801   21.543227 C.3        1 MOL1        -0.1684
      22    H14     21.724993   18.343719   20.521559 H          1 MOL1         0.0833
      23    H15     21.951237   17.060411   21.690180 H          1 MOL1         0.0833
      24    O1      18.031885   21.099161   21.961606 O.3        1 MOL1        -0.5508
      25    H16     17.233572   20.586797   22.204648 H          1 MOL1         0.3780
@<TRIPOS>BOND
    1     1     2    1
    2     1     3    1
    3     1     4    1
    4     4     5    1
    5     4     6    1
    6     4     7    1
    7     7     8    1
    8     7     9    1
    9     7    10    1
   10    10    11    1
   11    10    12    1
   12    10    13    1
   13    13    14    1
   14    13    15    1
   15    15    16    1
   16    15    17    1
   17    15    18    1
   18    18    19    1
   19    18    20    1
   20     1    21    1
   21    18    21    1
   22    21    22    1
   23    21    23    1
   24    13    24    1
   25    24    25    1
@<TRIPOS>SUBSTRUCTURE
       1 MOL1            1 RESIDUE      1      MOL     
@<SCITEGIC>MOL_PROPERTY
VConf Rank
SciTegic.value.IntegerValue
621

@<SCITEGIC>MOL_PROPERTY
Conf_Id
SciTegic.value.IntegerValue
165

@<SCITEGIC>MOL_PROPERTY
Delta U+W
SciTegic.value.DoubleValue
-1.999

@<SCITEGIC>MOL_PROPERTY
U+W
SciTegic.value.DoubleValue
8.915

@<SCITEGIC>MOL_PROPERTY
Grad RMS
SciTegic.value.DoubleValue
0.000000

@<SCITEGIC>MOL_PROPERTY
U
SciTegic.value.DoubleValue
10.935

@<SCITEGIC>MOL_PROPERTY
W
SciTegic.value.DoubleValue
-2.020

@<SCITEGIC>MOL_PROPERTY
W(PB)
SciTegic.value.DoubleValue
-4.135

@<SCITEGIC>MOL_PROPERTY
W(SA)
SciTegic.value.DoubleValue
2.115

@<SCITEGIC>MOL_PROPERTY
Valence
SciTegic.value.DoubleValue
16.757

@<SCITEGIC>MOL_PROPERTY
Coulomb
SciTegic.value.DoubleValue
-8.731

@<SCITEGIC>MOL_PROPERTY
VdW
SciTegic.value.DoubleValue
2.908

@<SCITEGIC>MOL_PROPERTY
VdW6
SciTegic.value.DoubleValue
-12.597

@<SCITEGIC>MOL_PROPERTY
VdW12
SciTegic.value.DoubleValue
15.506

@<SCITEGIC>MOL_PROPERTY
Bond
SciTegic.value.DoubleValue
0.434

@<SCITEGIC>MOL_PROPERTY
Angle
SciTegic.value.DoubleValue
5.069

@<SCITEGIC>MOL_PROPERTY
Pdih
SciTegic.value.DoubleValue
11.254

@<SCITEGIC>MOL_PROPERTY
Idih
SciTegic.value.DoubleValue
0.000

@<SCITEGIC>MOL_PROPERTY
Tether
SciTegic.value.DoubleValue
0.000

@<TRIPOS>MOLECULE
guest-s17_confgen4.mol2 : confsearch ligand conformer 622
          25          25           1
SMALL
USER_CHARGES
 
@<TRIPOS>ATOM
       1    C1      21.243854   17.647237   23.046227 C.3        1 MOL1        -0.1684
       2    H1      21.752076   16.722167   23.351251 H          1 MOL1         0.0833
       3    H2      21.645445   17.861010   22.049318 H          1 MOL1         0.0833
       4    C2      21.662183   18.748549   24.054971 C.3        1 MOL1        -0.1684
       5    H3      21.650979   18.303297   25.059277 H          1 MOL1         0.0833
       6    H4      22.708019   19.026410   23.866324 H          1 MOL1         0.0833
       7    C3      20.792648   20.029712   24.108545 C.3        1 MOL1        -0.1684
       8    H5      21.170714   20.647682   24.934304 H          1 MOL1         0.0833
       9    H6      19.765188   19.780854   24.397835 H          1 MOL1         0.0833
      10    C4      20.798106   20.910838   22.832763 C.3        1 MOL1        -0.1760
      11    H7      20.232242   21.824047   23.061593 H          1 MOL1         0.0833
      12    H8      21.826992   21.235012   22.630228 H          1 MOL1         0.0833
      13    C5      20.211143   20.289068   21.541780 C.3        1 MOL1         0.1219
      14    H9      20.945592   19.602499   21.104668 H          1 MOL1         0.0790
      15    C6      18.871425   19.533902   21.739434 C.3        1 MOL1        -0.1760
      16    H10     18.355498   19.883734   22.641406 H          1 MOL1         0.0833
      17    H11     18.201379   19.793055   20.908525 H          1 MOL1         0.0833
      18    C7      18.998593   17.987074   21.751262 C.3        1 MOL1        -0.1684
      19    H12     19.489209   17.656352   20.825570 H          1 MOL1         0.0833
      20    H13     17.983788   17.568234   21.712311 H          1 MOL1         0.0833
      21    C8      19.722132   17.357160   22.970511 C.3        1 MOL1        -0.1684
      22    H14     19.597238   16.268638   22.889690 H          1 MOL1         0.0833
      23    H15     19.219798   17.633197   23.906499 H          1 MOL1         0.0833
      24    O1      19.999925   21.349396   20.616250 O.3        1 MOL1        -0.5508
      25    H16     20.869375   21.779465   20.476483 H          1 MOL1         0.3780
@<TRIPOS>BOND
    1     1     2    1
    2     1     3    1
    3     1     4    1
    4     4     5    1
    5     4     6    1
    6     4     7    1
    7     7     8    1
    8     7     9    1
    9     7    10    1
   10    10    11    1
   11    10    12    1
   12    10    13    1
   13    13    14    1
   14    13    15    1
   15    15    16    1
   16    15    17    1
   17    15    18    1
   18    18    19    1
   19    18    20    1
   20     1    21    1
   21    18    21    1
   22    21    22    1
   23    21    23    1
   24    13    24    1
   25    24    25    1
@<TRIPOS>SUBSTRUCTURE
       1 MOL1            1 RESIDUE      1      MOL     
@<SCITEGIC>MOL_PROPERTY
VConf Rank
SciTegic.value.IntegerValue
622

@<SCITEGIC>MOL_PROPERTY
Conf_Id
SciTegic.value.IntegerValue
133

@<SCITEGIC>MOL_PROPERTY
Delta U+W
SciTegic.value.DoubleValue
-2.139

@<SCITEGIC>MOL_PROPERTY
U+W
SciTegic.value.DoubleValue
8.774

@<SCITEGIC>MOL_PROPERTY
Grad RMS
SciTegic.value.DoubleValue
0.000000

@<SCITEGIC>MOL_PROPERTY
U
SciTegic.value.DoubleValue
10.905

@<SCITEGIC>MOL_PROPERTY
W
SciTegic.value.DoubleValue
-2.131

@<SCITEGIC>MOL_PROPERTY
W(PB)
SciTegic.value.DoubleValue
-4.281

@<SCITEGIC>MOL_PROPERTY
W(SA)
SciTegic.value.DoubleValue
2.150

@<SCITEGIC>MOL_PROPERTY
Valence
SciTegic.value.DoubleValue
16.378

@<SCITEGIC>MOL_PROPERTY
Coulomb
SciTegic.value.DoubleValue
-8.448

@<SCITEGIC>MOL_PROPERTY
VdW
SciTegic.value.DoubleValue
2.976

@<SCITEGIC>MOL_PROPERTY
VdW6
SciTegic.value.DoubleValue
-12.570

@<SCITEGIC>MOL_PROPERTY
VdW12
SciTegic.value.DoubleValue
15.545

@<SCITEGIC>MOL_PROPERTY
Bond
SciTegic.value.DoubleValue
0.439

@<SCITEGIC>MOL_PROPERTY
Angle
SciTegic.value.DoubleValue
5.049

@<SCITEGIC>MOL_PROPERTY
Pdih
SciTegic.value.DoubleValue
10.889

@<SCITEGIC>MOL_PROPERTY
Idih
SciTegic.value.DoubleValue
0.000

@<SCITEGIC>MOL_PROPERTY
Tether
SciTegic.value.DoubleValue
0.000

@<TRIPOS>MOLECULE
guest-s17_confgen4.mol2 : confsearch ligand conformer 623
          25          25           1
SMALL
USER_CHARGES
 
@<TRIPOS>ATOM
       1    C1      19.972168   20.232181   24.167028 C.3        1 MOL1        -0.1684
       2    H1      19.754181   20.753067   25.109496 H          1 MOL1         0.0833
       3    H2      20.209157   21.036413   23.461443 H          1 MOL1         0.0833
       4    C2      18.689628   19.479899   23.725796 C.3        1 MOL1        -0.1684
       5    H3      18.705657   18.436895   24.067107 H          1 MOL1         0.0833
       6    H4      17.840626   19.939038   24.250580 H          1 MOL1         0.0833
       7    C3      18.378401   19.557376   22.207900 C.3        1 MOL1        -0.1684
       8    H5      18.318650   20.610712   21.901466 H          1 MOL1         0.0833
       9    H6      17.370912   19.148045   22.052378 H          1 MOL1         0.0833
      10    C4      19.346445   18.801680   21.258793 C.3        1 MOL1        -0.1760
      11    H7      19.396932   17.739939   21.527636 H          1 MOL1         0.0833
      12    H8      18.893462   18.821709   20.258325 H          1 MOL1         0.0833
      13    C5      20.767176   19.415657   21.165308 C.3        1 MOL1         0.1219
      14    H9      20.728910   20.455584   21.510193 H          1 MOL1         0.0790
      15    C6      21.853681   18.652729   21.962298 C.3        1 MOL1        -0.1760
      16    H10     22.125582   17.751895   21.395655 H          1 MOL1         0.0833
      17    H11     22.759839   19.270853   22.001258 H          1 MOL1         0.0833
      18    C7      21.491432   18.203847   23.401502 C.3        1 MOL1        -0.1684
      19    H12     22.339136   17.619833   23.784940 H          1 MOL1         0.0833
      20    H13     20.654563   17.496319   23.382881 H          1 MOL1         0.0833
      21    C8      21.214499   19.338633   24.419300 C.3        1 MOL1        -0.1684
      22    H14     22.103466   19.978620   24.501288 H          1 MOL1         0.0833
      23    H15     21.094705   18.870944   25.406175 H          1 MOL1         0.0833
      24    O1      21.167262   19.423160   19.799517 O.3        1 MOL1        -0.5508
      25    H16     22.045899   19.855887   19.765141 H          1 MOL1         0.3780
@<TRIPOS>BOND
    1     1     2    1
    2     1     3    1
    3     1     4    1
    4     4     5    1
    5     4     6    1
    6     4     7    1
    7     7     8    1
    8     7     9    1
    9     7    10    1
   10    10    11    1
   11    10    12    1
   12    10    13    1
   13    13    14    1
   14    13    15    1
   15    15    16    1
   16    15    17    1
   17    15    18    1
   18    18    19    1
   19    18    20    1
   20     1    21    1
   21    18    21    1
   22    21    22    1
   23    21    23    1
   24    13    24    1
   25    24    25    1
@<TRIPOS>SUBSTRUCTURE
       1 MOL1            1 RESIDUE      1      MOL     
@<SCITEGIC>MOL_PROPERTY
VConf Rank
SciTegic.value.IntegerValue
623

@<SCITEGIC>MOL_PROPERTY
Conf_Id
SciTegic.value.IntegerValue
95

@<SCITEGIC>MOL_PROPERTY
Delta U+W
SciTegic.value.DoubleValue
-2.190

@<SCITEGIC>MOL_PROPERTY
U+W
SciTegic.value.DoubleValue
8.723

@<SCITEGIC>MOL_PROPERTY
Grad RMS
SciTegic.value.DoubleValue
0.000000

@<SCITEGIC>MOL_PROPERTY
U
SciTegic.value.DoubleValue
10.905

@<SCITEGIC>MOL_PROPERTY
W
SciTegic.value.DoubleValue
-2.182

@<SCITEGIC>MOL_PROPERTY
W(PB)
SciTegic.value.DoubleValue
-4.296

@<SCITEGIC>MOL_PROPERTY
W(SA)
SciTegic.value.DoubleValue
2.114

@<SCITEGIC>MOL_PROPERTY
Valence
SciTegic.value.DoubleValue
16.377

@<SCITEGIC>MOL_PROPERTY
Coulomb
SciTegic.value.DoubleValue
-8.448

@<SCITEGIC>MOL_PROPERTY
VdW
SciTegic.value.DoubleValue
2.976

@<SCITEGIC>MOL_PROPERTY
VdW6
SciTegic.value.DoubleValue
-12.570

@<SCITEGIC>MOL_PROPERTY
VdW12
SciTegic.value.DoubleValue
15.546

@<SCITEGIC>MOL_PROPERTY
Bond
SciTegic.value.DoubleValue
0.439

@<SCITEGIC>MOL_PROPERTY
Angle
SciTegic.value.DoubleValue
5.049

@<SCITEGIC>MOL_PROPERTY
Pdih
SciTegic.value.DoubleValue
10.889

@<SCITEGIC>MOL_PROPERTY
Idih
SciTegic.value.DoubleValue
0.000

@<SCITEGIC>MOL_PROPERTY
Tether
SciTegic.value.DoubleValue
0.000

@<TRIPOS>MOLECULE
guest-s17_confgen4.mol2 : confsearch ligand conformer 624
          25          25           1
SMALL
USER_CHARGES
 
@<TRIPOS>ATOM
       1    C1      18.499515   18.849290   22.767859 C.3        1 MOL1        -0.1684
       2    H1      17.405930   18.773925   22.840613 H          1 MOL1         0.0833
       3    H2      18.841522   17.844030   23.033787 H          1 MOL1         0.0833
       4    C2      18.955584   19.892308   23.830090 C.3        1 MOL1        -0.1684
       5    H3      18.175599   20.663824   23.887775 H          1 MOL1         0.0833
       6    H4      18.965767   19.413281   24.818473 H          1 MOL1         0.0833
       7    C3      20.302048   20.628703   23.603704 C.3        1 MOL1        -0.1684
       8    H5      20.394366   21.399218   24.381266 H          1 MOL1         0.0833
       9    H6      20.246255   21.206927   22.676034 H          1 MOL1         0.0833
      10    C4      21.603702   19.774126   23.647480 C.3        1 MOL1        -0.1760
      11    H7      22.402587   20.317598   23.126143 H          1 MOL1         0.0833
      12    H8      21.917622   19.720813   24.698135 H          1 MOL1         0.0833
      13    C5      21.545981   18.321317   23.111096 C.3        1 MOL1         0.1219
      14    H9      20.776333   17.782471   23.673326 H          1 MOL1         0.0790
      15    C6      21.296955   18.142504   21.585775 C.3        1 MOL1        -0.1760
      16    H10     22.267874   18.201396   21.075712 H          1 MOL1         0.0833
      17    H11     20.934709   17.121071   21.413319 H          1 MOL1         0.0833
      18    C7      20.349441   19.141284   20.867673 C.3        1 MOL1        -0.1684
      19    H12     20.387173   18.919605   19.792430 H          1 MOL1         0.0833
      20    H13     20.768800   20.150047   20.935548 H          1 MOL1         0.0833
      21    C8      18.849299   19.135947   21.283670 C.3        1 MOL1        -0.1684
      22    H14     18.344161   18.368195   20.681790 H          1 MOL1         0.0833
      23    H15     18.394037   20.089239   20.982980 H          1 MOL1         0.0833
      24    O1      22.794495   17.707883   23.410302 O.3        1 MOL1        -0.5508
      25    H16     22.913329   17.766948   24.381099 H          1 MOL1         0.3780
@<TRIPOS>BOND
    1     1     2    1
    2     1     3    1
    3     1     4    1
    4     4     5    1
    5     4     6    1
    6     4     7    1
    7     7     8    1
    8     7     9    1
    9     7    10    1
   10    10    11    1
   11    10    12    1
   12    10    13    1
   13    13    14    1
   14    13    15    1
   15    15    16    1
   16    15    17    1
   17    15    18    1
   18    18    19    1
   19    18    20    1
   20     1    21    1
   21    18    21    1
   22    21    22    1
   23    21    23    1
   24    13    24    1
   25    24    25    1
@<TRIPOS>SUBSTRUCTURE
       1 MOL1            1 RESIDUE      1      MOL     
@<SCITEGIC>MOL_PROPERTY
VConf Rank
SciTegic.value.IntegerValue
624

@<SCITEGIC>MOL_PROPERTY
Conf_Id
SciTegic.value.IntegerValue
161

@<SCITEGIC>MOL_PROPERTY
Delta U+W
SciTegic.value.DoubleValue
2.120

@<SCITEGIC>MOL_PROPERTY
U+W
SciTegic.value.DoubleValue
13.033

@<SCITEGIC>MOL_PROPERTY
Grad RMS
SciTegic.value.DoubleValue
0.000000

@<SCITEGIC>MOL_PROPERTY
U
SciTegic.value.DoubleValue
15.076

@<SCITEGIC>MOL_PROPERTY
W
SciTegic.value.DoubleValue
-2.043

@<SCITEGIC>MOL_PROPERTY
W(PB)
SciTegic.value.DoubleValue
-4.186

@<SCITEGIC>MOL_PROPERTY
W(SA)
SciTegic.value.DoubleValue
2.143

@<SCITEGIC>MOL_PROPERTY
Valence
SciTegic.value.DoubleValue
18.884

@<SCITEGIC>MOL_PROPERTY
Coulomb
SciTegic.value.DoubleValue
-8.074

@<SCITEGIC>MOL_PROPERTY
VdW
SciTegic.value.DoubleValue
4.266

@<SCITEGIC>MOL_PROPERTY
VdW6
SciTegic.value.DoubleValue
-13.486

@<SCITEGIC>MOL_PROPERTY
VdW12
SciTegic.value.DoubleValue
17.752

@<SCITEGIC>MOL_PROPERTY
Bond
SciTegic.value.DoubleValue
0.713

@<SCITEGIC>MOL_PROPERTY
Angle
SciTegic.value.DoubleValue
8.955

@<SCITEGIC>MOL_PROPERTY
Pdih
SciTegic.value.DoubleValue
9.215

@<SCITEGIC>MOL_PROPERTY
Idih
SciTegic.value.DoubleValue
0.000

@<SCITEGIC>MOL_PROPERTY
Tether
SciTegic.value.DoubleValue
0.000

@<TRIPOS>MOLECULE
guest-s17_confgen4.mol2 : confsearch ligand conformer 625
          25          25           1
SMALL
USER_CHARGES
 
@<TRIPOS>ATOM
       1    C1      18.649798   18.153817   22.430165 C.3        1 MOL1        -0.1684
       2    H1      17.756254   17.633687   22.058642 H          1 MOL1         0.0833
       3    H2      18.532124   18.166919   23.521135 H          1 MOL1         0.0833
       4    C2      18.624891   19.601130   21.878493 C.3        1 MOL1        -0.1684
       5    H3      19.086261   19.647390   20.882911 H          1 MOL1         0.0833
       6    H4      17.569612   19.863795   21.721764 H          1 MOL1         0.0833
       7    C3      19.220899   20.680074   22.825058 C.3        1 MOL1        -0.1684
       8    H5      18.978129   20.464641   23.874314 H          1 MOL1         0.0833
       9    H6      18.705360   21.622839   22.595680 H          1 MOL1         0.0833
      10    C4      20.738975   20.945904   22.654017 C.3        1 MOL1        -0.1760
      11    H7      21.021109   20.828020   21.600703 H          1 MOL1         0.0833
      12    H8      20.919237   22.005572   22.878171 H          1 MOL1         0.0833
      13    C5      21.684623   20.134244   23.575314 C.3        1 MOL1         0.1219
      14    H9      21.560423   20.509695   24.601172 H          1 MOL1         0.0790
      15    C6      21.463463   18.604337   23.612160 C.3        1 MOL1        -0.1760
      16    H10     22.327979   18.143529   24.108498 H          1 MOL1         0.0833
      17    H11     20.619152   18.382674   24.273799 H          1 MOL1         0.0833
      18    C7      21.269420   17.937975   22.223802 C.3        1 MOL1        -0.1684
      19    H12     22.029476   17.154817   22.098473 H          1 MOL1         0.0833
      20    H13     21.460850   18.648617   21.411741 H          1 MOL1         0.0833
      21    C8      19.876259   17.295011   22.022849 C.3        1 MOL1        -0.1684
      22    H14     19.837334   16.353756   22.587946 H          1 MOL1         0.0833
      23    H15     19.776854   17.012993   20.965794 H          1 MOL1         0.0833
      24    O1      23.020189   20.378916   23.157268 O.3        1 MOL1        -0.5508
      25    H16     23.124273   19.909702   22.304734 H          1 MOL1         0.3780
@<TRIPOS>BOND
    1     1     2    1
    2     1     3    1
    3     1     4    1
    4     4     5    1
    5     4     6    1
    6     4     7    1
    7     7     8    1
    8     7     9    1
    9     7    10    1
   10    10    11    1
   11    10    12    1
   12    10    13    1
   13    13    14    1
   14    13    15    1
   15    15    16    1
   16    15    17    1
   17    15    18    1
   18    18    19    1
   19    18    20    1
   20     1    21    1
   21    18    21    1
   22    21    22    1
   23    21    23    1
   24    13    24    1
   25    24    25    1
@<TRIPOS>SUBSTRUCTURE
       1 MOL1            1 RESIDUE      1      MOL     
@<SCITEGIC>MOL_PROPERTY
VConf Rank
SciTegic.value.IntegerValue
625

@<SCITEGIC>MOL_PROPERTY
Conf_Id
SciTegic.value.IntegerValue
164

@<SCITEGIC>MOL_PROPERTY
Delta U+W
SciTegic.value.DoubleValue
0.008

@<SCITEGIC>MOL_PROPERTY
U+W
SciTegic.value.DoubleValue
10.922

@<SCITEGIC>MOL_PROPERTY
Grad RMS
SciTegic.value.DoubleValue
0.000000

@<SCITEGIC>MOL_PROPERTY
U
SciTegic.value.DoubleValue
12.433

@<SCITEGIC>MOL_PROPERTY
W
SciTegic.value.DoubleValue
-1.511

@<SCITEGIC>MOL_PROPERTY
W(PB)
SciTegic.value.DoubleValue
-3.669

@<SCITEGIC>MOL_PROPERTY
W(SA)
SciTegic.value.DoubleValue
2.157

@<SCITEGIC>MOL_PROPERTY
Valence
SciTegic.value.DoubleValue
19.007

@<SCITEGIC>MOL_PROPERTY
Coulomb
SciTegic.value.DoubleValue
-9.373

@<SCITEGIC>MOL_PROPERTY
VdW
SciTegic.value.DoubleValue
2.799

@<SCITEGIC>MOL_PROPERTY
VdW6
SciTegic.value.DoubleValue
-12.597

@<SCITEGIC>MOL_PROPERTY
VdW12
SciTegic.value.DoubleValue
15.396

@<SCITEGIC>MOL_PROPERTY
Bond
SciTegic.value.DoubleValue
0.425

@<SCITEGIC>MOL_PROPERTY
Angle
SciTegic.value.DoubleValue
4.784

@<SCITEGIC>MOL_PROPERTY
Pdih
SciTegic.value.DoubleValue
13.799

@<SCITEGIC>MOL_PROPERTY
Idih
SciTegic.value.DoubleValue
0.000

@<SCITEGIC>MOL_PROPERTY
Tether
SciTegic.value.DoubleValue
0.000

@<TRIPOS>MOLECULE
guest-s17_confgen4.mol2 : confsearch ligand conformer 626
          25          25           1
SMALL
USER_CHARGES
 
@<TRIPOS>ATOM
       1    C1      20.052977   18.249331   21.115383 C.3        1 MOL1        -0.1684
       2    H1      20.911962   18.895554   20.902163 H          1 MOL1         0.0833
       3    H2      19.904769   17.673152   20.191952 H          1 MOL1         0.0833
       4    C2      18.777609   19.100543   21.335824 C.3        1 MOL1        -0.1684
       5    H3      18.600896   19.672698   20.414785 H          1 MOL1         0.0833
       6    H4      17.910718   18.434462   21.442326 H          1 MOL1         0.0833
       7    C3      18.791510   20.101113   22.519643 C.3        1 MOL1        -0.1684
       8    H5      18.533550   19.593335   23.455955 H          1 MOL1         0.0833
       9    H6      17.967562   20.808962   22.355128 H          1 MOL1         0.0833
      10    C4      20.103175   20.914158   22.684779 C.3        1 MOL1        -0.1760
      11    H7      20.643141   20.985818   21.732895 H          1 MOL1         0.0833
      12    H8      19.818606   21.944922   22.935346 H          1 MOL1         0.0833
      13    C5      21.040717   20.416791   23.813546 C.3        1 MOL1         0.1219
      14    H9      20.456040   20.356288   24.742573 H          1 MOL1         0.0790
      15    C6      21.731065   19.048244   23.587764 C.3        1 MOL1        -0.1760
      16    H10     22.324583   19.058538   22.665588 H          1 MOL1         0.0833
      17    H11     22.458928   18.918531   24.399940 H          1 MOL1         0.0833
      18    C7      20.779001   17.823019   23.622080 C.3        1 MOL1        -0.1684
      19    H12     19.877578   18.052780   24.201484 H          1 MOL1         0.0833
      20    H13     21.272293   17.021034   24.188198 H          1 MOL1         0.0833
      21    C8      20.401697   17.238988   22.236686 C.3        1 MOL1        -0.1684
      22    H14     19.568637   16.534129   22.361952 H          1 MOL1         0.0833
      23    H15     21.249909   16.636360   21.884156 H          1 MOL1         0.0833
      24    O1      22.061010   21.390605   23.986429 O.3        1 MOL1        -0.5508
      25    H16     22.560705   21.419453   23.144848 H          1 MOL1         0.3780
@<TRIPOS>BOND
    1     1     2    1
    2     1     3    1
    3     1     4    1
    4     4     5    1
    5     4     6    1
    6     4     7    1
    7     7     8    1
    8     7     9    1
    9     7    10    1
   10    10    11    1
   11    10    12    1
   12    10    13    1
   13    13    14    1
   14    13    15    1
   15    15    16    1
   16    15    17    1
   17    15    18    1
   18    18    19    1
   19    18    20    1
   20     1    21    1
   21    18    21    1
   22    21    22    1
   23    21    23    1
   24    13    24    1
   25    24    25    1
@<TRIPOS>SUBSTRUCTURE
       1 MOL1            1 RESIDUE      1      MOL     
@<SCITEGIC>MOL_PROPERTY
VConf Rank
SciTegic.value.IntegerValue
626

@<SCITEGIC>MOL_PROPERTY
Conf_Id
SciTegic.value.IntegerValue
15

@<SCITEGIC>MOL_PROPERTY
Delta U+W
SciTegic.value.DoubleValue
-1.271

@<SCITEGIC>MOL_PROPERTY
U+W
SciTegic.value.DoubleValue
9.643

@<SCITEGIC>MOL_PROPERTY
Grad RMS
SciTegic.value.DoubleValue
0.000000

@<SCITEGIC>MOL_PROPERTY
U
SciTegic.value.DoubleValue
11.413

@<SCITEGIC>MOL_PROPERTY
W
SciTegic.value.DoubleValue
-1.770

@<SCITEGIC>MOL_PROPERTY
W(PB)
SciTegic.value.DoubleValue
-3.908

@<SCITEGIC>MOL_PROPERTY
W(SA)
SciTegic.value.DoubleValue
2.138

@<SCITEGIC>MOL_PROPERTY
Valence
SciTegic.value.DoubleValue
17.496

@<SCITEGIC>MOL_PROPERTY
Coulomb
SciTegic.value.DoubleValue
-8.736

@<SCITEGIC>MOL_PROPERTY
VdW
SciTegic.value.DoubleValue
2.653

@<SCITEGIC>MOL_PROPERTY
VdW6
SciTegic.value.DoubleValue
-12.485

@<SCITEGIC>MOL_PROPERTY
VdW12
SciTegic.value.DoubleValue
15.138

@<SCITEGIC>MOL_PROPERTY
Bond
SciTegic.value.DoubleValue
0.414

@<SCITEGIC>MOL_PROPERTY
Angle
SciTegic.value.DoubleValue
5.295

@<SCITEGIC>MOL_PROPERTY
Pdih
SciTegic.value.DoubleValue
11.787

@<SCITEGIC>MOL_PROPERTY
Idih
SciTegic.value.DoubleValue
0.000

@<SCITEGIC>MOL_PROPERTY
Tether
SciTegic.value.DoubleValue
0.000

@<TRIPOS>MOLECULE
guest-s17_confgen4.mol2 : confsearch ligand conformer 627
          25          25           1
SMALL
USER_CHARGES
 
@<TRIPOS>ATOM
       1    C1      22.174313   19.603946   23.050684 C.3        1 MOL1        -0.1684
       2    H1      23.262480   19.747069   23.099565 H          1 MOL1         0.0833
       3    H2      21.863469   19.464725   24.093832 H          1 MOL1         0.0833
       4    C2      21.571269   20.910014   22.469866 C.3        1 MOL1        -0.1684
       5    H3      21.730689   21.713841   23.201489 H          1 MOL1         0.0833
       6    H4      22.143842   21.200063   21.578347 H          1 MOL1         0.0833
       7    C3      20.070788   20.873909   22.092260 C.3        1 MOL1        -0.1684
       8    H5      19.947332   20.367358   21.127929 H          1 MOL1         0.0833
       9    H6      19.739933   21.905708   21.911394 H          1 MOL1         0.0833
      10    C4      19.159346   20.241061   23.175879 C.3        1 MOL1        -0.1760
      11    H7      19.716625   20.067709   24.103122 H          1 MOL1         0.0833
      12    H8      18.383365   20.969453   23.445130 H          1 MOL1         0.0833
      13    C5      18.446193   18.942082   22.735045 C.3        1 MOL1         0.1219
      14    H9      17.643991   19.223611   22.037878 H          1 MOL1         0.0790
      15    C6      19.320448   17.880014   22.019385 C.3        1 MOL1        -0.1760
      16    H10     18.711679   16.970033   21.931818 H          1 MOL1         0.0833
      17    H11     19.507188   18.184636   20.982637 H          1 MOL1         0.0833
      18    C7      20.660557   17.496293   22.701959 C.3        1 MOL1        -0.1684
      19    H12     20.859173   16.447527   22.441604 H          1 MOL1         0.0833
      20    H13     20.566851   17.509099   23.795516 H          1 MOL1         0.0833
      21    C8      21.897841   18.314098   22.239247 C.3        1 MOL1        -0.1684
      22    H14     21.850835   18.531869   21.163816 H          1 MOL1         0.0833
      23    H15     22.774407   17.663885   22.365857 H          1 MOL1         0.0833
      24    O1      17.862330   18.344761   23.884270 O.3        1 MOL1        -0.5508
      25    H16     18.609694   18.025782   24.429104 H          1 MOL1         0.3780
@<TRIPOS>BOND
    1     1     2    1
    2     1     3    1
    3     1     4    1
    4     4     5    1
    5     4     6    1
    6     4     7    1
    7     7     8    1
    8     7     9    1
    9     7    10    1
   10    10    11    1
   11    10    12    1
   12    10    13    1
   13    13    14    1
   14    13    15    1
   15    15    16    1
   16    15    17    1
   17    15    18    1
   18    18    19    1
   19    18    20    1
   20     1    21    1
   21    18    21    1
   22    21    22    1
   23    21    23    1
   24    13    24    1
   25    24    25    1
@<TRIPOS>SUBSTRUCTURE
       1 MOL1            1 RESIDUE      1      MOL     
@<SCITEGIC>MOL_PROPERTY
VConf Rank
SciTegic.value.IntegerValue
627

@<SCITEGIC>MOL_PROPERTY
Conf_Id
SciTegic.value.IntegerValue
115

@<SCITEGIC>MOL_PROPERTY
Delta U+W
SciTegic.value.DoubleValue
0.038

@<SCITEGIC>MOL_PROPERTY
U+W
SciTegic.value.DoubleValue
10.952

@<SCITEGIC>MOL_PROPERTY
Grad RMS
SciTegic.value.DoubleValue
0.000000

@<SCITEGIC>MOL_PROPERTY
U
SciTegic.value.DoubleValue
12.526

@<SCITEGIC>MOL_PROPERTY
W
SciTegic.value.DoubleValue
-1.575

@<SCITEGIC>MOL_PROPERTY
W(PB)
SciTegic.value.DoubleValue
-3.698

@<SCITEGIC>MOL_PROPERTY
W(SA)
SciTegic.value.DoubleValue
2.123

@<SCITEGIC>MOL_PROPERTY
Valence
SciTegic.value.DoubleValue
19.016

@<SCITEGIC>MOL_PROPERTY
Coulomb
SciTegic.value.DoubleValue
-9.226

@<SCITEGIC>MOL_PROPERTY
VdW
SciTegic.value.DoubleValue
2.737

@<SCITEGIC>MOL_PROPERTY
VdW6
SciTegic.value.DoubleValue
-12.612

@<SCITEGIC>MOL_PROPERTY
VdW12
SciTegic.value.DoubleValue
15.349

@<SCITEGIC>MOL_PROPERTY
Bond
SciTegic.value.DoubleValue
0.421

@<SCITEGIC>MOL_PROPERTY
Angle
SciTegic.value.DoubleValue
4.883

@<SCITEGIC>MOL_PROPERTY
Pdih
SciTegic.value.DoubleValue
13.711

@<SCITEGIC>MOL_PROPERTY
Idih
SciTegic.value.DoubleValue
0.000

@<SCITEGIC>MOL_PROPERTY
Tether
SciTegic.value.DoubleValue
0.000

@<TRIPOS>MOLECULE
guest-s17_confgen4.mol2 : confsearch ligand conformer 628
          25          25           1
SMALL
USER_CHARGES
 
@<TRIPOS>ATOM
       1    C1      21.765203   18.280734   23.917955 C.3        1 MOL1        -0.1684
       2    H1      22.371935   18.186340   24.828973 H          1 MOL1         0.0833
       3    H2      21.839093   17.307947   23.413277 H          1 MOL1         0.0833
       4    C2      22.412049   19.381896   23.045849 C.3        1 MOL1        -0.1684
       5    H3      22.448289   20.329425   23.600349 H          1 MOL1         0.0833
       6    H4      23.460053   19.096589   22.880664 H          1 MOL1         0.0833
       7    C3      21.753787   19.596940   21.663336 C.3        1 MOL1        -0.1684
       8    H5      21.502281   18.630588   21.206295 H          1 MOL1         0.0833
       9    H6      22.511648   20.042442   21.004293 H          1 MOL1         0.0833
      10    C4      20.530668   20.552790   21.679803 C.3        1 MOL1        -0.1760
      11    H7      20.471422   21.108338   22.624083 H          1 MOL1         0.0833
      12    H8      20.698276   21.312183   20.904051 H          1 MOL1         0.0833
      13    C5      19.178392   19.865100   21.385888 C.3        1 MOL1         0.1219
      14    H9      19.337177   19.071206   20.642121 H          1 MOL1         0.0790
      15    C6      18.480536   19.260324   22.624306 C.3        1 MOL1        -0.1760
      16    H10     18.258339   20.051420   23.352581 H          1 MOL1         0.0833
      17    H11     17.506564   18.872010   22.298726 H          1 MOL1         0.0833
      18    C7      19.238766   18.099743   23.313367 C.3        1 MOL1        -0.1684
      19    H12     19.670191   17.425001   22.561950 H          1 MOL1         0.0833
      20    H13     18.494267   17.497099   23.851671 H          1 MOL1         0.0833
      21    C8      20.303857   18.551401   24.346610 C.3        1 MOL1        -0.1684
      22    H14     20.124919   17.985427   25.271195 H          1 MOL1         0.0833
      23    H15     20.174627   19.606323   24.622775 H          1 MOL1         0.0833
      24    O1      18.300373   20.838612   20.833615 O.3        1 MOL1        -0.5508
      25    H16     17.469131   20.372880   20.604565 H          1 MOL1         0.3780
@<TRIPOS>BOND
    1     1     2    1
    2     1     3    1
    3     1     4    1
    4     4     5    1
    5     4     6    1
    6     4     7    1
    7     7     8    1
    8     7     9    1
    9     7    10    1
   10    10    11    1
   11    10    12    1
   12    10    13    1
   13    13    14    1
   14    13    15    1
   15    15    16    1
   16    15    17    1
   17    15    18    1
   18    18    19    1
   19    18    20    1
   20     1    21    1
   21    18    21    1
   22    21    22    1
   23    21    23    1
   24    13    24    1
   25    24    25    1
@<TRIPOS>SUBSTRUCTURE
       1 MOL1            1 RESIDUE      1      MOL     
@<SCITEGIC>MOL_PROPERTY
VConf Rank
SciTegic.value.IntegerValue
628

@<SCITEGIC>MOL_PROPERTY
Conf_Id
SciTegic.value.IntegerValue
30

@<SCITEGIC>MOL_PROPERTY
Delta U+W
SciTegic.value.DoubleValue
0.000

@<SCITEGIC>MOL_PROPERTY
U+W
SciTegic.value.DoubleValue
10.913

@<SCITEGIC>MOL_PROPERTY
Grad RMS
SciTegic.value.DoubleValue
0.000000

@<SCITEGIC>MOL_PROPERTY
U
SciTegic.value.DoubleValue
13.140

@<SCITEGIC>MOL_PROPERTY
W
SciTegic.value.DoubleValue
-2.227

@<SCITEGIC>MOL_PROPERTY
W(PB)
SciTegic.value.DoubleValue
-4.367

@<SCITEGIC>MOL_PROPERTY
W(SA)
SciTegic.value.DoubleValue
2.140

@<SCITEGIC>MOL_PROPERTY
Valence
SciTegic.value.DoubleValue
19.155

@<SCITEGIC>MOL_PROPERTY
Coulomb
SciTegic.value.DoubleValue
-8.157

@<SCITEGIC>MOL_PROPERTY
VdW
SciTegic.value.DoubleValue
2.142

@<SCITEGIC>MOL_PROPERTY
VdW6
SciTegic.value.DoubleValue
-11.576

@<SCITEGIC>MOL_PROPERTY
VdW12
SciTegic.value.DoubleValue
13.718

@<SCITEGIC>MOL_PROPERTY
Bond
SciTegic.value.DoubleValue
0.294

@<SCITEGIC>MOL_PROPERTY
Angle
SciTegic.value.DoubleValue
3.547

@<SCITEGIC>MOL_PROPERTY
Pdih
SciTegic.value.DoubleValue
15.314

@<SCITEGIC>MOL_PROPERTY
Idih
SciTegic.value.DoubleValue
0.000

@<SCITEGIC>MOL_PROPERTY
Tether
SciTegic.value.DoubleValue
0.000

@<TRIPOS>MOLECULE
guest-s17_confgen4.mol2 : confsearch ligand conformer 629
          25          25           1
SMALL
USER_CHARGES
 
@<TRIPOS>ATOM
       1    C1      19.905527   17.471613   21.525418 C.3        1 MOL1        -0.1684
       2    H1      19.138283   17.208017   20.784669 H          1 MOL1         0.0833
       3    H2      20.496054   16.558102   21.678871 H          1 MOL1         0.0833
       4    C2      19.200677   17.822958   22.858770 C.3        1 MOL1        -0.1684
       5    H3      18.415821   17.074510   23.033973 H          1 MOL1         0.0833
       6    H4      19.900812   17.689806   23.691618 H          1 MOL1         0.0833
       7    C3      18.556497   19.232142   22.890963 C.3        1 MOL1        -0.1684
       8    H5      17.492913   19.128116   23.145234 H          1 MOL1         0.0833
       9    H6      18.562367   19.690353   21.895149 H          1 MOL1         0.0833
      10    C4      19.202659   20.199365   23.914931 C.3        1 MOL1        -0.1760
      11    H7      18.812365   21.209288   23.731940 H          1 MOL1         0.0833
      12    H8      18.859357   19.921195   24.919885 H          1 MOL1         0.0833
      13    C5      20.750643   20.253893   23.945727 C.3        1 MOL1         0.1219
      14    H9      21.136712   19.320940   24.377627 H          1 MOL1         0.0790
      15    C6      21.427973   20.480561   22.571994 C.3        1 MOL1        -0.1760
      16    H10     20.784581   21.091118   21.925605 H          1 MOL1         0.0833
      17    H11     22.332401   21.082409   22.732573 H          1 MOL1         0.0833
      18    C7      21.877762   19.184034   21.840928 C.3        1 MOL1        -0.1684
      19    H12     22.255722   18.437092   22.552015 H          1 MOL1         0.0833
      20    H13     22.740154   19.453395   21.215659 H          1 MOL1         0.0833
      21    C8      20.818079   18.559771   20.899563 C.3        1 MOL1        -0.1684
      22    H14     21.348254   18.088168   20.060771 H          1 MOL1         0.0833
      23    H15     20.214257   19.351287   20.437793 H          1 MOL1         0.0833
      24    O1      21.116056   21.324256   24.808868 O.3        1 MOL1        -0.5508
      25    H16     22.092712   21.302910   24.887231 H          1 MOL1         0.3780
@<TRIPOS>BOND
    1     1     2    1
    2     1     3    1
    3     1     4    1
    4     4     5    1
    5     4     6    1
    6     4     7    1
    7     7     8    1
    8     7     9    1
    9     7    10    1
   10    10    11    1
   11    10    12    1
   12    10    13    1
   13    13    14    1
   14    13    15    1
   15    15    16    1
   16    15    17    1
   17    15    18    1
   18    18    19    1
   19    18    20    1
   20     1    21    1
   21    18    21    1
   22    21    22    1
   23    21    23    1
   24    13    24    1
   25    24    25    1
@<TRIPOS>SUBSTRUCTURE
       1 MOL1            1 RESIDUE      1      MOL     
@<SCITEGIC>MOL_PROPERTY
VConf Rank
SciTegic.value.IntegerValue
629

@<SCITEGIC>MOL_PROPERTY
Conf_Id
SciTegic.value.IntegerValue
162

@<SCITEGIC>MOL_PROPERTY
Delta U+W
SciTegic.value.DoubleValue
0.219

@<SCITEGIC>MOL_PROPERTY
U+W
SciTegic.value.DoubleValue
11.132

@<SCITEGIC>MOL_PROPERTY
Grad RMS
SciTegic.value.DoubleValue
0.000000

@<SCITEGIC>MOL_PROPERTY
U
SciTegic.value.DoubleValue
13.296

@<SCITEGIC>MOL_PROPERTY
W
SciTegic.value.DoubleValue
-2.164

@<SCITEGIC>MOL_PROPERTY
W(PB)
SciTegic.value.DoubleValue
-4.311

@<SCITEGIC>MOL_PROPERTY
W(SA)
SciTegic.value.DoubleValue
2.148

@<SCITEGIC>MOL_PROPERTY
Valence
SciTegic.value.DoubleValue
18.607

@<SCITEGIC>MOL_PROPERTY
Coulomb
SciTegic.value.DoubleValue
-8.339

@<SCITEGIC>MOL_PROPERTY
VdW
SciTegic.value.DoubleValue
3.028

@<SCITEGIC>MOL_PROPERTY
VdW6
SciTegic.value.DoubleValue
-12.271

@<SCITEGIC>MOL_PROPERTY
VdW12
SciTegic.value.DoubleValue
15.299

@<SCITEGIC>MOL_PROPERTY
Bond
SciTegic.value.DoubleValue
0.423

@<SCITEGIC>MOL_PROPERTY
Angle
SciTegic.value.DoubleValue
4.488

@<SCITEGIC>MOL_PROPERTY
Pdih
SciTegic.value.DoubleValue
13.696

@<SCITEGIC>MOL_PROPERTY
Idih
SciTegic.value.DoubleValue
0.000

@<SCITEGIC>MOL_PROPERTY
Tether
SciTegic.value.DoubleValue
0.000

@<TRIPOS>MOLECULE
guest-s17_confgen4.mol2 : confsearch ligand conformer 630
          25          25           1
SMALL
USER_CHARGES
 
@<TRIPOS>ATOM
       1    C1      21.945629   19.384725   21.467737 C.3        1 MOL1        -0.1684
       2    H1      22.522255   18.863750   22.242515 H          1 MOL1         0.0833
       3    H2      22.656864   19.536355   20.644257 H          1 MOL1         0.0833
       4    C2      20.805811   18.470753   20.952788 C.3        1 MOL1        -0.1684
       5    H3      20.022392   19.063629   20.461887 H          1 MOL1         0.0833
       6    H4      21.234820   17.842859   20.159794 H          1 MOL1         0.0833
       7    C3      20.200506   17.507341   22.011564 C.3        1 MOL1        -0.1684
       8    H5      20.974765   17.128659   22.692217 H          1 MOL1         0.0833
       9    H6      19.836566   16.625462   21.466616 H          1 MOL1         0.0833
      10    C4      18.994791   18.071895   22.807000 C.3        1 MOL1        -0.1760
      11    H7      18.403211   18.738155   22.167135 H          1 MOL1         0.0833
      12    H8      18.324279   17.234138   23.038925 H          1 MOL1         0.0833
      13    C5      19.322241   18.761151   24.155713 C.3        1 MOL1         0.1219
      14    H9      19.635152   17.981299   24.864944 H          1 MOL1         0.0790
      15    C6      20.440384   19.830203   24.125055 C.3        1 MOL1        -0.1760
      16    H10     20.424649   20.379759   25.075181 H          1 MOL1         0.0833
      17    H11     21.413214   19.327092   24.117451 H          1 MOL1         0.0833
      18    C7      20.334540   20.848017   22.958725 C.3        1 MOL1        -0.1684
      19    H12     20.286394   21.861991   23.378129 H          1 MOL1         0.0833
      20    H13     19.389478   20.725300   22.416593 H          1 MOL1         0.0833
      21    C8      21.515524   20.792215   21.959753 C.3        1 MOL1        -0.1684
      22    H14     22.388753   21.274788   22.419462 H          1 MOL1         0.0833
      23    H15     21.257645   21.409380   21.088364 H          1 MOL1         0.0833
      24    O1      18.128015   19.368155   24.634745 O.3        1 MOL1        -0.5508
      25    H16     18.352832   19.800249   25.484374 H          1 MOL1         0.3780
@<TRIPOS>BOND
    1     1     2    1
    2     1     3    1
    3     1     4    1
    4     4     5    1
    5     4     6    1
    6     4     7    1
    7     7     8    1
    8     7     9    1
    9     7    10    1
   10    10    11    1
   11    10    12    1
   12    10    13    1
   13    13    14    1
   14    13    15    1
   15    15    16    1
   16    15    17    1
   17    15    18    1
   18    18    19    1
   19    18    20    1
   20     1    21    1
   21    18    21    1
   22    21    22    1
   23    21    23    1
   24    13    24    1
   25    24    25    1
@<TRIPOS>SUBSTRUCTURE
       1 MOL1            1 RESIDUE      1      MOL     
@<SCITEGIC>MOL_PROPERTY
VConf Rank
SciTegic.value.IntegerValue
630

@<SCITEGIC>MOL_PROPERTY
Conf_Id
SciTegic.value.IntegerValue
155

@<SCITEGIC>MOL_PROPERTY
Delta U+W
SciTegic.value.DoubleValue
0.339

@<SCITEGIC>MOL_PROPERTY
U+W
SciTegic.value.DoubleValue
11.252

@<SCITEGIC>MOL_PROPERTY
Grad RMS
SciTegic.value.DoubleValue
0.000000

@<SCITEGIC>MOL_PROPERTY
U
SciTegic.value.DoubleValue
13.420

@<SCITEGIC>MOL_PROPERTY
W
SciTegic.value.DoubleValue
-2.167

@<SCITEGIC>MOL_PROPERTY
W(PB)
SciTegic.value.DoubleValue
-4.325

@<SCITEGIC>MOL_PROPERTY
W(SA)
SciTegic.value.DoubleValue
2.157

@<SCITEGIC>MOL_PROPERTY
Valence
SciTegic.value.DoubleValue
18.609

@<SCITEGIC>MOL_PROPERTY
Coulomb
SciTegic.value.DoubleValue
-8.052

@<SCITEGIC>MOL_PROPERTY
VdW
SciTegic.value.DoubleValue
2.863

@<SCITEGIC>MOL_PROPERTY
VdW6
SciTegic.value.DoubleValue
-12.524

@<SCITEGIC>MOL_PROPERTY
VdW12
SciTegic.value.DoubleValue
15.387

@<SCITEGIC>MOL_PROPERTY
Bond
SciTegic.value.DoubleValue
0.430

@<SCITEGIC>MOL_PROPERTY
Angle
SciTegic.value.DoubleValue
4.724

@<SCITEGIC>MOL_PROPERTY
Pdih
SciTegic.value.DoubleValue
13.455

@<SCITEGIC>MOL_PROPERTY
Idih
SciTegic.value.DoubleValue
0.000

@<SCITEGIC>MOL_PROPERTY
Tether
SciTegic.value.DoubleValue
0.000

@<TRIPOS>MOLECULE
guest-s17_confgen4.mol2 : confsearch ligand conformer 631
          25          25           1
SMALL
USER_CHARGES
 
@<TRIPOS>ATOM
       1    C1      20.760631   21.185515   22.715480 C.3        1 MOL1        -0.1684
       2    H1      21.539863   21.502583   22.009361 H          1 MOL1         0.0833
       3    H2      20.437061   22.103307   23.225128 H          1 MOL1         0.0833
       4    C2      19.537355   20.655147   21.922307 C.3        1 MOL1        -0.1684
       5    H3      18.717490   20.448857   22.617582 H          1 MOL1         0.0833
       6    H4      19.153606   21.483466   21.311291 H          1 MOL1         0.0833
       7    C3      19.767787   19.449552   20.964885 C.3        1 MOL1        -0.1684
       8    H5      20.103341   19.854713   20.000623 H          1 MOL1         0.0833
       9    H6      18.802092   18.967368   20.760795 H          1 MOL1         0.0833
      10    C4      20.798200   18.366284   21.385219 C.3        1 MOL1        -0.1760
      11    H7      20.925243   17.686220   20.532769 H          1 MOL1         0.0833
      12    H8      21.784670   18.827725   21.483720 H          1 MOL1         0.0833
      13    C5      20.478288   17.502140   22.640296 C.3        1 MOL1         0.1219
      14    H9      21.430024   17.115803   23.032357 H          1 MOL1         0.0790
      15    C6      19.723082   18.182669   23.809520 C.3        1 MOL1        -0.1760
      16    H10     18.744481   18.519077   23.454994 H          1 MOL1         0.0833
      17    H11     19.478663   17.402692   24.542678 H          1 MOL1         0.0833
      18    C7      20.453237   19.320551   24.584377 C.3        1 MOL1        -0.1684
      19    H12     21.056540   18.847757   25.371352 H          1 MOL1         0.0833
      20    H13     19.705301   19.926385   25.113414 H          1 MOL1         0.0833
      21    C8      21.400211   20.258157   23.790133 C.3        1 MOL1        -0.1684
      22    H14     22.217412   19.670212   23.360621 H          1 MOL1         0.0833
      23    H15     21.907127   20.908672   24.515906 H          1 MOL1         0.0833
      24    O1      19.682212   16.399780   22.219286 O.3        1 MOL1        -0.5508
      25    H16     20.184807   15.940241   21.515394 H          1 MOL1         0.3780
@<TRIPOS>BOND
    1     1     2    1
    2     1     3    1
    3     1     4    1
    4     4     5    1
    5     4     6    1
    6     4     7    1
    7     7     8    1
    8     7     9    1
    9     7    10    1
   10    10    11    1
   11    10    12    1
   12    10    13    1
   13    13    14    1
   14    13    15    1
   15    15    16    1
   16    15    17    1
   17    15    18    1
   18    18    19    1
   19    18    20    1
   20     1    21    1
   21    18    21    1
   22    21    22    1
   23    21    23    1
   24    13    24    1
   25    24    25    1
@<TRIPOS>SUBSTRUCTURE
       1 MOL1            1 RESIDUE      1      MOL     
@<SCITEGIC>MOL_PROPERTY
VConf Rank
SciTegic.value.IntegerValue
631

@<SCITEGIC>MOL_PROPERTY
Conf_Id
SciTegic.value.IntegerValue
146

@<SCITEGIC>MOL_PROPERTY
Delta U+W
SciTegic.value.DoubleValue
2.553

@<SCITEGIC>MOL_PROPERTY
U+W
SciTegic.value.DoubleValue
13.466

@<SCITEGIC>MOL_PROPERTY
Grad RMS
SciTegic.value.DoubleValue
0.000000

@<SCITEGIC>MOL_PROPERTY
U
SciTegic.value.DoubleValue
15.643

@<SCITEGIC>MOL_PROPERTY
W
SciTegic.value.DoubleValue
-2.176

@<SCITEGIC>MOL_PROPERTY
W(PB)
SciTegic.value.DoubleValue
-4.307

@<SCITEGIC>MOL_PROPERTY
W(SA)
SciTegic.value.DoubleValue
2.131

@<SCITEGIC>MOL_PROPERTY
Valence
SciTegic.value.DoubleValue
18.916

@<SCITEGIC>MOL_PROPERTY
Coulomb
SciTegic.value.DoubleValue
-7.506

@<SCITEGIC>MOL_PROPERTY
VdW
SciTegic.value.DoubleValue
4.232

@<SCITEGIC>MOL_PROPERTY
VdW6
SciTegic.value.DoubleValue
-13.632

@<SCITEGIC>MOL_PROPERTY
VdW12
SciTegic.value.DoubleValue
17.864

@<SCITEGIC>MOL_PROPERTY
Bond
SciTegic.value.DoubleValue
0.735

@<SCITEGIC>MOL_PROPERTY
Angle
SciTegic.value.DoubleValue
9.140

@<SCITEGIC>MOL_PROPERTY
Pdih
SciTegic.value.DoubleValue
9.042

@<SCITEGIC>MOL_PROPERTY
Idih
SciTegic.value.DoubleValue
0.000

@<SCITEGIC>MOL_PROPERTY
Tether
SciTegic.value.DoubleValue
0.000

@<TRIPOS>MOLECULE
guest-s17_confgen4.mol2 : confsearch ligand conformer 632
          25          25           1
SMALL
USER_CHARGES
 
@<TRIPOS>ATOM
       1    C1      21.667217   17.708589   22.967472 C.3        1 MOL1        -0.1684
       2    H1      22.753993   17.866999   22.985582 H          1 MOL1         0.0833
       3    H2      21.521979   16.632529   23.134549 H          1 MOL1         0.0833
       4    C2      21.126590   18.033863   21.552530 C.3        1 MOL1        -0.1684
       5    H3      21.619285   17.348007   20.849925 H          1 MOL1         0.0833
       6    H4      20.062385   17.781133   21.483669 H          1 MOL1         0.0833
       7    C3      21.377684   19.474468   21.040681 C.3        1 MOL1        -0.1684
       8    H5      21.047117   19.515709   19.993778 H          1 MOL1         0.0833
       9    H6      22.458455   19.669228   21.019570 H          1 MOL1         0.0833
      10    C4      20.673524   20.625234   21.805927 C.3        1 MOL1        -0.1760
      11    H7      21.243366   20.890676   22.701969 H          1 MOL1         0.0833
      12    H8      20.731414   21.518700   21.169608 H          1 MOL1         0.0833
      13    C5      19.190625   20.360665   22.173472 C.3        1 MOL1         0.1219
      14    H9      18.788102   19.566023   21.531006 H          1 MOL1         0.0790
      15    C6      18.963457   19.983639   23.659409 C.3        1 MOL1        -0.1760
      16    H10     19.396183   20.763857   24.299510 H          1 MOL1         0.0833
      17    H11     17.883104   20.006310   23.853481 H          1 MOL1         0.0833
      18    C7      19.485529   18.595184   24.119015 C.3        1 MOL1        -0.1684
      19    H12     19.037234   17.792273   23.519712 H          1 MOL1         0.0833
      20    H13     19.111439   18.433905   25.139323 H          1 MOL1         0.0833
      21    C8      21.029842   18.462427   24.163253 C.3        1 MOL1        -0.1684
      22    H14     21.299095   17.909123   25.073416 H          1 MOL1         0.0833
      23    H15     21.497073   19.445007   24.293844 H          1 MOL1         0.0833
      24    O1      18.453596   21.551795   21.921782 O.3        1 MOL1        -0.5508
      25    H16     17.512811   21.346552   22.103493 H          1 MOL1         0.3780
@<TRIPOS>BOND
    1     1     2    1
    2     1     3    1
    3     1     4    1
    4     4     5    1
    5     4     6    1
    6     4     7    1
    7     7     8    1
    8     7     9    1
    9     7    10    1
   10    10    11    1
   11    10    12    1
   12    10    13    1
   13    13    14    1
   14    13    15    1
   15    15    16    1
   16    15    17    1
   17    15    18    1
   18    18    19    1
   19    18    20    1
   20     1    21    1
   21    18    21    1
   22    21    22    1
   23    21    23    1
   24    13    24    1
   25    24    25    1
@<TRIPOS>SUBSTRUCTURE
       1 MOL1            1 RESIDUE      1      MOL     
@<SCITEGIC>MOL_PROPERTY
VConf Rank
SciTegic.value.IntegerValue
632

@<SCITEGIC>MOL_PROPERTY
Conf_Id
SciTegic.value.IntegerValue
62

@<SCITEGIC>MOL_PROPERTY
Delta U+W
SciTegic.value.DoubleValue
-1.779

@<SCITEGIC>MOL_PROPERTY
U+W
SciTegic.value.DoubleValue
9.134

@<SCITEGIC>MOL_PROPERTY
Grad RMS
SciTegic.value.DoubleValue
0.000000

@<SCITEGIC>MOL_PROPERTY
U
SciTegic.value.DoubleValue
11.364

@<SCITEGIC>MOL_PROPERTY
W
SciTegic.value.DoubleValue
-2.230

@<SCITEGIC>MOL_PROPERTY
W(PB)
SciTegic.value.DoubleValue
-4.359

@<SCITEGIC>MOL_PROPERTY
W(SA)
SciTegic.value.DoubleValue
2.129

@<SCITEGIC>MOL_PROPERTY
Valence
SciTegic.value.DoubleValue
16.582

@<SCITEGIC>MOL_PROPERTY
Coulomb
SciTegic.value.DoubleValue
-8.150

@<SCITEGIC>MOL_PROPERTY
VdW
SciTegic.value.DoubleValue
2.933

@<SCITEGIC>MOL_PROPERTY
VdW6
SciTegic.value.DoubleValue
-12.531

@<SCITEGIC>MOL_PROPERTY
VdW12
SciTegic.value.DoubleValue
15.464

@<SCITEGIC>MOL_PROPERTY
Bond
SciTegic.value.DoubleValue
0.439

@<SCITEGIC>MOL_PROPERTY
Angle
SciTegic.value.DoubleValue
5.099

@<SCITEGIC>MOL_PROPERTY
Pdih
SciTegic.value.DoubleValue
11.044

@<SCITEGIC>MOL_PROPERTY
Idih
SciTegic.value.DoubleValue
0.000

@<SCITEGIC>MOL_PROPERTY
Tether
SciTegic.value.DoubleValue
0.000

@<TRIPOS>MOLECULE
guest-s17_confgen4.mol2 : confsearch ligand conformer 633
          25          25           1
SMALL
USER_CHARGES
 
@<TRIPOS>ATOM
       1    C1      19.991897   20.527654   23.924532 C.3        1 MOL1        -0.1684
       2    H1      20.897563   20.882280   23.419425 H          1 MOL1         0.0833
       3    H2      19.776203   21.297287   24.678044 H          1 MOL1         0.0833
       4    C2      20.278297   19.208039   24.683640 C.3        1 MOL1        -0.1684
       5    H3      21.065839   19.416852   25.420568 H          1 MOL1         0.0833
       6    H4      19.392079   18.925966   25.268062 H          1 MOL1         0.0833
       7    C3      20.731559   17.990588   23.838012 C.3        1 MOL1        -0.1684
       8    H5      19.864576   17.477907   23.406166 H          1 MOL1         0.0833
       9    H6      21.165813   17.258120   24.532231 H          1 MOL1         0.0833
      10    C4      21.783714   18.300818   22.739813 C.3        1 MOL1        -0.1760
      11    H7      22.353513   19.205861   22.983695 H          1 MOL1         0.0833
      12    H8      22.517595   17.484389   22.754181 H          1 MOL1         0.0833
      13    C5      21.217813   18.387211   21.299783 C.3        1 MOL1         0.1219
      14    H9      20.648940   17.468308   21.097344 H          1 MOL1         0.0790
      15    C6      20.301955   19.597962   20.991247 C.3        1 MOL1        -0.1760
      16    H10     20.831097   20.539180   21.183358 H          1 MOL1         0.0833
      17    H11     20.113620   19.588854   19.909463 H          1 MOL1         0.0833
      18    C7      18.922111   19.574940   21.701929 C.3        1 MOL1        -0.1684
      19    H12     18.640645   18.548087   21.961343 H          1 MOL1         0.0833
      20    H13     18.158946   19.894549   20.979171 H          1 MOL1         0.0833
      21    C8      18.798004   20.502421   22.937768 C.3        1 MOL1        -0.1684
      22    H14     17.880342   20.246878   23.484648 H          1 MOL1         0.0833
      23    H15     18.650781   21.528437   22.573765 H          1 MOL1         0.0833
      24    O1      22.321743   18.447183   20.405261 O.3        1 MOL1        -0.5508
      25    H16     22.857549   17.641961   20.562351 H          1 MOL1         0.3780
@<TRIPOS>BOND
    1     1     2    1
    2     1     3    1
    3     1     4    1
    4     4     5    1
    5     4     6    1
    6     4     7    1
    7     7     8    1
    8     7     9    1
    9     7    10    1
   10    10    11    1
   11    10    12    1
   12    10    13    1
   13    13    14    1
   14    13    15    1
   15    15    16    1
   16    15    17    1
   17    15    18    1
   18    18    19    1
   19    18    20    1
   20     1    21    1
   21    18    21    1
   22    21    22    1
   23    21    23    1
   24    13    24    1
   25    24    25    1
@<TRIPOS>SUBSTRUCTURE
       1 MOL1            1 RESIDUE      1      MOL     
@<SCITEGIC>MOL_PROPERTY
VConf Rank
SciTegic.value.IntegerValue
633

@<SCITEGIC>MOL_PROPERTY
Conf_Id
SciTegic.value.IntegerValue
121

@<SCITEGIC>MOL_PROPERTY
Delta U+W
SciTegic.value.DoubleValue
-1.283

@<SCITEGIC>MOL_PROPERTY
U+W
SciTegic.value.DoubleValue
9.630

@<SCITEGIC>MOL_PROPERTY
Grad RMS
SciTegic.value.DoubleValue
0.000000

@<SCITEGIC>MOL_PROPERTY
U
SciTegic.value.DoubleValue
11.876

@<SCITEGIC>MOL_PROPERTY
W
SciTegic.value.DoubleValue
-2.246

@<SCITEGIC>MOL_PROPERTY
W(PB)
SciTegic.value.DoubleValue
-4.376

@<SCITEGIC>MOL_PROPERTY
W(SA)
SciTegic.value.DoubleValue
2.130

@<SCITEGIC>MOL_PROPERTY
Valence
SciTegic.value.DoubleValue
17.153

@<SCITEGIC>MOL_PROPERTY
Coulomb
SciTegic.value.DoubleValue
-7.966

@<SCITEGIC>MOL_PROPERTY
VdW
SciTegic.value.DoubleValue
2.689

@<SCITEGIC>MOL_PROPERTY
VdW6
SciTegic.value.DoubleValue
-12.458

@<SCITEGIC>MOL_PROPERTY
VdW12
SciTegic.value.DoubleValue
15.147

@<SCITEGIC>MOL_PROPERTY
Bond
SciTegic.value.DoubleValue
0.421

@<SCITEGIC>MOL_PROPERTY
Angle
SciTegic.value.DoubleValue
5.258

@<SCITEGIC>MOL_PROPERTY
Pdih
SciTegic.value.DoubleValue
11.475

@<SCITEGIC>MOL_PROPERTY
Idih
SciTegic.value.DoubleValue
0.000

@<SCITEGIC>MOL_PROPERTY
Tether
SciTegic.value.DoubleValue
0.000

@<TRIPOS>MOLECULE
guest-s17_confgen4.mol2 : confsearch ligand conformer 634
          25          25           1
SMALL
USER_CHARGES
 
@<TRIPOS>ATOM
       1    C1      20.768185   17.962863   23.945516 C.3        1 MOL1        -0.1684
       2    H1      19.840241   17.597979   23.490649 H          1 MOL1         0.0833
       3    H2      21.033957   17.195420   24.685134 H          1 MOL1         0.0833
       4    C2      20.508528   19.278664   24.720737 C.3        1 MOL1        -0.1684
       5    H3      19.765951   19.059785   25.500195 H          1 MOL1         0.0833
       6    H4      21.422366   19.571560   25.255148 H          1 MOL1         0.0833
       7    C3      19.993355   20.490693   23.903115 C.3        1 MOL1        -0.1684
       8    H5      20.828402   21.016699   23.426711 H          1 MOL1         0.0833
       9    H6      19.585728   21.215788   24.620767 H          1 MOL1         0.0833
      10    C4      18.888880   20.166923   22.861539 C.3        1 MOL1        -0.1760
      11    H7      18.341856   19.256245   23.133972 H          1 MOL1         0.0833
      12    H8      18.146272   20.974410   22.909571 H          1 MOL1         0.0833
      13    C5      19.376109   20.089065   21.393050 C.3        1 MOL1         0.1219
      14    H9      19.919758   21.016928   21.163928 H          1 MOL1         0.0790
      15    C6      20.288878   18.889719   21.032761 C.3        1 MOL1        -0.1760
      16    H10     19.783465   17.941850   21.254916 H          1 MOL1         0.0833
      17    H11     20.423590   18.897209   19.943201 H          1 MOL1         0.0833
      18    C7      21.703766   18.930715   21.669722 C.3        1 MOL1        -0.1684
      19    H12     21.984521   19.960766   21.917036 H          1 MOL1         0.0833
      20    H13     22.432469   18.623191   20.907197 H          1 MOL1         0.0833
      21    C8      21.905658   18.002594   22.894691 C.3        1 MOL1        -0.1684
      22    H14     22.849032   18.267579   23.391000 H          1 MOL1         0.0833
      23    H15     22.044071   16.978819   22.521039 H          1 MOL1         0.0833
      24    O1      18.223364   20.018517   20.563215 O.3        1 MOL1        -0.5508
      25    H16     18.540163   20.038590   19.636185 H          1 MOL1         0.3780
@<TRIPOS>BOND
    1     1     2    1
    2     1     3    1
    3     1     4    1
    4     4     5    1
    5     4     6    1
    6     4     7    1
    7     7     8    1
    8     7     9    1
    9     7    10    1
   10    10    11    1
   11    10    12    1
   12    10    13    1
   13    13    14    1
   14    13    15    1
   15    15    16    1
   16    15    17    1
   17    15    18    1
   18    18    19    1
   19    18    20    1
   20     1    21    1
   21    18    21    1
   22    21    22    1
   23    21    23    1
   24    13    24    1
   25    24    25    1
@<TRIPOS>SUBSTRUCTURE
       1 MOL1            1 RESIDUE      1      MOL     
@<SCITEGIC>MOL_PROPERTY
VConf Rank
SciTegic.value.IntegerValue
634

@<SCITEGIC>MOL_PROPERTY
Conf_Id
SciTegic.value.IntegerValue
24

@<SCITEGIC>MOL_PROPERTY
Delta U+W
SciTegic.value.DoubleValue
-1.236

@<SCITEGIC>MOL_PROPERTY
U+W
SciTegic.value.DoubleValue
9.678

@<SCITEGIC>MOL_PROPERTY
Grad RMS
SciTegic.value.DoubleValue
0.000000

@<SCITEGIC>MOL_PROPERTY
U
SciTegic.value.DoubleValue
11.876

@<SCITEGIC>MOL_PROPERTY
W
SciTegic.value.DoubleValue
-2.199

@<SCITEGIC>MOL_PROPERTY
W(PB)
SciTegic.value.DoubleValue
-4.335

@<SCITEGIC>MOL_PROPERTY
W(SA)
SciTegic.value.DoubleValue
2.137

@<SCITEGIC>MOL_PROPERTY
Valence
SciTegic.value.DoubleValue
17.153

@<SCITEGIC>MOL_PROPERTY
Coulomb
SciTegic.value.DoubleValue
-7.966

@<SCITEGIC>MOL_PROPERTY
VdW
SciTegic.value.DoubleValue
2.689

@<SCITEGIC>MOL_PROPERTY
VdW6
SciTegic.value.DoubleValue
-12.458

@<SCITEGIC>MOL_PROPERTY
VdW12
SciTegic.value.DoubleValue
15.147

@<SCITEGIC>MOL_PROPERTY
Bond
SciTegic.value.DoubleValue
0.421

@<SCITEGIC>MOL_PROPERTY
Angle
SciTegic.value.DoubleValue
5.258

@<SCITEGIC>MOL_PROPERTY
Pdih
SciTegic.value.DoubleValue
11.475

@<SCITEGIC>MOL_PROPERTY
Idih
SciTegic.value.DoubleValue
0.000

@<SCITEGIC>MOL_PROPERTY
Tether
SciTegic.value.DoubleValue
0.000

@<TRIPOS>MOLECULE
guest-s17_confgen4.mol2 : confsearch ligand conformer 635
          25          25           1
SMALL
USER_CHARGES
 
@<TRIPOS>ATOM
       1    C1      18.889916   17.540695   22.515729 C.3        1 MOL1        -0.1684
       2    H1      19.194636   16.495431   22.661835 H          1 MOL1         0.0833
       3    H2      17.825946   17.504773   22.244562 H          1 MOL1         0.0833
       4    C2      19.012882   18.292864   23.867513 C.3        1 MOL1        -0.1684
       5    H3      18.424506   19.219027   23.849398 H          1 MOL1         0.0833
       6    H4      18.524666   17.666919   24.627056 H          1 MOL1         0.0833
       7    C3      20.453778   18.590703   24.351011 C.3        1 MOL1        -0.1684
       8    H5      21.137723   17.781787   24.060614 H          1 MOL1         0.0833
       9    H6      20.431546   18.572629   25.449365 H          1 MOL1         0.0833
      10    C4      21.016635   19.979018   23.934236 C.3        1 MOL1        -0.1760
      11    H7      20.227044   20.741112   23.949640 H          1 MOL1         0.0833
      12    H8      21.728074   20.276271   24.716824 H          1 MOL1         0.0833
      13    C5      21.766866   20.001076   22.580078 C.3        1 MOL1         0.1219
      14    H9      22.202371   19.008180   22.406388 H          1 MOL1         0.0790
      15    C6      20.911073   20.406586   21.353298 C.3        1 MOL1        -0.1760
      16    H10     20.693654   21.481719   21.400098 H          1 MOL1         0.0833
      17    H11     21.527094   20.262007   20.455948 H          1 MOL1         0.0833
      18    C7      19.573205   19.651133   21.153196 C.3        1 MOL1        -0.1684
      19    H12     19.205050   19.872384   20.142124 H          1 MOL1         0.0833
      20    H13     18.811365   20.064254   21.824479 H          1 MOL1         0.0833
      21    C8      19.684097   18.114136   21.316588 C.3        1 MOL1        -0.1684
      22    H14     20.731734   17.798633   21.384190 H          1 MOL1         0.0833
      23    H15     19.308490   17.635835   20.401701 H          1 MOL1         0.0833
      24    O1      22.834941   20.934755   22.675823 O.3        1 MOL1        -0.5508
      25    H16     22.425570   21.806994   22.850716 H          1 MOL1         0.3780
@<TRIPOS>BOND
    1     1     2    1
    2     1     3    1
    3     1     4    1
    4     4     5    1
    5     4     6    1
    6     4     7    1
    7     7     8    1
    8     7     9    1
    9     7    10    1
   10    10    11    1
   11    10    12    1
   12    10    13    1
   13    13    14    1
   14    13    15    1
   15    15    16    1
   16    15    17    1
   17    15    18    1
   18    18    19    1
   19    18    20    1
   20     1    21    1
   21    18    21    1
   22    21    22    1
   23    21    23    1
   24    13    24    1
   25    24    25    1
@<TRIPOS>SUBSTRUCTURE
       1 MOL1            1 RESIDUE      1      MOL     
@<SCITEGIC>MOL_PROPERTY
VConf Rank
SciTegic.value.IntegerValue
635

@<SCITEGIC>MOL_PROPERTY
Conf_Id
SciTegic.value.IntegerValue
167

@<SCITEGIC>MOL_PROPERTY
Delta U+W
SciTegic.value.DoubleValue
0.388

@<SCITEGIC>MOL_PROPERTY
U+W
SciTegic.value.DoubleValue
11.301

@<SCITEGIC>MOL_PROPERTY
Grad RMS
SciTegic.value.DoubleValue
0.000000

@<SCITEGIC>MOL_PROPERTY
U
SciTegic.value.DoubleValue
13.202

@<SCITEGIC>MOL_PROPERTY
W
SciTegic.value.DoubleValue
-1.901

@<SCITEGIC>MOL_PROPERTY
W(PB)
SciTegic.value.DoubleValue
-4.065

@<SCITEGIC>MOL_PROPERTY
W(SA)
SciTegic.value.DoubleValue
2.163

@<SCITEGIC>MOL_PROPERTY
Valence
SciTegic.value.DoubleValue
18.957

@<SCITEGIC>MOL_PROPERTY
Coulomb
SciTegic.value.DoubleValue
-8.753

@<SCITEGIC>MOL_PROPERTY
VdW
SciTegic.value.DoubleValue
2.998

@<SCITEGIC>MOL_PROPERTY
VdW6
SciTegic.value.DoubleValue
-12.294

@<SCITEGIC>MOL_PROPERTY
VdW12
SciTegic.value.DoubleValue
15.292

@<SCITEGIC>MOL_PROPERTY
Bond
SciTegic.value.DoubleValue
0.419

@<SCITEGIC>MOL_PROPERTY
Angle
SciTegic.value.DoubleValue
4.543

@<SCITEGIC>MOL_PROPERTY
Pdih
SciTegic.value.DoubleValue
13.996

@<SCITEGIC>MOL_PROPERTY
Idih
SciTegic.value.DoubleValue
0.000

@<SCITEGIC>MOL_PROPERTY
Tether
SciTegic.value.DoubleValue
0.000

@<TRIPOS>MOLECULE
guest-s17_confgen4.mol2 : confsearch ligand conformer 636
          25          25           1
SMALL
USER_CHARGES
 
@<TRIPOS>ATOM
       1    C1      21.439725   18.556348   24.241111 C.3        1 MOL1        -0.1684
       2    H1      22.389649   18.028849   24.080196 H          1 MOL1         0.0833
       3    H2      21.320332   18.624866   25.331051 H          1 MOL1         0.0833
       4    C2      20.281183   17.682533   23.693818 C.3        1 MOL1        -0.1684
       5    H3      20.564637   17.215679   22.743814 H          1 MOL1         0.0833
       6    H4      20.159702   16.838510   24.386567 H          1 MOL1         0.0833
       7    C3      18.911552   18.397690   23.561510 C.3        1 MOL1        -0.1684
       8    H5      18.837183   19.240397   24.260856 H          1 MOL1         0.0833
       9    H6      18.136506   17.688763   23.883427 H          1 MOL1         0.0833
      10    C4      18.545762   18.844421   22.119679 C.3        1 MOL1        -0.1760
      11    H7      18.587468   17.977555   21.447334 H          1 MOL1         0.0833
      12    H8      17.494484   19.161461   22.128952 H          1 MOL1         0.0833
      13    C5      19.379116   20.000569   21.512842 C.3        1 MOL1         0.1219
      14    H9      19.363102   20.855249   22.202350 H          1 MOL1         0.0790
      15    C6      20.845650   19.618951   21.183641 C.3        1 MOL1        -0.1760
      16    H10     20.935844   18.533984   21.069694 H          1 MOL1         0.0833
      17    H11     21.115709   20.019198   20.197328 H          1 MOL1         0.0833
      18    C7      21.900876   20.140927   22.192998 C.3        1 MOL1        -0.1684
      19    H12     22.065976   21.207469   21.987633 H          1 MOL1         0.0833
      20    H13     22.861167   19.646958   21.992029 H          1 MOL1         0.0833
      21    C8      21.559655   20.002516   23.698082 C.3        1 MOL1        -0.1684
      22    H14     20.659331   20.577220   23.943607 H          1 MOL1         0.0833
      23    H15     22.363827   20.495909   24.260836 H          1 MOL1         0.0833
      24    O1      18.739681   20.394262   20.304417 O.3        1 MOL1        -0.5508
      25    H16     19.233893   21.169559   19.965026 H          1 MOL1         0.3780
@<TRIPOS>BOND
    1     1     2    1
    2     1     3    1
    3     1     4    1
    4     4     5    1
    5     4     6    1
    6     4     7    1
    7     7     8    1
    8     7     9    1
    9     7    10    1
   10    10    11    1
   11    10    12    1
   12    10    13    1
   13    13    14    1
   14    13    15    1
   15    15    16    1
   16    15    17    1
   17    15    18    1
   18    18    19    1
   19    18    20    1
   20     1    21    1
   21    18    21    1
   22    21    22    1
   23    21    23    1
   24    13    24    1
   25    24    25    1
@<TRIPOS>SUBSTRUCTURE
       1 MOL1            1 RESIDUE      1      MOL     
@<SCITEGIC>MOL_PROPERTY
VConf Rank
SciTegic.value.IntegerValue
636

@<SCITEGIC>MOL_PROPERTY
Conf_Id
SciTegic.value.IntegerValue
60

@<SCITEGIC>MOL_PROPERTY
Delta U+W
SciTegic.value.DoubleValue
-1.838

@<SCITEGIC>MOL_PROPERTY
U+W
SciTegic.value.DoubleValue
9.075

@<SCITEGIC>MOL_PROPERTY
Grad RMS
SciTegic.value.DoubleValue
0.000000

@<SCITEGIC>MOL_PROPERTY
U
SciTegic.value.DoubleValue
11.150

@<SCITEGIC>MOL_PROPERTY
W
SciTegic.value.DoubleValue
-2.074

@<SCITEGIC>MOL_PROPERTY
W(PB)
SciTegic.value.DoubleValue
-4.196

@<SCITEGIC>MOL_PROPERTY
W(SA)
SciTegic.value.DoubleValue
2.121

@<SCITEGIC>MOL_PROPERTY
Valence
SciTegic.value.DoubleValue
16.582

@<SCITEGIC>MOL_PROPERTY
Coulomb
SciTegic.value.DoubleValue
-8.361

@<SCITEGIC>MOL_PROPERTY
VdW
SciTegic.value.DoubleValue
2.928

@<SCITEGIC>MOL_PROPERTY
VdW6
SciTegic.value.DoubleValue
-12.539

@<SCITEGIC>MOL_PROPERTY
VdW12
SciTegic.value.DoubleValue
15.467

@<SCITEGIC>MOL_PROPERTY
Bond
SciTegic.value.DoubleValue
0.441

@<SCITEGIC>MOL_PROPERTY
Angle
SciTegic.value.DoubleValue
5.093

@<SCITEGIC>MOL_PROPERTY
Pdih
SciTegic.value.DoubleValue
11.049

@<SCITEGIC>MOL_PROPERTY
Idih
SciTegic.value.DoubleValue
0.000

@<SCITEGIC>MOL_PROPERTY
Tether
SciTegic.value.DoubleValue
0.000

@<TRIPOS>MOLECULE
guest-s17_confgen4.mol2 : confsearch ligand conformer 637
          25          25           1
SMALL
USER_CHARGES
 
@<TRIPOS>ATOM
       1    C1      18.991323   19.638882   24.166100 C.3        1 MOL1        -0.1684
       2    H1      18.091897   19.031410   24.334959 H          1 MOL1         0.0833
       3    H2      18.947131   20.446033   24.910057 H          1 MOL1         0.0833
       4    C2      18.908403   20.296793   22.765763 C.3        1 MOL1        -0.1684
       5    H3      18.015593   20.936846   22.759155 H          1 MOL1         0.0833
       6    H4      19.744917   20.989855   22.620653 H          1 MOL1         0.0833
       7    C3      18.787966   19.328468   21.562139 C.3        1 MOL1        -0.1684
       8    H5      18.622365   19.937208   20.662719 H          1 MOL1         0.0833
       9    H6      17.883150   18.716594   21.678198 H          1 MOL1         0.0833
      10    C4      19.995474   18.394380   21.289808 C.3        1 MOL1        -0.1760
      11    H7      19.956152   17.523147   21.951383 H          1 MOL1         0.0833
      12    H8      19.861180   17.977294   20.282860 H          1 MOL1         0.0833
      13    C5      21.385384   19.075203   21.386519 C.3        1 MOL1         0.1219
      14    H9      21.273825   20.163552   21.290571 H          1 MOL1         0.0790
      15    C6      22.155421   18.758072   22.692611 C.3        1 MOL1        -0.1760
      16    H10     22.239420   17.669460   22.807115 H          1 MOL1         0.0833
      17    H11     23.183760   19.122915   22.569351 H          1 MOL1         0.0833
      18    C7      21.595568   19.373576   24.004086 C.3        1 MOL1        -0.1684
      19    H12     21.540638   20.467207   23.928436 H          1 MOL1         0.0833
      20    H13     22.336174   19.177535   24.791472 H          1 MOL1         0.0833
      21    C8      20.243826   18.778811   24.477261 C.3        1 MOL1        -0.1684
      22    H14     20.287905   18.657400   25.568292 H          1 MOL1         0.0833
      23    H15     20.117404   17.759521   24.095333 H          1 MOL1         0.0833
      24    O1      22.183114   18.614394   20.302339 O.3        1 MOL1        -0.5508
      25    H16     21.720726   18.881134   19.480413 H          1 MOL1         0.3780
@<TRIPOS>BOND
    1     1     2    1
    2     1     3    1
    3     1     4    1
    4     4     5    1
    5     4     6    1
    6     4     7    1
    7     7     8    1
    8     7     9    1
    9     7    10    1
   10    10    11    1
   11    10    12    1
   12    10    13    1
   13    13    14    1
   14    13    15    1
   15    15    16    1
   16    15    17    1
   17    15    18    1
   18    18    19    1
   19    18    20    1
   20     1    21    1
   21    18    21    1
   22    21    22    1
   23    21    23    1
   24    13    24    1
   25    24    25    1
@<TRIPOS>SUBSTRUCTURE
       1 MOL1            1 RESIDUE      1      MOL     
@<SCITEGIC>MOL_PROPERTY
VConf Rank
SciTegic.value.IntegerValue
637

@<SCITEGIC>MOL_PROPERTY
Conf_Id
SciTegic.value.IntegerValue
129

@<SCITEGIC>MOL_PROPERTY
Delta U+W
SciTegic.value.DoubleValue
-1.846

@<SCITEGIC>MOL_PROPERTY
U+W
SciTegic.value.DoubleValue
9.067

@<SCITEGIC>MOL_PROPERTY
Grad RMS
SciTegic.value.DoubleValue
0.000000

@<SCITEGIC>MOL_PROPERTY
U
SciTegic.value.DoubleValue
11.150

@<SCITEGIC>MOL_PROPERTY
W
SciTegic.value.DoubleValue
-2.083

@<SCITEGIC>MOL_PROPERTY
W(PB)
SciTegic.value.DoubleValue
-4.217

@<SCITEGIC>MOL_PROPERTY
W(SA)
SciTegic.value.DoubleValue
2.134

@<SCITEGIC>MOL_PROPERTY
Valence
SciTegic.value.DoubleValue
16.583

@<SCITEGIC>MOL_PROPERTY
Coulomb
SciTegic.value.DoubleValue
-8.361

@<SCITEGIC>MOL_PROPERTY
VdW
SciTegic.value.DoubleValue
2.928

@<SCITEGIC>MOL_PROPERTY
VdW6
SciTegic.value.DoubleValue
-12.539

@<SCITEGIC>MOL_PROPERTY
VdW12
SciTegic.value.DoubleValue
15.467

@<SCITEGIC>MOL_PROPERTY
Bond
SciTegic.value.DoubleValue
0.441

@<SCITEGIC>MOL_PROPERTY
Angle
SciTegic.value.DoubleValue
5.093

@<SCITEGIC>MOL_PROPERTY
Pdih
SciTegic.value.DoubleValue
11.049

@<SCITEGIC>MOL_PROPERTY
Idih
SciTegic.value.DoubleValue
0.000

@<SCITEGIC>MOL_PROPERTY
Tether
SciTegic.value.DoubleValue
0.000

@<TRIPOS>MOLECULE
guest-s17_confgen4.mol2 : confsearch ligand conformer 638
          25          25           1
SMALL
USER_CHARGES
 
@<TRIPOS>ATOM
       1    C1      18.303528   19.233145   22.007498 C.3        1 MOL1        -0.1684
       2    H1      17.662080   18.350087   22.131029 H          1 MOL1         0.0833
       3    H2      17.671576   19.993425   21.528405 H          1 MOL1         0.0833
       4    C2      19.450856   18.898058   21.021815 C.3        1 MOL1        -0.1684
       5    H3      18.988079   18.632563   20.061526 H          1 MOL1         0.0833
       6    H4      20.041023   19.795581   20.804199 H          1 MOL1         0.0833
       7    C3      20.376638   17.723315   21.425764 C.3        1 MOL1        -0.1684
       8    H5      21.056886   17.534283   20.583991 H          1 MOL1         0.0833
       9    H6      19.776991   16.809528   21.534914 H          1 MOL1         0.0833
      10    C4      21.240186   17.914275   22.699771 C.3        1 MOL1        -0.1760
      11    H7      20.646282   17.700066   23.594160 H          1 MOL1         0.0833
      12    H8      22.010116   17.130959   22.684296 H          1 MOL1         0.0833
      13    C5      21.923723   19.300270   22.827710 C.3        1 MOL1         0.1219
      14    H9      21.973939   19.780598   21.841488 H          1 MOL1         0.0790
      15    C6      21.233665   20.260610   23.828942 C.3        1 MOL1        -0.1760
      16    H10     21.154344   19.771867   24.808766 H          1 MOL1         0.0833
      17    H11     21.899400   21.121273   23.978243 H          1 MOL1         0.0833
      18    C7      19.841780   20.815772   23.422162 C.3        1 MOL1        -0.1684
      19    H12     19.899604   21.348486   22.464213 H          1 MOL1         0.0833
      20    H13     19.574411   21.583563   24.161063 H          1 MOL1         0.0833
      21    C8      18.701546   19.764949   23.408646 C.3        1 MOL1        -0.1684
      22    H14     17.805375   20.227910   23.844070 H          1 MOL1         0.0833
      23    H15     18.934859   18.934837   24.084871 H          1 MOL1         0.0833
      24    O1      23.254876   19.098566   23.285433 O.3        1 MOL1        -0.5508
      25    H16     23.183608   18.674426   24.165188 H          1 MOL1         0.3780
@<TRIPOS>BOND
    1     1     2    1
    2     1     3    1
    3     1     4    1
    4     4     5    1
    5     4     6    1
    6     4     7    1
    7     7     8    1
    8     7     9    1
    9     7    10    1
   10    10    11    1
   11    10    12    1
   12    10    13    1
   13    13    14    1
   14    13    15    1
   15    15    16    1
   16    15    17    1
   17    15    18    1
   18    18    19    1
   19    18    20    1
   20     1    21    1
   21    18    21    1
   22    21    22    1
   23    21    23    1
   24    13    24    1
   25    24    25    1
@<TRIPOS>SUBSTRUCTURE
       1 MOL1            1 RESIDUE      1      MOL     
@<SCITEGIC>MOL_PROPERTY
VConf Rank
SciTegic.value.IntegerValue
638

@<SCITEGIC>MOL_PROPERTY
Conf_Id
SciTegic.value.IntegerValue
140

@<SCITEGIC>MOL_PROPERTY
Delta U+W
SciTegic.value.DoubleValue
-1.702

@<SCITEGIC>MOL_PROPERTY
U+W
SciTegic.value.DoubleValue
9.211

@<SCITEGIC>MOL_PROPERTY
Grad RMS
SciTegic.value.DoubleValue
0.000000

@<SCITEGIC>MOL_PROPERTY
U
SciTegic.value.DoubleValue
11.181

@<SCITEGIC>MOL_PROPERTY
W
SciTegic.value.DoubleValue
-1.969

@<SCITEGIC>MOL_PROPERTY
W(PB)
SciTegic.value.DoubleValue
-4.093

@<SCITEGIC>MOL_PROPERTY
W(SA)
SciTegic.value.DoubleValue
2.124

@<SCITEGIC>MOL_PROPERTY
Valence
SciTegic.value.DoubleValue
16.954

@<SCITEGIC>MOL_PROPERTY
Coulomb
SciTegic.value.DoubleValue
-8.661

@<SCITEGIC>MOL_PROPERTY
VdW
SciTegic.value.DoubleValue
2.887

@<SCITEGIC>MOL_PROPERTY
VdW6
SciTegic.value.DoubleValue
-12.561

@<SCITEGIC>MOL_PROPERTY
VdW12
SciTegic.value.DoubleValue
15.448

@<SCITEGIC>MOL_PROPERTY
Bond
SciTegic.value.DoubleValue
0.433

@<SCITEGIC>MOL_PROPERTY
Angle
SciTegic.value.DoubleValue
5.120

@<SCITEGIC>MOL_PROPERTY
Pdih
SciTegic.value.DoubleValue
11.401

@<SCITEGIC>MOL_PROPERTY
Idih
SciTegic.value.DoubleValue
0.000

@<SCITEGIC>MOL_PROPERTY
Tether
SciTegic.value.DoubleValue
0.000

@<TRIPOS>MOLECULE
guest-s17_confgen4.mol2 : confsearch ligand conformer 639
          25          25           1
SMALL
USER_CHARGES
 
@<TRIPOS>ATOM
       1    C1      21.659886   20.683991   22.938993 C.3        1 MOL1        -0.1684
       2    H1      21.740924   21.519566   22.230646 H          1 MOL1         0.0833
       3    H2      22.421920   20.872449   23.707568 H          1 MOL1         0.0833
       4    C2      22.039645   19.368992   22.210291 C.3        1 MOL1        -0.1684
       5    H3      21.616478   19.351404   21.199636 H          1 MOL1         0.0833
       6    H4      23.126417   19.391370   22.050675 H          1 MOL1         0.0833
       7    C3      21.690914   18.062862   22.969870 C.3        1 MOL1        -0.1684
       8    H5      21.641811   18.236461   24.052573 H          1 MOL1         0.0833
       9    H6      22.528234   17.365641   22.829363 H          1 MOL1         0.0833
      10    C4      20.410909   17.340621   22.468902 C.3        1 MOL1        -0.1760
      11    H7      20.506808   17.141935   21.393475 H          1 MOL1         0.0833
      12    H8      20.379718   16.354992   22.952429 H          1 MOL1         0.0833
      13    C5      19.057731   18.043114   22.745131 C.3        1 MOL1         0.1219
      14    H9      18.978673   18.267621   23.817148 H          1 MOL1         0.0790
      15    C6      18.832120   19.337780   21.922021 C.3        1 MOL1        -0.1760
      16    H10     19.457078   19.329722   21.023187 H          1 MOL1         0.0833
      17    H11     17.801328   19.350563   21.542652 H          1 MOL1         0.0833
      18    C7      19.040495   20.659211   22.706669 C.3        1 MOL1        -0.1684
      19    H12     18.149558   20.825267   23.327722 H          1 MOL1         0.0833
      20    H13     19.067784   21.495868   21.995502 H          1 MOL1         0.0833
      21    C8      20.277434   20.736845   23.636306 C.3        1 MOL1        -0.1684
      22    H14     20.216933   19.974582   24.421479 H          1 MOL1         0.0833
      23    H15     20.220599   21.692712   24.174723 H          1 MOL1         0.0833
      24    O1      18.027743   17.120539   22.413260 O.3        1 MOL1        -0.5508
      25    H16     18.121600   16.933509   21.456623 H          1 MOL1         0.3780
@<TRIPOS>BOND
    1     1     2    1
    2     1     3    1
    3     1     4    1
    4     4     5    1
    5     4     6    1
    6     4     7    1
    7     7     8    1
    8     7     9    1
    9     7    10    1
   10    10    11    1
   11    10    12    1
   12    10    13    1
   13    13    14    1
   14    13    15    1
   15    15    16    1
   16    15    17    1
   17    15    18    1
   18    18    19    1
   19    18    20    1
   20     1    21    1
   21    18    21    1
   22    21    22    1
   23    21    23    1
   24    13    24    1
   25    24    25    1
@<TRIPOS>SUBSTRUCTURE
       1 MOL1            1 RESIDUE      1      MOL     
@<SCITEGIC>MOL_PROPERTY
VConf Rank
SciTegic.value.IntegerValue
639

@<SCITEGIC>MOL_PROPERTY
Conf_Id
SciTegic.value.IntegerValue
68

@<SCITEGIC>MOL_PROPERTY
Delta U+W
SciTegic.value.DoubleValue
-1.765

@<SCITEGIC>MOL_PROPERTY
U+W
SciTegic.value.DoubleValue
9.148

@<SCITEGIC>MOL_PROPERTY
Grad RMS
SciTegic.value.DoubleValue
0.000000

@<SCITEGIC>MOL_PROPERTY
U
SciTegic.value.DoubleValue
11.181

@<SCITEGIC>MOL_PROPERTY
W
SciTegic.value.DoubleValue
-2.032

@<SCITEGIC>MOL_PROPERTY
W(PB)
SciTegic.value.DoubleValue
-4.147

@<SCITEGIC>MOL_PROPERTY
W(SA)
SciTegic.value.DoubleValue
2.114

@<SCITEGIC>MOL_PROPERTY
Valence
SciTegic.value.DoubleValue
16.955

@<SCITEGIC>MOL_PROPERTY
Coulomb
SciTegic.value.DoubleValue
-8.661

@<SCITEGIC>MOL_PROPERTY
VdW
SciTegic.value.DoubleValue
2.887

@<SCITEGIC>MOL_PROPERTY
VdW6
SciTegic.value.DoubleValue
-12.561

@<SCITEGIC>MOL_PROPERTY
VdW12
SciTegic.value.DoubleValue
15.448

@<SCITEGIC>MOL_PROPERTY
Bond
SciTegic.value.DoubleValue
0.433

@<SCITEGIC>MOL_PROPERTY
Angle
SciTegic.value.DoubleValue
5.121

@<SCITEGIC>MOL_PROPERTY
Pdih
SciTegic.value.DoubleValue
11.402

@<SCITEGIC>MOL_PROPERTY
Idih
SciTegic.value.DoubleValue
0.000

@<SCITEGIC>MOL_PROPERTY
Tether
SciTegic.value.DoubleValue
0.000

@<TRIPOS>MOLECULE
guest-s17_confgen4.mol2 : confsearch ligand conformer 640
          25          25           1
SMALL
USER_CHARGES
 
@<TRIPOS>ATOM
       1    C1      18.543674   18.485306   22.335893 C.3        1 MOL1        -0.1684
       2    H1      17.556817   18.010358   22.248628 H          1 MOL1         0.0833
       3    H2      18.751267   18.866256   21.329576 H          1 MOL1         0.0833
       4    C2      19.570927   17.391443   22.727707 C.3        1 MOL1        -0.1684
       5    H3      19.720322   17.359996   23.814586 H          1 MOL1         0.0833
       6    H4      19.130316   16.418109   22.471775 H          1 MOL1         0.0833
       7    C3      20.931304   17.480687   21.987427 C.3        1 MOL1        -0.1684
       8    H5      20.757728   17.462316   20.902712 H          1 MOL1         0.0833
       9    H6      21.493503   16.563744   22.210990 H          1 MOL1         0.0833
      10    C4      21.838917   18.688907   22.340976 C.3        1 MOL1        -0.1760
      11    H7      22.048170   18.706865   23.417288 H          1 MOL1         0.0833
      12    H8      22.810059   18.505563   21.861517 H          1 MOL1         0.0833
      13    C5      21.300241   20.060617   21.858143 C.3        1 MOL1         0.1219
      14    H9      20.564112   19.895588   21.062892 H          1 MOL1         0.0790
      15    C6      20.662964   20.934037   22.966773 C.3        1 MOL1        -0.1760
      16    H10     21.468490   21.386753   23.559860 H          1 MOL1         0.0833
      17    H11     20.135543   21.769849   22.488936 H          1 MOL1         0.0833
      18    C7      19.699341   20.230017   23.956645 C.3        1 MOL1        -0.1684
      19    H12     19.405426   20.972691   24.710815 H          1 MOL1         0.0833
      20    H13     20.229756   19.455998   24.523092 H          1 MOL1         0.0833
      21    C8      18.397724   19.653178   23.345751 C.3        1 MOL1        -0.1684
      22    H14     17.827647   20.464277   22.872764 H          1 MOL1         0.0833
      23    H15     17.774023   19.299421   24.178128 H          1 MOL1         0.0833
      24    O1      22.379204   20.799602   21.299194 O.3        1 MOL1        -0.5508
      25    H16     23.033124   20.921554   22.017808 H          1 MOL1         0.3780
@<TRIPOS>BOND
    1     1     2    1
    2     1     3    1
    3     1     4    1
    4     4     5    1
    5     4     6    1
    6     4     7    1
    7     7     8    1
    8     7     9    1
    9     7    10    1
   10    10    11    1
   11    10    12    1
   12    10    13    1
   13    13    14    1
   14    13    15    1
   15    15    16    1
   16    15    17    1
   17    15    18    1
   18    18    19    1
   19    18    20    1
   20     1    21    1
   21    18    21    1
   22    21    22    1
   23    21    23    1
   24    13    24    1
   25    24    25    1
@<TRIPOS>SUBSTRUCTURE
       1 MOL1            1 RESIDUE      1      MOL     
@<SCITEGIC>MOL_PROPERTY
VConf Rank
SciTegic.value.IntegerValue
640

@<SCITEGIC>MOL_PROPERTY
Conf_Id
SciTegic.value.IntegerValue
165

@<SCITEGIC>MOL_PROPERTY
Delta U+W
SciTegic.value.DoubleValue
-1.999

@<SCITEGIC>MOL_PROPERTY
U+W
SciTegic.value.DoubleValue
8.915

@<SCITEGIC>MOL_PROPERTY
Grad RMS
SciTegic.value.DoubleValue
0.000000

@<SCITEGIC>MOL_PROPERTY
U
SciTegic.value.DoubleValue
10.935

@<SCITEGIC>MOL_PROPERTY
W
SciTegic.value.DoubleValue
-2.020

@<SCITEGIC>MOL_PROPERTY
W(PB)
SciTegic.value.DoubleValue
-4.135

@<SCITEGIC>MOL_PROPERTY
W(SA)
SciTegic.value.DoubleValue
2.115

@<SCITEGIC>MOL_PROPERTY
Valence
SciTegic.value.DoubleValue
16.757

@<SCITEGIC>MOL_PROPERTY
Coulomb
SciTegic.value.DoubleValue
-8.731

@<SCITEGIC>MOL_PROPERTY
VdW
SciTegic.value.DoubleValue
2.908

@<SCITEGIC>MOL_PROPERTY
VdW6
SciTegic.value.DoubleValue
-12.597

@<SCITEGIC>MOL_PROPERTY
VdW12
SciTegic.value.DoubleValue
15.506

@<SCITEGIC>MOL_PROPERTY
Bond
SciTegic.value.DoubleValue
0.434

@<SCITEGIC>MOL_PROPERTY
Angle
SciTegic.value.DoubleValue
5.069

@<SCITEGIC>MOL_PROPERTY
Pdih
SciTegic.value.DoubleValue
11.254

@<SCITEGIC>MOL_PROPERTY
Idih
SciTegic.value.DoubleValue
0.000

@<SCITEGIC>MOL_PROPERTY
Tether
SciTegic.value.DoubleValue
0.000

@<TRIPOS>MOLECULE
guest-s17_confgen4.mol2 : confsearch ligand conformer 641
          25          25           1
SMALL
USER_CHARGES
 
@<TRIPOS>ATOM
       1    C1      20.656659   17.507488   21.983612 C.3        1 MOL1        -0.1684
       2    H1      20.901741   16.486915   21.658881 H          1 MOL1         0.0833
       3    H2      20.045301   17.911633   21.168928 H          1 MOL1         0.0833
       4    C2      21.996231   18.280299   22.100919 C.3        1 MOL1        -0.1684
       5    H3      22.729150   17.609113   22.569262 H          1 MOL1         0.0833
       6    H4      22.381612   18.481266   21.092127 H          1 MOL1         0.0833
       7    C3      21.987485   19.596372   22.918363 C.3        1 MOL1        -0.1684
       8    H5      23.025217   19.951723   22.977848 H          1 MOL1         0.0833
       9    H6      21.703821   19.397036   23.958119 H          1 MOL1         0.0833
      10    C4      21.135872   20.754178   22.336752 C.3        1 MOL1        -0.1760
      11    H7      21.316441   21.640327   22.960170 H          1 MOL1         0.0833
      12    H8      21.514000   21.004991   21.337337 H          1 MOL1         0.0833
      13    C5      19.606359   20.530242   22.246191 C.3        1 MOL1         0.1219
      14    H9      19.384427   19.894889   21.380782 H          1 MOL1         0.0790
      15    C6      18.969683   19.898485   23.510987 C.3        1 MOL1        -0.1760
      16    H10     19.597435   20.073101   24.392777 H          1 MOL1         0.0833
      17    H11     18.027417   20.421615   23.723125 H          1 MOL1         0.0833
      18    C7      18.628421   18.390350   23.376604 C.3        1 MOL1        -0.1684
      19    H12     17.974070   18.242628   22.506553 H          1 MOL1         0.0833
      20    H13     18.025893   18.105176   24.249765 H          1 MOL1         0.0833
      21    C8      19.827735   17.409962   23.290858 C.3        1 MOL1        -0.1684
      22    H14     19.414743   16.393328   23.344744 H          1 MOL1         0.0833
      23    H15     20.471109   17.503724   24.175102 H          1 MOL1         0.0833
      24    O1      19.002590   21.799421   22.022221 O.3        1 MOL1        -0.5508
      25    H16     19.390125   22.154326   21.194998 H          1 MOL1         0.3780
@<TRIPOS>BOND
    1     1     2    1
    2     1     3    1
    3     1     4    1
    4     4     5    1
    5     4     6    1
    6     4     7    1
    7     7     8    1
    8     7     9    1
    9     7    10    1
   10    10    11    1
   11    10    12    1
   12    10    13    1
   13    13    14    1
   14    13    15    1
   15    15    16    1
   16    15    17    1
   17    15    18    1
   18    18    19    1
   19    18    20    1
   20     1    21    1
   21    18    21    1
   22    21    22    1
   23    21    23    1
   24    13    24    1
   25    24    25    1
@<TRIPOS>SUBSTRUCTURE
       1 MOL1            1 RESIDUE      1      MOL     
@<SCITEGIC>MOL_PROPERTY
VConf Rank
SciTegic.value.IntegerValue
641

@<SCITEGIC>MOL_PROPERTY
Conf_Id
SciTegic.value.IntegerValue
133

@<SCITEGIC>MOL_PROPERTY
Delta U+W
SciTegic.value.DoubleValue
-2.139

@<SCITEGIC>MOL_PROPERTY
U+W
SciTegic.value.DoubleValue
8.774

@<SCITEGIC>MOL_PROPERTY
Grad RMS
SciTegic.value.DoubleValue
0.000000

@<SCITEGIC>MOL_PROPERTY
U
SciTegic.value.DoubleValue
10.905

@<SCITEGIC>MOL_PROPERTY
W
SciTegic.value.DoubleValue
-2.131

@<SCITEGIC>MOL_PROPERTY
W(PB)
SciTegic.value.DoubleValue
-4.281

@<SCITEGIC>MOL_PROPERTY
W(SA)
SciTegic.value.DoubleValue
2.150

@<SCITEGIC>MOL_PROPERTY
Valence
SciTegic.value.DoubleValue
16.378

@<SCITEGIC>MOL_PROPERTY
Coulomb
SciTegic.value.DoubleValue
-8.448

@<SCITEGIC>MOL_PROPERTY
VdW
SciTegic.value.DoubleValue
2.976

@<SCITEGIC>MOL_PROPERTY
VdW6
SciTegic.value.DoubleValue
-12.570

@<SCITEGIC>MOL_PROPERTY
VdW12
SciTegic.value.DoubleValue
15.545

@<SCITEGIC>MOL_PROPERTY
Bond
SciTegic.value.DoubleValue
0.439

@<SCITEGIC>MOL_PROPERTY
Angle
SciTegic.value.DoubleValue
5.049

@<SCITEGIC>MOL_PROPERTY
Pdih
SciTegic.value.DoubleValue
10.889

@<SCITEGIC>MOL_PROPERTY
Idih
SciTegic.value.DoubleValue
0.000

@<SCITEGIC>MOL_PROPERTY
Tether
SciTegic.value.DoubleValue
0.000

@<TRIPOS>MOLECULE
guest-s17_confgen4.mol2 : confsearch ligand conformer 642
          25          25           1
SMALL
USER_CHARGES
 
@<TRIPOS>ATOM
       1    C1      20.106178   18.744860   20.900841 C.3        1 MOL1        -0.1684
       2    H1      19.943483   18.383918   19.875982 H          1 MOL1         0.0833
       3    H2      20.880662   19.513209   20.797806 H          1 MOL1         0.0833
       4    C2      20.626126   17.557080   21.751933 C.3        1 MOL1        -0.1684
       5    H3      19.802824   17.057339   22.278280 H          1 MOL1         0.0833
       6    H4      21.021570   16.802284   21.058451 H          1 MOL1         0.0833
       7    C3      21.772413   17.912484   22.735084 C.3        1 MOL1        -0.1684
       8    H5      22.603526   18.365443   22.177350 H          1 MOL1         0.0833
       9    H6      22.168345   16.971372   23.140448 H          1 MOL1         0.0833
      10    C4      21.403121   18.824829   23.935184 C.3        1 MOL1        -0.1760
      11    H7      20.595244   18.375588   24.524791 H          1 MOL1         0.0833
      12    H8      22.272848   18.838096   24.605952 H          1 MOL1         0.0833
      13    C5      21.058851   20.287033   23.550971 C.3        1 MOL1         0.1219
      14    H9      21.469356   20.499934   22.556981 H          1 MOL1         0.0790
      15    C6      19.546150   20.617777   23.560568 C.3        1 MOL1        -0.1760
      16    H10     19.228311   20.739518   24.604921 H          1 MOL1         0.0833
      17    H11     19.397086   21.594688   23.082925 H          1 MOL1         0.0833
      18    C7      18.592295   19.587764   22.902342 C.3        1 MOL1        -0.1684
      19    H12     17.565482   19.942634   23.064887 H          1 MOL1         0.0833
      20    H13     18.640063   18.628936   23.431170 H          1 MOL1         0.0833
      21    C8      18.770366   19.371640   21.378556 C.3        1 MOL1        -0.1684
      22    H14     18.616624   20.325249   20.855525 H          1 MOL1         0.0833
      23    H15     17.955062   18.715804   21.043647 H          1 MOL1         0.0833
      24    O1      21.691508   21.159460   24.480555 O.3        1 MOL1        -0.5508
      25    H16     21.494877   22.073974   24.188254 H          1 MOL1         0.3780
@<TRIPOS>BOND
    1     1     2    1
    2     1     3    1
    3     1     4    1
    4     4     5    1
    5     4     6    1
    6     4     7    1
    7     7     8    1
    8     7     9    1
    9     7    10    1
   10    10    11    1
   11    10    12    1
   12    10    13    1
   13    13    14    1
   14    13    15    1
   15    15    16    1
   16    15    17    1
   17    15    18    1
   18    18    19    1
   19    18    20    1
   20     1    21    1
   21    18    21    1
   22    21    22    1
   23    21    23    1
   24    13    24    1
   25    24    25    1
@<TRIPOS>SUBSTRUCTURE
       1 MOL1            1 RESIDUE      1      MOL     
@<SCITEGIC>MOL_PROPERTY
VConf Rank
SciTegic.value.IntegerValue
642

@<SCITEGIC>MOL_PROPERTY
Conf_Id
SciTegic.value.IntegerValue
95

@<SCITEGIC>MOL_PROPERTY
Delta U+W
SciTegic.value.DoubleValue
-2.190

@<SCITEGIC>MOL_PROPERTY
U+W
SciTegic.value.DoubleValue
8.723

@<SCITEGIC>MOL_PROPERTY
Grad RMS
SciTegic.value.DoubleValue
0.000000

@<SCITEGIC>MOL_PROPERTY
U
SciTegic.value.DoubleValue
10.905

@<SCITEGIC>MOL_PROPERTY
W
SciTegic.value.DoubleValue
-2.182

@<SCITEGIC>MOL_PROPERTY
W(PB)
SciTegic.value.DoubleValue
-4.296

@<SCITEGIC>MOL_PROPERTY
W(SA)
SciTegic.value.DoubleValue
2.114

@<SCITEGIC>MOL_PROPERTY
Valence
SciTegic.value.DoubleValue
16.377

@<SCITEGIC>MOL_PROPERTY
Coulomb
SciTegic.value.DoubleValue
-8.448

@<SCITEGIC>MOL_PROPERTY
VdW
SciTegic.value.DoubleValue
2.976

@<SCITEGIC>MOL_PROPERTY
VdW6
SciTegic.value.DoubleValue
-12.570

@<SCITEGIC>MOL_PROPERTY
VdW12
SciTegic.value.DoubleValue
15.546

@<SCITEGIC>MOL_PROPERTY
Bond
SciTegic.value.DoubleValue
0.439

@<SCITEGIC>MOL_PROPERTY
Angle
SciTegic.value.DoubleValue
5.049

@<SCITEGIC>MOL_PROPERTY
Pdih
SciTegic.value.DoubleValue
10.889

@<SCITEGIC>MOL_PROPERTY
Idih
SciTegic.value.DoubleValue
0.000

@<SCITEGIC>MOL_PROPERTY
Tether
SciTegic.value.DoubleValue
0.000

@<TRIPOS>MOLECULE
guest-s17_confgen4.mol2 : confsearch ligand conformer 643
          25          25           1
SMALL
USER_CHARGES
 
@<TRIPOS>ATOM
       1    C1      20.709090   20.886669   23.135351 C.3        1 MOL1        -0.1684
       2    H1      20.856233   21.950315   23.367530 H          1 MOL1         0.0833
       3    H2      21.712597   20.462466   23.241465 H          1 MOL1         0.0833
       4    C2      20.223323   20.806142   21.658271 C.3        1 MOL1        -0.1684
       5    H3      19.591169   21.685300   21.472791 H          1 MOL1         0.0833
       6    H4      21.088477   20.923038   20.991701 H          1 MOL1         0.0833
       7    C3      19.404930   19.562500   21.222285 C.3        1 MOL1        -0.1684
       8    H5      19.053543   19.738705   20.196470 H          1 MOL1         0.0833
       9    H6      18.479649   19.516210   21.805156 H          1 MOL1         0.0833
      10    C4      20.133663   18.185750   21.227747 C.3        1 MOL1        -0.1760
      11    H7      19.381768   17.386515   21.263079 H          1 MOL1         0.0833
      12    H8      20.631561   18.082138   20.254801 H          1 MOL1         0.0833
      13    C5      21.201516   17.925153   22.320208 C.3        1 MOL1         0.1219
      14    H9      21.966046   18.704827   22.240085 H          1 MOL1         0.0790
      15    C6      20.699335   17.838121   23.790184 C.3        1 MOL1        -0.1760
      16    H10     20.379258   16.804258   23.977249 H          1 MOL1         0.0833
      17    H11     21.554418   18.007319   24.456887 H          1 MOL1         0.0833
      18    C7      19.528342   18.758667   24.228804 C.3        1 MOL1        -0.1684
      19    H12     19.250787   18.476734   25.253591 H          1 MOL1         0.0833
      20    H13     18.635974   18.511527   23.645132 H          1 MOL1         0.0833
      21    C8      19.781878   20.294645   24.229483 C.3        1 MOL1        -0.1684
      22    H14     20.226257   20.553874   25.200150 H          1 MOL1         0.0833
      23    H15     18.814522   20.814224   24.202945 H          1 MOL1         0.0833
      24    O1      21.829172   16.685466   22.013875 O.3        1 MOL1        -0.5508
      25    H16     22.199573   16.771384   21.110837 H          1 MOL1         0.3780
@<TRIPOS>BOND
    1     1     2    1
    2     1     3    1
    3     1     4    1
    4     4     5    1
    5     4     6    1
    6     4     7    1
    7     7     8    1
    8     7     9    1
    9     7    10    1
   10    10    11    1
   11    10    12    1
   12    10    13    1
   13    13    14    1
   14    13    15    1
   15    15    16    1
   16    15    17    1
   17    15    18    1
   18    18    19    1
   19    18    20    1
   20     1    21    1
   21    18    21    1
   22    21    22    1
   23    21    23    1
   24    13    24    1
   25    24    25    1
@<TRIPOS>SUBSTRUCTURE
       1 MOL1            1 RESIDUE      1      MOL     
@<SCITEGIC>MOL_PROPERTY
VConf Rank
SciTegic.value.IntegerValue
643

@<SCITEGIC>MOL_PROPERTY
Conf_Id
SciTegic.value.IntegerValue
161

@<SCITEGIC>MOL_PROPERTY
Delta U+W
SciTegic.value.DoubleValue
2.120

@<SCITEGIC>MOL_PROPERTY
U+W
SciTegic.value.DoubleValue
13.033

@<SCITEGIC>MOL_PROPERTY
Grad RMS
SciTegic.value.DoubleValue
0.000000

@<SCITEGIC>MOL_PROPERTY
U
SciTegic.value.DoubleValue
15.076

@<SCITEGIC>MOL_PROPERTY
W
SciTegic.value.DoubleValue
-2.043

@<SCITEGIC>MOL_PROPERTY
W(PB)
SciTegic.value.DoubleValue
-4.186

@<SCITEGIC>MOL_PROPERTY
W(SA)
SciTegic.value.DoubleValue
2.143

@<SCITEGIC>MOL_PROPERTY
Valence
SciTegic.value.DoubleValue
18.884

@<SCITEGIC>MOL_PROPERTY
Coulomb
SciTegic.value.DoubleValue
-8.074

@<SCITEGIC>MOL_PROPERTY
VdW
SciTegic.value.DoubleValue
4.266

@<SCITEGIC>MOL_PROPERTY
VdW6
SciTegic.value.DoubleValue
-13.486

@<SCITEGIC>MOL_PROPERTY
VdW12
SciTegic.value.DoubleValue
17.752

@<SCITEGIC>MOL_PROPERTY
Bond
SciTegic.value.DoubleValue
0.713

@<SCITEGIC>MOL_PROPERTY
Angle
SciTegic.value.DoubleValue
8.955

@<SCITEGIC>MOL_PROPERTY
Pdih
SciTegic.value.DoubleValue
9.215

@<SCITEGIC>MOL_PROPERTY
Idih
SciTegic.value.DoubleValue
0.000

@<SCITEGIC>MOL_PROPERTY
Tether
SciTegic.value.DoubleValue
0.000

@<TRIPOS>MOLECULE
guest-s17_confgen4.mol2 : confsearch ligand conformer 644
          25          25           1
SMALL
USER_CHARGES
 
@<TRIPOS>ATOM
       1    C1      21.043200   20.480849   21.312082 C.3        1 MOL1        -0.1684
       2    H1      21.569886   21.292904   20.792317 H          1 MOL1         0.0833
       3    H2      20.319047   20.103313   20.579071 H          1 MOL1         0.0833
       4    C2      20.297899   21.092935   22.524333 C.3        1 MOL1        -0.1684
       5    H3      20.956562   21.145430   23.401599 H          1 MOL1         0.0833
       6    H4      20.074516   22.137292   22.266285 H          1 MOL1         0.0833
       7    C3      18.943503   20.417632   22.877759 C.3        1 MOL1        -0.1684
       8    H5      18.404444   20.111937   21.970978 H          1 MOL1         0.0833
       9    H6      18.315449   21.190460   23.341963 H          1 MOL1         0.0833
      10    C4      19.031716   19.244750   23.888224 C.3        1 MOL1        -0.1760
      11    H7      19.830561   19.438385   24.614393 H          1 MOL1         0.0833
      12    H8      18.106393   19.243612   24.479333 H          1 MOL1         0.0833
      13    C5      19.167254   17.825607   23.280363 C.3        1 MOL1         0.1219
      14    H9      18.209611   17.569284   22.804976 H          1 MOL1         0.0790
      15    C6      20.276446   17.634070   22.220226 C.3        1 MOL1        -0.1760
      16    H10     20.409351   16.556984   22.051979 H          1 MOL1         0.0833
      17    H11     19.919665   18.018225   21.258512 H          1 MOL1         0.0833
      18    C7      21.649471   18.256083   22.590536 C.3        1 MOL1        -0.1684
      19    H12     22.413257   17.466966   22.564958 H          1 MOL1         0.0833
      20    H13     21.655030   18.619878   23.624326 H          1 MOL1         0.0833
      21    C8      22.100548   19.395153   21.645162 C.3        1 MOL1        -0.1684
      22    H14     22.446288   18.953505   20.700587 H          1 MOL1         0.0833
      23    H15     22.980946   19.880924   22.087548 H          1 MOL1         0.0833
      24    O1      19.408430   16.914629   24.343527 O.3        1 MOL1        -0.5508
      25    H16     20.323468   17.089246   24.643568 H          1 MOL1         0.3780
@<TRIPOS>BOND
    1     1     2    1
    2     1     3    1
    3     1     4    1
    4     4     5    1
    5     4     6    1
    6     4     7    1
    7     7     8    1
    8     7     9    1
    9     7    10    1
   10    10    11    1
   11    10    12    1
   12    10    13    1
   13    13    14    1
   14    13    15    1
   15    15    16    1
   16    15    17    1
   17    15    18    1
   18    18    19    1
   19    18    20    1
   20     1    21    1
   21    18    21    1
   22    21    22    1
   23    21    23    1
   24    13    24    1
   25    24    25    1
@<TRIPOS>SUBSTRUCTURE
       1 MOL1            1 RESIDUE      1      MOL     
@<SCITEGIC>MOL_PROPERTY
VConf Rank
SciTegic.value.IntegerValue
644

@<SCITEGIC>MOL_PROPERTY
Conf_Id
SciTegic.value.IntegerValue
164

@<SCITEGIC>MOL_PROPERTY
Delta U+W
SciTegic.value.DoubleValue
0.008

@<SCITEGIC>MOL_PROPERTY
U+W
SciTegic.value.DoubleValue
10.922

@<SCITEGIC>MOL_PROPERTY
Grad RMS
SciTegic.value.DoubleValue
0.000000

@<SCITEGIC>MOL_PROPERTY
U
SciTegic.value.DoubleValue
12.433

@<SCITEGIC>MOL_PROPERTY
W
SciTegic.value.DoubleValue
-1.511

@<SCITEGIC>MOL_PROPERTY
W(PB)
SciTegic.value.DoubleValue
-3.669

@<SCITEGIC>MOL_PROPERTY
W(SA)
SciTegic.value.DoubleValue
2.157

@<SCITEGIC>MOL_PROPERTY
Valence
SciTegic.value.DoubleValue
19.007

@<SCITEGIC>MOL_PROPERTY
Coulomb
SciTegic.value.DoubleValue
-9.373

@<SCITEGIC>MOL_PROPERTY
VdW
SciTegic.value.DoubleValue
2.799

@<SCITEGIC>MOL_PROPERTY
VdW6
SciTegic.value.DoubleValue
-12.597

@<SCITEGIC>MOL_PROPERTY
VdW12
SciTegic.value.DoubleValue
15.396

@<SCITEGIC>MOL_PROPERTY
Bond
SciTegic.value.DoubleValue
0.425

@<SCITEGIC>MOL_PROPERTY
Angle
SciTegic.value.DoubleValue
4.784

@<SCITEGIC>MOL_PROPERTY
Pdih
SciTegic.value.DoubleValue
13.799

@<SCITEGIC>MOL_PROPERTY
Idih
SciTegic.value.DoubleValue
0.000

@<SCITEGIC>MOL_PROPERTY
Tether
SciTegic.value.DoubleValue
0.000

@<TRIPOS>MOLECULE
guest-s17_confgen4.mol2 : confsearch ligand conformer 645
          25          25           1
SMALL
USER_CHARGES
 
@<TRIPOS>ATOM
       1    C1      19.889666   18.267643   21.140684 C.3        1 MOL1        -0.1684
       2    H1      20.109702   19.281132   20.786643 H          1 MOL1         0.0833
       3    H2      19.636168   17.706232   20.231163 H          1 MOL1         0.0833
       4    C2      18.631243   18.271862   22.044051 C.3        1 MOL1        -0.1684
       5    H3      17.795015   18.651646   21.441234 H          1 MOL1         0.0833
       6    H4      18.365830   17.237530   22.301387 H          1 MOL1         0.0833
       7    C3      18.697652   19.112508   23.344691 C.3        1 MOL1        -0.1684
       8    H5      19.187975   18.546092   24.144578 H          1 MOL1         0.0833
       9    H6      17.665573   19.247061   23.696420 H          1 MOL1         0.0833
      10    C4      19.345313   20.514968   23.194956 C.3        1 MOL1        -0.1760
      11    H7      19.270049   20.873842   22.161358 H          1 MOL1         0.0833
      12    H8      18.745422   21.216466   23.790162 H          1 MOL1         0.0833
      13    C5      20.803354   20.617915   23.708756 C.3        1 MOL1         0.1219
      14    H9      20.829539   20.243640   24.742116 H          1 MOL1         0.0790
      15    C6      21.880263   19.859208   22.893213 C.3        1 MOL1        -0.1760
      16    H10     21.888383   20.196524   21.849694 H          1 MOL1         0.0833
      17    H11     22.856945   20.152861   23.300766 H          1 MOL1         0.0833
      18    C7      21.792566   18.311891   22.976277 C.3        1 MOL1        -0.1684
      19    H12     21.280900   18.004672   23.895450 H          1 MOL1         0.0833
      20    H13     22.811671   17.915828   23.083813 H          1 MOL1         0.0833
      21    C8      21.160265   17.617634   21.743001 C.3        1 MOL1        -0.1684
      22    H14     20.947534   16.569674   21.994063 H          1 MOL1         0.0833
      23    H15     21.920043   17.584551   20.950193 H          1 MOL1         0.0833
      24    O1      21.160356   21.993285   23.718986 O.3        1 MOL1        -0.5508
      25    H16     21.127214   22.294143   22.787765 H          1 MOL1         0.3780
@<TRIPOS>BOND
    1     1     2    1
    2     1     3    1
    3     1     4    1
    4     4     5    1
    5     4     6    1
    6     4     7    1
    7     7     8    1
    8     7     9    1
    9     7    10    1
   10    10    11    1
   11    10    12    1
   12    10    13    1
   13    13    14    1
   14    13    15    1
   15    15    16    1
   16    15    17    1
   17    15    18    1
   18    18    19    1
   19    18    20    1
   20     1    21    1
   21    18    21    1
   22    21    22    1
   23    21    23    1
   24    13    24    1
   25    24    25    1
@<TRIPOS>SUBSTRUCTURE
       1 MOL1            1 RESIDUE      1      MOL     
@<SCITEGIC>MOL_PROPERTY
VConf Rank
SciTegic.value.IntegerValue
645

@<SCITEGIC>MOL_PROPERTY
Conf_Id
SciTegic.value.IntegerValue
15

@<SCITEGIC>MOL_PROPERTY
Delta U+W
SciTegic.value.DoubleValue
-1.271

@<SCITEGIC>MOL_PROPERTY
U+W
SciTegic.value.DoubleValue
9.643

@<SCITEGIC>MOL_PROPERTY
Grad RMS
SciTegic.value.DoubleValue
0.000000

@<SCITEGIC>MOL_PROPERTY
U
SciTegic.value.DoubleValue
11.413

@<SCITEGIC>MOL_PROPERTY
W
SciTegic.value.DoubleValue
-1.770

@<SCITEGIC>MOL_PROPERTY
W(PB)
SciTegic.value.DoubleValue
-3.908

@<SCITEGIC>MOL_PROPERTY
W(SA)
SciTegic.value.DoubleValue
2.138

@<SCITEGIC>MOL_PROPERTY
Valence
SciTegic.value.DoubleValue
17.496

@<SCITEGIC>MOL_PROPERTY
Coulomb
SciTegic.value.DoubleValue
-8.736

@<SCITEGIC>MOL_PROPERTY
VdW
SciTegic.value.DoubleValue
2.653

@<SCITEGIC>MOL_PROPERTY
VdW6
SciTegic.value.DoubleValue
-12.485

@<SCITEGIC>MOL_PROPERTY
VdW12
SciTegic.value.DoubleValue
15.138

@<SCITEGIC>MOL_PROPERTY
Bond
SciTegic.value.DoubleValue
0.414

@<SCITEGIC>MOL_PROPERTY
Angle
SciTegic.value.DoubleValue
5.295

@<SCITEGIC>MOL_PROPERTY
Pdih
SciTegic.value.DoubleValue
11.787

@<SCITEGIC>MOL_PROPERTY
Idih
SciTegic.value.DoubleValue
0.000

@<SCITEGIC>MOL_PROPERTY
Tether
SciTegic.value.DoubleValue
0.000

@<TRIPOS>MOLECULE
guest-s17_confgen4.mol2 : confsearch ligand conformer 646
          25          25           1
SMALL
USER_CHARGES
 
@<TRIPOS>ATOM
       1    C1      21.574201   18.775968   21.245782 C.3        1 MOL1        -0.1684
       2    H1      22.284170   18.718571   20.409342 H          1 MOL1         0.0833
       3    H2      21.055378   17.809045   21.239011 H          1 MOL1         0.0833
       4    C2      22.412429   18.937919   22.541147 C.3        1 MOL1        -0.1684
       5    H3      22.979464   18.010252   22.698407 H          1 MOL1         0.0833
       6    H4      23.163643   19.723582   22.382444 H          1 MOL1         0.0833
       7    C3      21.632001   19.267407   23.836408 C.3        1 MOL1        -0.1684
       8    H5      21.374885   20.333011   23.848688 H          1 MOL1         0.0833
       9    H6      22.312904   19.133414   24.687997 H          1 MOL1         0.0833
      10    C4      20.374762   18.387266   24.060365 C.3        1 MOL1        -0.1760
      11    H7      20.338586   17.565600   23.336523 H          1 MOL1         0.0833
      12    H8      20.463949   17.897499   25.038818 H          1 MOL1         0.0833
      13    C5      19.037998   19.163913   24.048234 C.3        1 MOL1         0.1219
      14    H9      18.972444   19.727263   24.990131 H          1 MOL1         0.0790
      15    C6      18.837145   20.179978   22.894219 C.3        1 MOL1        -0.1760
      16    H10     17.790145   20.509219   22.935738 H          1 MOL1         0.0833
      17    H11     19.417558   21.089544   23.089981 H          1 MOL1         0.0833
      18    C7      19.124127   19.675254   21.454796 C.3        1 MOL1        -0.1684
      19    H12     18.455045   20.232681   20.784910 H          1 MOL1         0.0833
      20    H13     18.836529   18.622339   21.338744 H          1 MOL1         0.0833
      21    C8      20.571376   19.916976   20.944092 C.3        1 MOL1        -0.1684
      22    H14     20.960767   20.882036   21.295121 H          1 MOL1         0.0833
      23    H15     20.511838   20.008166   19.850788 H          1 MOL1         0.0833
      24    O1      17.977015   18.219971   24.007072 O.3        1 MOL1        -0.5508
      25    H16     18.016280   17.811671   23.118875 H          1 MOL1         0.3780
@<TRIPOS>BOND
    1     1     2    1
    2     1     3    1
    3     1     4    1
    4     4     5    1
    5     4     6    1
    6     4     7    1
    7     7     8    1
    8     7     9    1
    9     7    10    1
   10    10    11    1
   11    10    12    1
   12    10    13    1
   13    13    14    1
   14    13    15    1
   15    15    16    1
   16    15    17    1
   17    15    18    1
   18    18    19    1
   19    18    20    1
   20     1    21    1
   21    18    21    1
   22    21    22    1
   23    21    23    1
   24    13    24    1
   25    24    25    1
@<TRIPOS>SUBSTRUCTURE
       1 MOL1            1 RESIDUE      1      MOL     
@<SCITEGIC>MOL_PROPERTY
VConf Rank
SciTegic.value.IntegerValue
646

@<SCITEGIC>MOL_PROPERTY
Conf_Id
SciTegic.value.IntegerValue
115

@<SCITEGIC>MOL_PROPERTY
Delta U+W
SciTegic.value.DoubleValue
0.038

@<SCITEGIC>MOL_PROPERTY
U+W
SciTegic.value.DoubleValue
10.952

@<SCITEGIC>MOL_PROPERTY
Grad RMS
SciTegic.value.DoubleValue
0.000000

@<SCITEGIC>MOL_PROPERTY
U
SciTegic.value.DoubleValue
12.526

@<SCITEGIC>MOL_PROPERTY
W
SciTegic.value.DoubleValue
-1.575

@<SCITEGIC>MOL_PROPERTY
W(PB)
SciTegic.value.DoubleValue
-3.698

@<SCITEGIC>MOL_PROPERTY
W(SA)
SciTegic.value.DoubleValue
2.123

@<SCITEGIC>MOL_PROPERTY
Valence
SciTegic.value.DoubleValue
19.016

@<SCITEGIC>MOL_PROPERTY
Coulomb
SciTegic.value.DoubleValue
-9.226

@<SCITEGIC>MOL_PROPERTY
VdW
SciTegic.value.DoubleValue
2.737

@<SCITEGIC>MOL_PROPERTY
VdW6
SciTegic.value.DoubleValue
-12.612

@<SCITEGIC>MOL_PROPERTY
VdW12
SciTegic.value.DoubleValue
15.349

@<SCITEGIC>MOL_PROPERTY
Bond
SciTegic.value.DoubleValue
0.421

@<SCITEGIC>MOL_PROPERTY
Angle
SciTegic.value.DoubleValue
4.883

@<SCITEGIC>MOL_PROPERTY
Pdih
SciTegic.value.DoubleValue
13.711

@<SCITEGIC>MOL_PROPERTY
Idih
SciTegic.value.DoubleValue
0.000

@<SCITEGIC>MOL_PROPERTY
Tether
SciTegic.value.DoubleValue
0.000

@<TRIPOS>MOLECULE
guest-s17_confgen4.mol2 : confsearch ligand conformer 647
          25          25           1
SMALL
USER_CHARGES
 
@<TRIPOS>ATOM
       1    C1      21.394775   18.131267   24.141092 C.3        1 MOL1        -0.1684
       2    H1      22.155011   17.411127   24.473394 H          1 MOL1         0.0833
       3    H2      21.056718   18.643433   25.052070 H          1 MOL1         0.0833
       4    C2      20.230918   17.320760   23.524607 C.3        1 MOL1        -0.1684
       5    H3      20.597226   16.712812   22.686268 H          1 MOL1         0.0833
       6    H4      19.892533   16.602557   24.284001 H          1 MOL1         0.0833
       7    C3      19.008210   18.157966   23.083060 C.3        1 MOL1        -0.1684
       8    H5      18.785497   18.931139   23.830443 H          1 MOL1         0.0833
       9    H6      18.135208   17.490863   23.085001 H          1 MOL1         0.0833
      10    C4      19.129029   18.763171   21.658606 C.3        1 MOL1        -0.1760
      11    H7      19.956679   18.307623   21.100682 H          1 MOL1         0.0833
      12    H8      18.219200   18.488289   21.107959 H          1 MOL1         0.0833
      13    C5      19.255289   20.302986   21.627248 C.3        1 MOL1         0.1219
      14    H9      18.638865   20.727015   22.432786 H          1 MOL1         0.0790
      15    C6      20.699147   20.834026   21.767622 C.3        1 MOL1        -0.1760
      16    H10     21.314905   20.469393   20.934870 H          1 MOL1         0.0833
      17    H11     20.662607   21.925674   21.656354 H          1 MOL1         0.0833
      18    C7      21.392036   20.525609   23.117234 C.3        1 MOL1        -0.1684
      19    H12     20.689089   20.666082   23.949197 H          1 MOL1         0.0833
      20    H13     22.172410   21.284847   23.264898 H          1 MOL1         0.0833
      21    C8      22.078678   19.136377   23.184761 C.3        1 MOL1        -0.1684
      22    H14     23.101621   19.293442   23.553708 H          1 MOL1         0.0833
      23    H15     22.195213   18.696116   22.185553 H          1 MOL1         0.0833
      24    O1      18.751336   20.760592   20.378138 O.3        1 MOL1        -0.5508
      25    H16     18.789643   21.739592   20.398747 H          1 MOL1         0.3780
@<TRIPOS>BOND
    1     1     2    1
    2     1     3    1
    3     1     4    1
    4     4     5    1
    5     4     6    1
    6     4     7    1
    7     7     8    1
    8     7     9    1
    9     7    10    1
   10    10    11    1
   11    10    12    1
   12    10    13    1
   13    13    14    1
   14    13    15    1
   15    15    16    1
   16    15    17    1
   17    15    18    1
   18    18    19    1
   19    18    20    1
   20     1    21    1
   21    18    21    1
   22    21    22    1
   23    21    23    1
   24    13    24    1
   25    24    25    1
@<TRIPOS>SUBSTRUCTURE
       1 MOL1            1 RESIDUE      1      MOL     
@<SCITEGIC>MOL_PROPERTY
VConf Rank
SciTegic.value.IntegerValue
647

@<SCITEGIC>MOL_PROPERTY
Conf_Id
SciTegic.value.IntegerValue
30

@<SCITEGIC>MOL_PROPERTY
Delta U+W
SciTegic.value.DoubleValue
0.000

@<SCITEGIC>MOL_PROPERTY
U+W
SciTegic.value.DoubleValue
10.913

@<SCITEGIC>MOL_PROPERTY
Grad RMS
SciTegic.value.DoubleValue
0.000000

@<SCITEGIC>MOL_PROPERTY
U
SciTegic.value.DoubleValue
13.140

@<SCITEGIC>MOL_PROPERTY
W
SciTegic.value.DoubleValue
-2.227

@<SCITEGIC>MOL_PROPERTY
W(PB)
SciTegic.value.DoubleValue
-4.367

@<SCITEGIC>MOL_PROPERTY
W(SA)
SciTegic.value.DoubleValue
2.140

@<SCITEGIC>MOL_PROPERTY
Valence
SciTegic.value.DoubleValue
19.155

@<SCITEGIC>MOL_PROPERTY
Coulomb
SciTegic.value.DoubleValue
-8.157

@<SCITEGIC>MOL_PROPERTY
VdW
SciTegic.value.DoubleValue
2.142

@<SCITEGIC>MOL_PROPERTY
VdW6
SciTegic.value.DoubleValue
-11.576

@<SCITEGIC>MOL_PROPERTY
VdW12
SciTegic.value.DoubleValue
13.718

@<SCITEGIC>MOL_PROPERTY
Bond
SciTegic.value.DoubleValue
0.294

@<SCITEGIC>MOL_PROPERTY
Angle
SciTegic.value.DoubleValue
3.547

@<SCITEGIC>MOL_PROPERTY
Pdih
SciTegic.value.DoubleValue
15.314

@<SCITEGIC>MOL_PROPERTY
Idih
SciTegic.value.DoubleValue
0.000

@<SCITEGIC>MOL_PROPERTY
Tether
SciTegic.value.DoubleValue
0.000

@<TRIPOS>MOLECULE
guest-s17_confgen4.mol2 : confsearch ligand conformer 648
          25          25           1
SMALL
USER_CHARGES
 
@<TRIPOS>ATOM
       1    C1      21.647627   20.360975   21.426518 C.3        1 MOL1        -0.1684
       2    H1      21.525184   21.249993   20.792868 H          1 MOL1         0.0833
       3    H2      22.687399   20.036246   21.284401 H          1 MOL1         0.0833
       4    C2      20.714364   19.245917   20.893835 C.3        1 MOL1        -0.1684
       5    H3      20.797333   19.229934   19.798512 H          1 MOL1         0.0833
       6    H4      21.089997   18.267185   21.214050 H          1 MOL1         0.0833
       7    C3      19.222522   19.423006   21.274422 C.3        1 MOL1        -0.1684
       8    H5      18.621348   19.421789   20.355034 H          1 MOL1         0.0833
       9    H6      19.045047   20.407246   21.723210 H          1 MOL1         0.0833
      10    C4      18.672823   18.315842   22.209075 C.3        1 MOL1        -0.1760
      11    H7      17.682996   18.626104   22.569268 H          1 MOL1         0.0833
      12    H8      18.505939   17.409297   21.612843 H          1 MOL1         0.0833
      13    C5      19.552280   17.924384   23.422950 C.3        1 MOL1         0.1219
      14    H9      20.435307   17.376498   23.067887 H          1 MOL1         0.0790
      15    C6      20.024960   19.108497   24.301441 C.3        1 MOL1        -0.1760
      16    H10     19.277519   19.912118   24.292669 H          1 MOL1         0.0833
      17    H11     20.068492   18.764358   25.343395 H          1 MOL1         0.0833
      18    C7      21.436416   19.660359   23.953605 C.3        1 MOL1        -0.1684
      19    H12     22.119815   18.850765   23.663875 H          1 MOL1         0.0833
      20    H13     21.853810   20.075835   24.881182 H          1 MOL1         0.0833
      21    C8      21.455936   20.798342   22.903169 C.3        1 MOL1        -0.1684
      22    H14     22.290651   21.469288   23.148422 H          1 MOL1         0.0833
      23    H15     20.558162   21.420687   23.008129 H          1 MOL1         0.0833
      24    O1      18.782389   17.043551   24.232652 O.3        1 MOL1        -0.5508
      25    H16     19.370321   16.737085   24.954364 H          1 MOL1         0.3780
@<TRIPOS>BOND
    1     1     2    1
    2     1     3    1
    3     1     4    1
    4     4     5    1
    5     4     6    1
    6     4     7    1
    7     7     8    1
    8     7     9    1
    9     7    10    1
   10    10    11    1
   11    10    12    1
   12    10    13    1
   13    13    14    1
   14    13    15    1
   15    15    16    1
   16    15    17    1
   17    15    18    1
   18    18    19    1
   19    18    20    1
   20     1    21    1
   21    18    21    1
   22    21    22    1
   23    21    23    1
   24    13    24    1
   25    24    25    1
@<TRIPOS>SUBSTRUCTURE
       1 MOL1            1 RESIDUE      1      MOL     
@<SCITEGIC>MOL_PROPERTY
VConf Rank
SciTegic.value.IntegerValue
648

@<SCITEGIC>MOL_PROPERTY
Conf_Id
SciTegic.value.IntegerValue
162

@<SCITEGIC>MOL_PROPERTY
Delta U+W
SciTegic.value.DoubleValue
0.219

@<SCITEGIC>MOL_PROPERTY
U+W
SciTegic.value.DoubleValue
11.132

@<SCITEGIC>MOL_PROPERTY
Grad RMS
SciTegic.value.DoubleValue
0.000000

@<SCITEGIC>MOL_PROPERTY
U
SciTegic.value.DoubleValue
13.296

@<SCITEGIC>MOL_PROPERTY
W
SciTegic.value.DoubleValue
-2.164

@<SCITEGIC>MOL_PROPERTY
W(PB)
SciTegic.value.DoubleValue
-4.311

@<SCITEGIC>MOL_PROPERTY
W(SA)
SciTegic.value.DoubleValue
2.148

@<SCITEGIC>MOL_PROPERTY
Valence
SciTegic.value.DoubleValue
18.607

@<SCITEGIC>MOL_PROPERTY
Coulomb
SciTegic.value.DoubleValue
-8.339

@<SCITEGIC>MOL_PROPERTY
VdW
SciTegic.value.DoubleValue
3.028

@<SCITEGIC>MOL_PROPERTY
VdW6
SciTegic.value.DoubleValue
-12.271

@<SCITEGIC>MOL_PROPERTY
VdW12
SciTegic.value.DoubleValue
15.299

@<SCITEGIC>MOL_PROPERTY
Bond
SciTegic.value.DoubleValue
0.423

@<SCITEGIC>MOL_PROPERTY
Angle
SciTegic.value.DoubleValue
4.488

@<SCITEGIC>MOL_PROPERTY
Pdih
SciTegic.value.DoubleValue
13.696

@<SCITEGIC>MOL_PROPERTY
Idih
SciTegic.value.DoubleValue
0.000

@<SCITEGIC>MOL_PROPERTY
Tether
SciTegic.value.DoubleValue
0.000

@<TRIPOS>MOLECULE
guest-s17_confgen4.mol2 : confsearch ligand conformer 649
          25          25           1
SMALL
USER_CHARGES
 
@<TRIPOS>ATOM
       1    C1      19.370410   17.639666   23.383879 C.3        1 MOL1        -0.1684
       2    H1      18.727401   17.697732   22.496545 H          1 MOL1         0.0833
       3    H2      19.015592   16.754226   23.928917 H          1 MOL1         0.0833
       4    C2      20.837392   17.382654   22.957721 C.3        1 MOL1        -0.1684
       5    H3      21.531923   17.668760   23.758971 H          1 MOL1         0.0833
       6    H4      20.951494   16.295333   22.848850 H          1 MOL1         0.0833
       7    C3      21.253276   18.016794   21.601082 C.3        1 MOL1        -0.1684
       8    H5      20.430468   17.975408   20.874832 H          1 MOL1         0.0833
       9    H6      22.043086   17.378585   21.181534 H          1 MOL1         0.0833
      10    C4      21.836906   19.450746   21.692437 C.3        1 MOL1        -0.1760
      11    H7      22.398197   19.567503   22.627645 H          1 MOL1         0.0833
      12    H8      22.586490   19.558904   20.897678 H          1 MOL1         0.0833
      13    C5      20.831228   20.615765   21.511695 C.3        1 MOL1         0.1219
      14    H9      20.521462   20.632334   20.456773 H          1 MOL1         0.0790
      15    C6      19.544137   20.548793   22.367829 C.3        1 MOL1        -0.1760
      16    H10     19.032128   21.517796   22.305545 H          1 MOL1         0.0833
      17    H11     18.846442   19.841885   21.906224 H          1 MOL1         0.0833
      18    C7      19.775152   20.202280   23.862498 C.3        1 MOL1        -0.1684
      19    H12     19.354098   21.006609   24.480662 H          1 MOL1         0.0833
      20    H13     20.844989   20.197162   24.102357 H          1 MOL1         0.0833
      21    C8      19.138111   18.864014   24.308600 C.3        1 MOL1        -0.1684
      22    H14     18.054655   19.008800   24.417678 H          1 MOL1         0.0833
      23    H15     19.510094   18.624991   25.314189 H          1 MOL1         0.0833
      24    O1      21.512351   21.828286   21.811638 O.3        1 MOL1        -0.5508
      25    H16     20.863228   22.552293   21.695147 H          1 MOL1         0.3780
@<TRIPOS>BOND
    1     1     2    1
    2     1     3    1
    3     1     4    1
    4     4     5    1
    5     4     6    1
    6     4     7    1
    7     7     8    1
    8     7     9    1
    9     7    10    1
   10    10    11    1
   11    10    12    1
   12    10    13    1
   13    13    14    1
   14    13    15    1
   15    15    16    1
   16    15    17    1
   17    15    18    1
   18    18    19    1
   19    18    20    1
   20     1    21    1
   21    18    21    1
   22    21    22    1
   23    21    23    1
   24    13    24    1
   25    24    25    1
@<TRIPOS>SUBSTRUCTURE
       1 MOL1            1 RESIDUE      1      MOL     
@<SCITEGIC>MOL_PROPERTY
VConf Rank
SciTegic.value.IntegerValue
649

@<SCITEGIC>MOL_PROPERTY
Conf_Id
SciTegic.value.IntegerValue
155

@<SCITEGIC>MOL_PROPERTY
Delta U+W
SciTegic.value.DoubleValue
0.339

@<SCITEGIC>MOL_PROPERTY
U+W
SciTegic.value.DoubleValue
11.252

@<SCITEGIC>MOL_PROPERTY
Grad RMS
SciTegic.value.DoubleValue
0.000000

@<SCITEGIC>MOL_PROPERTY
U
SciTegic.value.DoubleValue
13.420

@<SCITEGIC>MOL_PROPERTY
W
SciTegic.value.DoubleValue
-2.167

@<SCITEGIC>MOL_PROPERTY
W(PB)
SciTegic.value.DoubleValue
-4.325

@<SCITEGIC>MOL_PROPERTY
W(SA)
SciTegic.value.DoubleValue
2.157

@<SCITEGIC>MOL_PROPERTY
Valence
SciTegic.value.DoubleValue
18.609

@<SCITEGIC>MOL_PROPERTY
Coulomb
SciTegic.value.DoubleValue
-8.052

@<SCITEGIC>MOL_PROPERTY
VdW
SciTegic.value.DoubleValue
2.863

@<SCITEGIC>MOL_PROPERTY
VdW6
SciTegic.value.DoubleValue
-12.524

@<SCITEGIC>MOL_PROPERTY
VdW12
SciTegic.value.DoubleValue
15.387

@<SCITEGIC>MOL_PROPERTY
Bond
SciTegic.value.DoubleValue
0.430

@<SCITEGIC>MOL_PROPERTY
Angle
SciTegic.value.DoubleValue
4.724

@<SCITEGIC>MOL_PROPERTY
Pdih
SciTegic.value.DoubleValue
13.455

@<SCITEGIC>MOL_PROPERTY
Idih
SciTegic.value.DoubleValue
0.000

@<SCITEGIC>MOL_PROPERTY
Tether
SciTegic.value.DoubleValue
0.000

@<TRIPOS>MOLECULE
guest-s17_confgen4.mol2 : confsearch ligand conformer 650
          25          25           1
SMALL
USER_CHARGES
 
@<TRIPOS>ATOM
       1    C1      20.063176   18.744586   20.746920 C.3        1 MOL1        -0.1684
       2    H1      19.531121   19.508548   20.164151 H          1 MOL1         0.0833
       3    H2      20.285346   17.936957   20.036175 H          1 MOL1         0.0833
       4    C2      21.425586   19.317998   21.217937 C.3        1 MOL1        -0.1684
       5    H3      22.006100   18.523266   21.697045 H          1 MOL1         0.0833
       6    H4      22.011997   19.559247   20.320921 H          1 MOL1         0.0833
       7    C3      21.400435   20.596858   22.105123 C.3        1 MOL1        -0.1684
       8    H5      21.370726   21.463990   21.431512 H          1 MOL1         0.0833
       9    H6      22.354822   20.675606   22.643327 H          1 MOL1         0.0833
      10    C4      20.232166   20.765967   23.114308 C.3        1 MOL1        -0.1760
      11    H7      20.307708   21.776333   23.537099 H          1 MOL1         0.0833
      12    H8      19.286022   20.796114   22.566899 H          1 MOL1         0.0833
      13    C5      20.139092   19.759750   24.298863 C.3        1 MOL1         0.1219
      14    H9      19.094931   19.742870   24.642684 H          1 MOL1         0.0790
      15    C6      20.577687   18.296989   24.037124 C.3        1 MOL1        -0.1760
      16    H10     21.634237   18.286061   23.754104 H          1 MOL1         0.0833
      17    H11     20.562369   17.770642   25.000633 H          1 MOL1         0.0833
      18    C7      19.728720   17.448477   23.043351 C.3        1 MOL1        -0.1684
      19    H12     18.903679   17.001293   23.614466 H          1 MOL1         0.0833
      20    H13     20.334080   16.601911   22.692369 H          1 MOL1         0.0833
      21    C8      19.096700   18.165212   21.821250 C.3        1 MOL1        -0.1684
      22    H14     18.398291   18.932009   22.170855 H          1 MOL1         0.0833
      23    H15     18.446876   17.440424   21.312044 H          1 MOL1         0.0833
      24    O1      20.954894   20.253650   25.355609 O.3        1 MOL1        -0.5508
      25    H16     20.641965   21.160112   25.554717 H          1 MOL1         0.3780
@<TRIPOS>BOND
    1     1     2    1
    2     1     3    1
    3     1     4    1
    4     4     5    1
    5     4     6    1
    6     4     7    1
    7     7     8    1
    8     7     9    1
    9     7    10    1
   10    10    11    1
   11    10    12    1
   12    10    13    1
   13    13    14    1
   14    13    15    1
   15    15    16    1
   16    15    17    1
   17    15    18    1
   18    18    19    1
   19    18    20    1
   20     1    21    1
   21    18    21    1
   22    21    22    1
   23    21    23    1
   24    13    24    1
   25    24    25    1
@<TRIPOS>SUBSTRUCTURE
       1 MOL1            1 RESIDUE      1      MOL     
@<SCITEGIC>MOL_PROPERTY
VConf Rank
SciTegic.value.IntegerValue
650

@<SCITEGIC>MOL_PROPERTY
Conf_Id
SciTegic.value.IntegerValue
146

@<SCITEGIC>MOL_PROPERTY
Delta U+W
SciTegic.value.DoubleValue
2.553

@<SCITEGIC>MOL_PROPERTY
U+W
SciTegic.value.DoubleValue
13.466

@<SCITEGIC>MOL_PROPERTY
Grad RMS
SciTegic.value.DoubleValue
0.000000

@<SCITEGIC>MOL_PROPERTY
U
SciTegic.value.DoubleValue
15.643

@<SCITEGIC>MOL_PROPERTY
W
SciTegic.value.DoubleValue
-2.176

@<SCITEGIC>MOL_PROPERTY
W(PB)
SciTegic.value.DoubleValue
-4.307

@<SCITEGIC>MOL_PROPERTY
W(SA)
SciTegic.value.DoubleValue
2.131

@<SCITEGIC>MOL_PROPERTY
Valence
SciTegic.value.DoubleValue
18.916

@<SCITEGIC>MOL_PROPERTY
Coulomb
SciTegic.value.DoubleValue
-7.506

@<SCITEGIC>MOL_PROPERTY
VdW
SciTegic.value.DoubleValue
4.232

@<SCITEGIC>MOL_PROPERTY
VdW6
SciTegic.value.DoubleValue
-13.632

@<SCITEGIC>MOL_PROPERTY
VdW12
SciTegic.value.DoubleValue
17.864

@<SCITEGIC>MOL_PROPERTY
Bond
SciTegic.value.DoubleValue
0.735

@<SCITEGIC>MOL_PROPERTY
Angle
SciTegic.value.DoubleValue
9.140

@<SCITEGIC>MOL_PROPERTY
Pdih
SciTegic.value.DoubleValue
9.042

@<SCITEGIC>MOL_PROPERTY
Idih
SciTegic.value.DoubleValue
0.000

@<SCITEGIC>MOL_PROPERTY
Tether
SciTegic.value.DoubleValue
0.000

@<TRIPOS>MOLECULE
guest-s17_confgen4.mol2 : confsearch ligand conformer 651
          25          25           1
SMALL
USER_CHARGES
 
@<TRIPOS>ATOM
       1    C1      20.804134   17.680963   23.924195 C.3        1 MOL1        -0.1684
       2    H1      21.315314   17.829420   24.885007 H          1 MOL1         0.0833
       3    H2      20.647720   16.597114   23.836338 H          1 MOL1         0.0833
       4    C2      21.747891   18.106791   22.771748 C.3        1 MOL1        -0.1684
       5    H3      22.639210   17.467058   22.827354 H          1 MOL1         0.0833
       6    H4      21.297184   17.867553   21.801813 H          1 MOL1         0.0833
       7    C3      22.235421   19.577184   22.797055 C.3        1 MOL1        -0.1684
       8    H5      22.979098   19.692768   21.996701 H          1 MOL1         0.0833
       9    H6      22.775659   19.764643   23.734843 H          1 MOL1         0.0833
      10    C4      21.159435   20.678034   22.607094 C.3        1 MOL1        -0.1760
      11    H7      20.647531   20.876928   23.553912 H          1 MOL1         0.0833
      12    H8      21.690420   21.612627   22.380981 H          1 MOL1         0.0833
      13    C5      20.124076   20.400221   21.486858 C.3        1 MOL1         0.1219
      14    H9      20.527935   19.654693   20.788768 H          1 MOL1         0.0790
      15    C6      18.743059   19.923774   22.004113 C.3        1 MOL1        -0.1760
      16    H10     18.356950   20.654843   22.726733 H          1 MOL1         0.0833
      17    H11     18.040684   19.941343   21.160489 H          1 MOL1         0.0833
      18    C7      18.679132   18.503068   22.627902 C.3        1 MOL1        -0.1684
      19    H12     19.023414   17.746678   21.910864 H          1 MOL1         0.0833
      20    H13     17.617877   18.274961   22.797274 H          1 MOL1         0.0833
      21    C8      19.409492   18.355751   23.987812 C.3        1 MOL1        -0.1684
      22    H14     18.782981   17.739191   24.646884 H          1 MOL1         0.0833
      23    H15     19.471437   19.323431   24.498285 H          1 MOL1         0.0833
      24    O1      19.912559   21.611440   20.770229 O.3        1 MOL1        -0.5508
      25    H16     19.302483   21.401419   20.032720 H          1 MOL1         0.3780
@<TRIPOS>BOND
    1     1     2    1
    2     1     3    1
    3     1     4    1
    4     4     5    1
    5     4     6    1
    6     4     7    1
    7     7     8    1
    8     7     9    1
    9     7    10    1
   10    10    11    1
   11    10    12    1
   12    10    13    1
   13    13    14    1
   14    13    15    1
   15    15    16    1
   16    15    17    1
   17    15    18    1
   18    18    19    1
   19    18    20    1
   20     1    21    1
   21    18    21    1
   22    21    22    1
   23    21    23    1
   24    13    24    1
   25    24    25    1
@<TRIPOS>SUBSTRUCTURE
       1 MOL1            1 RESIDUE      1      MOL     
@<SCITEGIC>MOL_PROPERTY
VConf Rank
SciTegic.value.IntegerValue
651

@<SCITEGIC>MOL_PROPERTY
Conf_Id
SciTegic.value.IntegerValue
62

@<SCITEGIC>MOL_PROPERTY
Delta U+W
SciTegic.value.DoubleValue
-1.779

@<SCITEGIC>MOL_PROPERTY
U+W
SciTegic.value.DoubleValue
9.134

@<SCITEGIC>MOL_PROPERTY
Grad RMS
SciTegic.value.DoubleValue
0.000000

@<SCITEGIC>MOL_PROPERTY
U
SciTegic.value.DoubleValue
11.364

@<SCITEGIC>MOL_PROPERTY
W
SciTegic.value.DoubleValue
-2.230

@<SCITEGIC>MOL_PROPERTY
W(PB)
SciTegic.value.DoubleValue
-4.359

@<SCITEGIC>MOL_PROPERTY
W(SA)
SciTegic.value.DoubleValue
2.129

@<SCITEGIC>MOL_PROPERTY
Valence
SciTegic.value.DoubleValue
16.582

@<SCITEGIC>MOL_PROPERTY
Coulomb
SciTegic.value.DoubleValue
-8.150

@<SCITEGIC>MOL_PROPERTY
VdW
SciTegic.value.DoubleValue
2.933

@<SCITEGIC>MOL_PROPERTY
VdW6
SciTegic.value.DoubleValue
-12.531

@<SCITEGIC>MOL_PROPERTY
VdW12
SciTegic.value.DoubleValue
15.464

@<SCITEGIC>MOL_PROPERTY
Bond
SciTegic.value.DoubleValue
0.439

@<SCITEGIC>MOL_PROPERTY
Angle
SciTegic.value.DoubleValue
5.099

@<SCITEGIC>MOL_PROPERTY
Pdih
SciTegic.value.DoubleValue
11.044

@<SCITEGIC>MOL_PROPERTY
Idih
SciTegic.value.DoubleValue
0.000

@<SCITEGIC>MOL_PROPERTY
Tether
SciTegic.value.DoubleValue
0.000

@<TRIPOS>MOLECULE
guest-s17_confgen4.mol2 : confsearch ligand conformer 652
          25          25           1
SMALL
USER_CHARGES
 
@<TRIPOS>ATOM
       1    C1      21.972604   20.027997   22.205319 C.3        1 MOL1        -0.1684
       2    H1      21.200858   20.734851   21.879912 H          1 MOL1         0.0833
       3    H2      22.920823   20.502321   21.918028 H          1 MOL1         0.0833
       4    C2      21.861470   18.703132   21.410313 C.3        1 MOL1        -0.1684
       5    H3      21.994002   18.945553   20.347037 H          1 MOL1         0.0833
       6    H4      22.704771   18.050325   21.673337 H          1 MOL1         0.0833
       7    C3      20.541969   17.902281   21.552706 C.3        1 MOL1        -0.1684
       8    H5      20.563681   17.282483   22.456239 H          1 MOL1         0.0833
       9    H6      20.510840   17.180210   20.725259 H          1 MOL1         0.0833
      10    C4      19.242967   18.750597   21.505106 C.3        1 MOL1        -0.1760
      11    H7      19.407820   19.695097   20.972193 H          1 MOL1         0.0833
      12    H8      18.516744   18.197388   20.895268 H          1 MOL1         0.0833
      13    C5      18.583876   19.012585   22.882914 C.3        1 MOL1         0.1219
      14    H9      18.443003   18.045618   23.387007 H          1 MOL1         0.0790
      15    C6      19.352759   19.950313   23.846966 C.3        1 MOL1        -0.1760
      16    H10     19.518128   20.929175   23.380842 H          1 MOL1         0.0833
      17    H11     18.689241   20.145661   24.699839 H          1 MOL1         0.0833
      18    C7      20.675580   19.367829   24.413028 C.3        1 MOL1        -0.1684
      19    H12     20.653545   18.272398   24.390871 H          1 MOL1         0.0833
      20    H13     20.731758   19.619768   25.480886 H          1 MOL1         0.0833
      21    C8      21.971301   19.900058   23.749130 C.3        1 MOL1        -0.1684
      22    H14     22.816257   19.271888   24.062077 H          1 MOL1         0.0833
      23    H15     22.174228   20.897787   24.161731 H          1 MOL1         0.0833
      24    O1      17.307963   19.594722   22.647141 O.3        1 MOL1        -0.5508
      25    H16     16.806004   18.961694   22.092649 H          1 MOL1         0.3780
@<TRIPOS>BOND
    1     1     2    1
    2     1     3    1
    3     1     4    1
    4     4     5    1
    5     4     6    1
    6     4     7    1
    7     7     8    1
    8     7     9    1
    9     7    10    1
   10    10    11    1
   11    10    12    1
   12    10    13    1
   13    13    14    1
   14    13    15    1
   15    15    16    1
   16    15    17    1
   17    15    18    1
   18    18    19    1
   19    18    20    1
   20     1    21    1
   21    18    21    1
   22    21    22    1
   23    21    23    1
   24    13    24    1
   25    24    25    1
@<TRIPOS>SUBSTRUCTURE
       1 MOL1            1 RESIDUE      1      MOL     
@<SCITEGIC>MOL_PROPERTY
VConf Rank
SciTegic.value.IntegerValue
652

@<SCITEGIC>MOL_PROPERTY
Conf_Id
SciTegic.value.IntegerValue
121

@<SCITEGIC>MOL_PROPERTY
Delta U+W
SciTegic.value.DoubleValue
-1.283

@<SCITEGIC>MOL_PROPERTY
U+W
SciTegic.value.DoubleValue
9.630

@<SCITEGIC>MOL_PROPERTY
Grad RMS
SciTegic.value.DoubleValue
0.000000

@<SCITEGIC>MOL_PROPERTY
U
SciTegic.value.DoubleValue
11.876

@<SCITEGIC>MOL_PROPERTY
W
SciTegic.value.DoubleValue
-2.246

@<SCITEGIC>MOL_PROPERTY
W(PB)
SciTegic.value.DoubleValue
-4.376

@<SCITEGIC>MOL_PROPERTY
W(SA)
SciTegic.value.DoubleValue
2.130

@<SCITEGIC>MOL_PROPERTY
Valence
SciTegic.value.DoubleValue
17.153

@<SCITEGIC>MOL_PROPERTY
Coulomb
SciTegic.value.DoubleValue
-7.966

@<SCITEGIC>MOL_PROPERTY
VdW
SciTegic.value.DoubleValue
2.689

@<SCITEGIC>MOL_PROPERTY
VdW6
SciTegic.value.DoubleValue
-12.458

@<SCITEGIC>MOL_PROPERTY
VdW12
SciTegic.value.DoubleValue
15.147

@<SCITEGIC>MOL_PROPERTY
Bond
SciTegic.value.DoubleValue
0.421

@<SCITEGIC>MOL_PROPERTY
Angle
SciTegic.value.DoubleValue
5.258

@<SCITEGIC>MOL_PROPERTY
Pdih
SciTegic.value.DoubleValue
11.475

@<SCITEGIC>MOL_PROPERTY
Idih
SciTegic.value.DoubleValue
0.000

@<SCITEGIC>MOL_PROPERTY
Tether
SciTegic.value.DoubleValue
0.000

@<TRIPOS>MOLECULE
guest-s17_confgen4.mol2 : confsearch ligand conformer 653
          25          25           1
SMALL
USER_CHARGES
 
@<TRIPOS>ATOM
       1    C1      18.837281   20.358135   22.610735 C.3        1 MOL1        -0.1684
       2    H1      19.511447   20.862928   23.312026 H          1 MOL1         0.0833
       3    H2      17.955266   21.010657   22.556855 H          1 MOL1         0.0833
       4    C2      18.370446   19.000580   23.192829 C.3        1 MOL1        -0.1684
       5    H3      17.847352   19.209862   24.135940 H          1 MOL1         0.0833
       6    H4      17.616491   18.559915   22.526609 H          1 MOL1         0.0833
       7    C3      19.465239   17.942339   23.483480 C.3        1 MOL1        -0.1684
       8    H5      19.715902   17.387403   22.572349 H          1 MOL1         0.0833
       9    H6      19.020152   17.190312   24.149288 H          1 MOL1         0.0833
      10    C4      20.751652   18.487383   24.159973 C.3        1 MOL1        -0.1760
      11    H7      20.548393   19.414996   24.708614 H          1 MOL1         0.0833
      12    H8      21.052795   17.759922   24.925430 H          1 MOL1         0.0833
      13    C5      21.962658   18.671507   23.211565 C.3        1 MOL1         0.1219
      14    H9      22.128690   17.722610   22.681463 H          1 MOL1         0.0790
      15    C6      21.847194   19.802440   22.158452 C.3        1 MOL1        -0.1760
      16    H10     21.672776   20.767943   22.648998 H          1 MOL1         0.0833
      17    H11     22.827014   19.897801   21.672445 H          1 MOL1         0.0833
      18    C7      20.802929   19.548476   21.038487 C.3        1 MOL1        -0.1684
      19    H12     20.619938   18.474525   20.919592 H          1 MOL1         0.0833
      20    H13     21.243681   19.859389   20.081359 H          1 MOL1         0.0833
      21    C8      19.464496   20.314519   21.194983 C.3        1 MOL1        -0.1684
      22    H14     18.733074   19.902502   20.486634 H          1 MOL1         0.0833
      23    H15     19.632800   21.352750   20.877746 H          1 MOL1         0.0833
      24    O1      23.100020   18.948425   24.019122 O.3        1 MOL1        -0.5508
      25    H16     23.870880   18.995255   23.416022 H          1 MOL1         0.3780
@<TRIPOS>BOND
    1     1     2    1
    2     1     3    1
    3     1     4    1
    4     4     5    1
    5     4     6    1
    6     4     7    1
    7     7     8    1
    8     7     9    1
    9     7    10    1
   10    10    11    1
   11    10    12    1
   12    10    13    1
   13    13    14    1
   14    13    15    1
   15    15    16    1
   16    15    17    1
   17    15    18    1
   18    18    19    1
   19    18    20    1
   20     1    21    1
   21    18    21    1
   22    21    22    1
   23    21    23    1
   24    13    24    1
   25    24    25    1
@<TRIPOS>SUBSTRUCTURE
       1 MOL1            1 RESIDUE      1      MOL     
@<SCITEGIC>MOL_PROPERTY
VConf Rank
SciTegic.value.IntegerValue
653

@<SCITEGIC>MOL_PROPERTY
Conf_Id
SciTegic.value.IntegerValue
24

@<SCITEGIC>MOL_PROPERTY
Delta U+W
SciTegic.value.DoubleValue
-1.236

@<SCITEGIC>MOL_PROPERTY
U+W
SciTegic.value.DoubleValue
9.678

@<SCITEGIC>MOL_PROPERTY
Grad RMS
SciTegic.value.DoubleValue
0.000000

@<SCITEGIC>MOL_PROPERTY
U
SciTegic.value.DoubleValue
11.876

@<SCITEGIC>MOL_PROPERTY
W
SciTegic.value.DoubleValue
-2.199

@<SCITEGIC>MOL_PROPERTY
W(PB)
SciTegic.value.DoubleValue
-4.335

@<SCITEGIC>MOL_PROPERTY
W(SA)
SciTegic.value.DoubleValue
2.137

@<SCITEGIC>MOL_PROPERTY
Valence
SciTegic.value.DoubleValue
17.153

@<SCITEGIC>MOL_PROPERTY
Coulomb
SciTegic.value.DoubleValue
-7.966

@<SCITEGIC>MOL_PROPERTY
VdW
SciTegic.value.DoubleValue
2.689

@<SCITEGIC>MOL_PROPERTY
VdW6
SciTegic.value.DoubleValue
-12.458

@<SCITEGIC>MOL_PROPERTY
VdW12
SciTegic.value.DoubleValue
15.147

@<SCITEGIC>MOL_PROPERTY
Bond
SciTegic.value.DoubleValue
0.421

@<SCITEGIC>MOL_PROPERTY
Angle
SciTegic.value.DoubleValue
5.258

@<SCITEGIC>MOL_PROPERTY
Pdih
SciTegic.value.DoubleValue
11.475

@<SCITEGIC>MOL_PROPERTY
Idih
SciTegic.value.DoubleValue
0.000

@<SCITEGIC>MOL_PROPERTY
Tether
SciTegic.value.DoubleValue
0.000

@<TRIPOS>MOLECULE
guest-s17_confgen4.mol2 : confsearch ligand conformer 654
          25          25           1
SMALL
USER_CHARGES
 
@<TRIPOS>ATOM
       1    C1      20.456980   17.266026   23.585279 C.3        1 MOL1        -0.1684
       2    H1      21.394624   16.693665   23.586894 H          1 MOL1         0.0833
       3    H2      19.715400   16.622623   24.078172 H          1 MOL1         0.0833
       4    C2      20.642617   18.535699   24.458016 C.3        1 MOL1        -0.1684
       5    H3      19.669148   18.951035   24.748097 H          1 MOL1         0.0833
       6    H4      21.099769   18.210186   25.402537 H          1 MOL1         0.0833
       7    C3      21.535081   19.649420   23.856523 C.3        1 MOL1        -0.1684
       8    H5      22.350864   19.216897   23.261647 H          1 MOL1         0.0833
       9    H6      22.026066   20.154585   24.699699 H          1 MOL1         0.0833
      10    C4      20.775144   20.744340   23.055540 C.3        1 MOL1        -0.1760
      11    H7      19.802946   20.961180   23.516289 H          1 MOL1         0.0833
      12    H8      21.360852   21.668449   23.155126 H          1 MOL1         0.0833
      13    C5      20.607207   20.451505   21.544539 C.3        1 MOL1         0.1219
      14    H9      21.446100   19.824076   21.215500 H          1 MOL1         0.0790
      15    C6      19.272560   19.773280   21.143869 C.3        1 MOL1        -0.1760
      16    H10     18.454577   20.500740   21.227997 H          1 MOL1         0.0833
      17    H11     19.337935   19.514440   20.078811 H          1 MOL1         0.0833
      18    C7      18.870619   18.500758   21.931125 C.3        1 MOL1        -0.1684
      19    H12     18.048929   18.011290   21.390750 H          1 MOL1         0.0833
      20    H13     18.438955   18.785025   22.897845 H          1 MOL1         0.0833
      21    C8      20.022330   17.480356   22.114688 C.3        1 MOL1        -0.1684
      22    H14     20.893987   17.755409   21.509529 H          1 MOL1         0.0833
      23    H15     19.699578   16.510509   21.712072 H          1 MOL1         0.0833
      24    O1      20.681873   21.683871   20.839270 O.3        1 MOL1        -0.5508
      25    H16     19.938722   22.233561   21.162597 H          1 MOL1         0.3780
@<TRIPOS>BOND
    1     1     2    1
    2     1     3    1
    3     1     4    1
    4     4     5    1
    5     4     6    1
    6     4     7    1
    7     7     8    1
    8     7     9    1
    9     7    10    1
   10    10    11    1
   11    10    12    1
   12    10    13    1
   13    13    14    1
   14    13    15    1
   15    15    16    1
   16    15    17    1
   17    15    18    1
   18    18    19    1
   19    18    20    1
   20     1    21    1
   21    18    21    1
   22    21    22    1
   23    21    23    1
   24    13    24    1
   25    24    25    1
@<TRIPOS>SUBSTRUCTURE
       1 MOL1            1 RESIDUE      1      MOL     
@<SCITEGIC>MOL_PROPERTY
VConf Rank
SciTegic.value.IntegerValue
654

@<SCITEGIC>MOL_PROPERTY
Conf_Id
SciTegic.value.IntegerValue
167

@<SCITEGIC>MOL_PROPERTY
Delta U+W
SciTegic.value.DoubleValue
0.388

@<SCITEGIC>MOL_PROPERTY
U+W
SciTegic.value.DoubleValue
11.301

@<SCITEGIC>MOL_PROPERTY
Grad RMS
SciTegic.value.DoubleValue
0.000000

@<SCITEGIC>MOL_PROPERTY
U
SciTegic.value.DoubleValue
13.202

@<SCITEGIC>MOL_PROPERTY
W
SciTegic.value.DoubleValue
-1.901

@<SCITEGIC>MOL_PROPERTY
W(PB)
SciTegic.value.DoubleValue
-4.065

@<SCITEGIC>MOL_PROPERTY
W(SA)
SciTegic.value.DoubleValue
2.163

@<SCITEGIC>MOL_PROPERTY
Valence
SciTegic.value.DoubleValue
18.957

@<SCITEGIC>MOL_PROPERTY
Coulomb
SciTegic.value.DoubleValue
-8.753

@<SCITEGIC>MOL_PROPERTY
VdW
SciTegic.value.DoubleValue
2.998

@<SCITEGIC>MOL_PROPERTY
VdW6
SciTegic.value.DoubleValue
-12.294

@<SCITEGIC>MOL_PROPERTY
VdW12
SciTegic.value.DoubleValue
15.292

@<SCITEGIC>MOL_PROPERTY
Bond
SciTegic.value.DoubleValue
0.419

@<SCITEGIC>MOL_PROPERTY
Angle
SciTegic.value.DoubleValue
4.543

@<SCITEGIC>MOL_PROPERTY
Pdih
SciTegic.value.DoubleValue
13.996

@<SCITEGIC>MOL_PROPERTY
Idih
SciTegic.value.DoubleValue
0.000

@<SCITEGIC>MOL_PROPERTY
Tether
SciTegic.value.DoubleValue
0.000

@<TRIPOS>MOLECULE
guest-s17_confgen4.mol2 : confsearch ligand conformer 655
          25          25           1
SMALL
USER_CHARGES
 
@<TRIPOS>ATOM
       1    C1      21.748106   20.560359   23.312728 C.3        1 MOL1        -0.1684
       2    H1      22.684228   20.207354   23.766123 H          1 MOL1         0.0833
       3    H2      21.823869   21.656160   23.292775 H          1 MOL1         0.0833
       4    C2      20.566402   20.186259   24.244892 C.3        1 MOL1        -0.1684
       5    H3      20.701813   19.179378   24.655573 H          1 MOL1         0.0833
       6    H4      20.625115   20.847643   25.120198 H          1 MOL1         0.0833
       7    C3      19.153579   20.334965   23.623073 C.3        1 MOL1        -0.1684
       8    H5      19.154611   21.076560   22.813872 H          1 MOL1         0.0833
       9    H6      18.495287   20.754863   24.395888 H          1 MOL1         0.0833
      10    C4      18.505817   19.004815   23.150471 C.3        1 MOL1        -0.1760
      11    H7      18.479116   18.294398   23.987034 H          1 MOL1         0.0833
      12    H8      17.455890   19.216589   22.908414 H          1 MOL1         0.0833
      13    C5      19.141913   18.316283   21.917299 C.3        1 MOL1         0.1219
      14    H9      19.197695   19.038400   21.091713 H          1 MOL1         0.0790
      15    C6      20.545555   17.712984   22.182903 C.3        1 MOL1        -0.1760
      16    H10     20.681078   17.532111   23.253973 H          1 MOL1         0.0833
      17    H11     20.607211   16.715017   21.728805 H          1 MOL1         0.0833
      18    C7      21.731387   18.542473   21.625666 C.3        1 MOL1        -0.1684
      19    H12     21.789809   18.363161   20.543363 H          1 MOL1         0.0833
      20    H13     22.668348   18.149890   22.043439 H          1 MOL1         0.0833
      21    C8      21.677436   20.075714   21.842765 C.3        1 MOL1        -0.1684
      22    H14     20.802365   20.505338   21.341943 H          1 MOL1         0.0833
      23    H15     22.537825   20.509596   21.315225 H          1 MOL1         0.0833
      24    O1      18.271103   17.261679   21.525303 O.3        1 MOL1        -0.5508
      25    H16     18.646453   16.877853   20.705359 H          1 MOL1         0.3780
@<TRIPOS>BOND
    1     1     2    1
    2     1     3    1
    3     1     4    1
    4     4     5    1
    5     4     6    1
    6     4     7    1
    7     7     8    1
    8     7     9    1
    9     7    10    1
   10    10    11    1
   11    10    12    1
   12    10    13    1
   13    13    14    1
   14    13    15    1
   15    15    16    1
   16    15    17    1
   17    15    18    1
   18    18    19    1
   19    18    20    1
   20     1    21    1
   21    18    21    1
   22    21    22    1
   23    21    23    1
   24    13    24    1
   25    24    25    1
@<TRIPOS>SUBSTRUCTURE
       1 MOL1            1 RESIDUE      1      MOL     
@<SCITEGIC>MOL_PROPERTY
VConf Rank
SciTegic.value.IntegerValue
655

@<SCITEGIC>MOL_PROPERTY
Conf_Id
SciTegic.value.IntegerValue
60

@<SCITEGIC>MOL_PROPERTY
Delta U+W
SciTegic.value.DoubleValue
-1.838

@<SCITEGIC>MOL_PROPERTY
U+W
SciTegic.value.DoubleValue
9.075

@<SCITEGIC>MOL_PROPERTY
Grad RMS
SciTegic.value.DoubleValue
0.000000

@<SCITEGIC>MOL_PROPERTY
U
SciTegic.value.DoubleValue
11.150

@<SCITEGIC>MOL_PROPERTY
W
SciTegic.value.DoubleValue
-2.074

@<SCITEGIC>MOL_PROPERTY
W(PB)
SciTegic.value.DoubleValue
-4.196

@<SCITEGIC>MOL_PROPERTY
W(SA)
SciTegic.value.DoubleValue
2.121

@<SCITEGIC>MOL_PROPERTY
Valence
SciTegic.value.DoubleValue
16.582

@<SCITEGIC>MOL_PROPERTY
Coulomb
SciTegic.value.DoubleValue
-8.361

@<SCITEGIC>MOL_PROPERTY
VdW
SciTegic.value.DoubleValue
2.928

@<SCITEGIC>MOL_PROPERTY
VdW6
SciTegic.value.DoubleValue
-12.539

@<SCITEGIC>MOL_PROPERTY
VdW12
SciTegic.value.DoubleValue
15.467

@<SCITEGIC>MOL_PROPERTY
Bond
SciTegic.value.DoubleValue
0.441

@<SCITEGIC>MOL_PROPERTY
Angle
SciTegic.value.DoubleValue
5.093

@<SCITEGIC>MOL_PROPERTY
Pdih
SciTegic.value.DoubleValue
11.049

@<SCITEGIC>MOL_PROPERTY
Idih
SciTegic.value.DoubleValue
0.000

@<SCITEGIC>MOL_PROPERTY
Tether
SciTegic.value.DoubleValue
0.000

@<TRIPOS>MOLECULE
guest-s17_confgen4.mol2 : confsearch ligand conformer 656
          25          25           1
SMALL
USER_CHARGES
 
@<TRIPOS>ATOM
       1    C1      19.536280   17.452645   21.863672 C.3        1 MOL1        -0.1684
       2    H1      18.524640   17.113044   22.123979 H          1 MOL1         0.0833
       3    H2      19.940952   16.686400   21.188373 H          1 MOL1         0.0833
       4    C2      20.417771   17.456998   23.137885 C.3        1 MOL1        -0.1684
       5    H3      20.452415   16.425156   23.513282 H          1 MOL1         0.0833
       6    H4      21.457100   17.691387   22.880968 H          1 MOL1         0.0833
       7    C3      19.929146   18.353385   24.303477 C.3        1 MOL1        -0.1684
       8    H5      20.583463   18.162140   25.165009 H          1 MOL1         0.0833
       9    H6      18.926302   18.029986   24.613748 H          1 MOL1         0.0833
      10    C4      19.908687   19.883256   24.050816 C.3        1 MOL1        -0.1760
      11    H7      19.004580   20.163501   23.500973 H          1 MOL1         0.0833
      12    H8      19.794626   20.371031   25.028061 H          1 MOL1         0.0833
      13    C5      21.164066   20.446000   23.335228 C.3        1 MOL1         0.1219
      14    H9      21.997827   19.738228   23.435503 H          1 MOL1         0.0790
      15    C6      20.947352   20.764225   21.834837 C.3        1 MOL1        -0.1760
      16    H10     20.093343   21.446063   21.729921 H          1 MOL1         0.0833
      17    H11     21.821676   21.328972   21.484976 H          1 MOL1         0.0833
      18    C7      20.761354   19.552997   20.880593 C.3        1 MOL1        -0.1684
      19    H12     21.623701   18.876341   20.937723 H          1 MOL1         0.0833
      20    H13     20.774315   19.947967   19.855539 H          1 MOL1         0.0833
      21    C8      19.431030   18.777565   21.064412 C.3        1 MOL1        -0.1684
      22    H14     19.044450   18.522567   20.068136 H          1 MOL1         0.0833
      23    H15     18.662544   19.429029   21.495490 H          1 MOL1         0.0833
      24    O1      21.534722   21.660819   23.976314 O.3        1 MOL1        -0.5508
      25    H16     21.736372   21.435987   24.908679 H          1 MOL1         0.3780
@<TRIPOS>BOND
    1     1     2    1
    2     1     3    1
    3     1     4    1
    4     4     5    1
    5     4     6    1
    6     4     7    1
    7     7     8    1
    8     7     9    1
    9     7    10    1
   10    10    11    1
   11    10    12    1
   12    10    13    1
   13    13    14    1
   14    13    15    1
   15    15    16    1
   16    15    17    1
   17    15    18    1
   18    18    19    1
   19    18    20    1
   20     1    21    1
   21    18    21    1
   22    21    22    1
   23    21    23    1
   24    13    24    1
   25    24    25    1
@<TRIPOS>SUBSTRUCTURE
       1 MOL1            1 RESIDUE      1      MOL     
@<SCITEGIC>MOL_PROPERTY
VConf Rank
SciTegic.value.IntegerValue
656

@<SCITEGIC>MOL_PROPERTY
Conf_Id
SciTegic.value.IntegerValue
129

@<SCITEGIC>MOL_PROPERTY
Delta U+W
SciTegic.value.DoubleValue
-1.846

@<SCITEGIC>MOL_PROPERTY
U+W
SciTegic.value.DoubleValue
9.067

@<SCITEGIC>MOL_PROPERTY
Grad RMS
SciTegic.value.DoubleValue
0.000000

@<SCITEGIC>MOL_PROPERTY
U
SciTegic.value.DoubleValue
11.150

@<SCITEGIC>MOL_PROPERTY
W
SciTegic.value.DoubleValue
-2.083

@<SCITEGIC>MOL_PROPERTY
W(PB)
SciTegic.value.DoubleValue
-4.217

@<SCITEGIC>MOL_PROPERTY
W(SA)
SciTegic.value.DoubleValue
2.134

@<SCITEGIC>MOL_PROPERTY
Valence
SciTegic.value.DoubleValue
16.583

@<SCITEGIC>MOL_PROPERTY
Coulomb
SciTegic.value.DoubleValue
-8.361

@<SCITEGIC>MOL_PROPERTY
VdW
SciTegic.value.DoubleValue
2.928

@<SCITEGIC>MOL_PROPERTY
VdW6
SciTegic.value.DoubleValue
-12.539

@<SCITEGIC>MOL_PROPERTY
VdW12
SciTegic.value.DoubleValue
15.467

@<SCITEGIC>MOL_PROPERTY
Bond
SciTegic.value.DoubleValue
0.441

@<SCITEGIC>MOL_PROPERTY
Angle
SciTegic.value.DoubleValue
5.093

@<SCITEGIC>MOL_PROPERTY
Pdih
SciTegic.value.DoubleValue
11.049

@<SCITEGIC>MOL_PROPERTY
Idih
SciTegic.value.DoubleValue
0.000

@<SCITEGIC>MOL_PROPERTY
Tether
SciTegic.value.DoubleValue
0.000

@<TRIPOS>MOLECULE
guest-s17_confgen4.mol2 : confsearch ligand conformer 657
          25          25           1
SMALL
USER_CHARGES
 
@<TRIPOS>ATOM
       1    C1      19.628278   17.927079   21.168343 C.3        1 MOL1        -0.1684
       2    H1      19.234783   18.310488   20.217203 H          1 MOL1         0.0833
       3    H2      19.589433   16.832334   21.085013 H          1 MOL1         0.0833
       4    C2      18.674907   18.336999   22.318675 C.3        1 MOL1        -0.1684
       5    H3      17.696300   17.884795   22.107379 H          1 MOL1         0.0833
       6    H4      18.993532   17.876124   23.260626 H          1 MOL1         0.0833
       7    C3      18.446937   19.857768   22.507244 C.3        1 MOL1        -0.1684
       8    H5      17.668390   19.982733   23.272294 H          1 MOL1         0.0833
       9    H6      18.027222   20.279176   21.583799 H          1 MOL1         0.0833
      10    C4      19.673244   20.705061   22.935660 C.3        1 MOL1        -0.1760
      11    H7      20.288538   20.946989   22.063064 H          1 MOL1         0.0833
      12    H8      19.287468   21.674220   23.279934 H          1 MOL1         0.0833
      13    C5      20.547168   20.077088   24.052118 C.3        1 MOL1         0.1219
      14    H9      19.965936   19.320170   24.595363 H          1 MOL1         0.0790
      15    C6      21.866724   19.441661   23.546251 C.3        1 MOL1        -0.1760
      16    H10     22.436587   20.187241   22.976529 H          1 MOL1         0.0833
      17    H11     22.481180   19.204876   24.425234 H          1 MOL1         0.0833
      18    C7      21.741830   18.143151   22.704055 C.3        1 MOL1        -0.1684
      19    H12     21.212571   17.363300   23.266648 H          1 MOL1         0.0833
      20    H13     22.759295   17.753619   22.562652 H          1 MOL1         0.0833
      21    C8      21.117849   18.337977   21.297913 C.3        1 MOL1        -0.1684
      22    H14     21.684691   17.723862   20.584748 H          1 MOL1         0.0833
      23    H15     21.266526   19.366318   20.949759 H          1 MOL1         0.0833
      24    O1      20.898292   21.103454   24.971602 O.3        1 MOL1        -0.5508
      25    H16     21.417689   21.761930   24.466055 H          1 MOL1         0.3780
@<TRIPOS>BOND
    1     1     2    1
    2     1     3    1
    3     1     4    1
    4     4     5    1
    5     4     6    1
    6     4     7    1
    7     7     8    1
    8     7     9    1
    9     7    10    1
   10    10    11    1
   11    10    12    1
   12    10    13    1
   13    13    14    1
   14    13    15    1
   15    15    16    1
   16    15    17    1
   17    15    18    1
   18    18    19    1
   19    18    20    1
   20     1    21    1
   21    18    21    1
   22    21    22    1
   23    21    23    1
   24    13    24    1
   25    24    25    1
@<TRIPOS>SUBSTRUCTURE
       1 MOL1            1 RESIDUE      1      MOL     
@<SCITEGIC>MOL_PROPERTY
VConf Rank
SciTegic.value.IntegerValue
657

@<SCITEGIC>MOL_PROPERTY
Conf_Id
SciTegic.value.IntegerValue
140

@<SCITEGIC>MOL_PROPERTY
Delta U+W
SciTegic.value.DoubleValue
-1.702

@<SCITEGIC>MOL_PROPERTY
U+W
SciTegic.value.DoubleValue
9.211

@<SCITEGIC>MOL_PROPERTY
Grad RMS
SciTegic.value.DoubleValue
0.000000

@<SCITEGIC>MOL_PROPERTY
U
SciTegic.value.DoubleValue
11.181

@<SCITEGIC>MOL_PROPERTY
W
SciTegic.value.DoubleValue
-1.969

@<SCITEGIC>MOL_PROPERTY
W(PB)
SciTegic.value.DoubleValue
-4.093

@<SCITEGIC>MOL_PROPERTY
W(SA)
SciTegic.value.DoubleValue
2.124

@<SCITEGIC>MOL_PROPERTY
Valence
SciTegic.value.DoubleValue
16.954

@<SCITEGIC>MOL_PROPERTY
Coulomb
SciTegic.value.DoubleValue
-8.661

@<SCITEGIC>MOL_PROPERTY
VdW
SciTegic.value.DoubleValue
2.887

@<SCITEGIC>MOL_PROPERTY
VdW6
SciTegic.value.DoubleValue
-12.561

@<SCITEGIC>MOL_PROPERTY
VdW12
SciTegic.value.DoubleValue
15.448

@<SCITEGIC>MOL_PROPERTY
Bond
SciTegic.value.DoubleValue
0.433

@<SCITEGIC>MOL_PROPERTY
Angle
SciTegic.value.DoubleValue
5.120

@<SCITEGIC>MOL_PROPERTY
Pdih
SciTegic.value.DoubleValue
11.401

@<SCITEGIC>MOL_PROPERTY
Idih
SciTegic.value.DoubleValue
0.000

@<SCITEGIC>MOL_PROPERTY
Tether
SciTegic.value.DoubleValue
0.000

@<TRIPOS>MOLECULE
guest-s17_confgen4.mol2 : confsearch ligand conformer 658
          25          25           1
SMALL
USER_CHARGES
 
@<TRIPOS>ATOM
       1    C1      18.332825   19.805507   22.908040 C.3        1 MOL1        -0.1684
       2    H1      17.988865   20.763659   22.495555 H          1 MOL1         0.0833
       3    H2      17.462039   19.374096   23.420424 H          1 MOL1         0.0833
       4    C2      19.421252   20.080757   23.977625 C.3        1 MOL1        -0.1684
       5    H3      20.097438   20.876225   23.644750 H          1 MOL1         0.0833
       6    H4      18.911906   20.504610   24.853963 H          1 MOL1         0.0833
       7    C3      20.226711   18.839682   24.441863 C.3        1 MOL1        -0.1684
       8    H5      19.649062   17.917419   24.298521 H          1 MOL1         0.0833
       9    H6      20.366291   18.924170   25.528300 H          1 MOL1         0.0833
      10    C4      21.640000   18.708251   23.812296 C.3        1 MOL1        -0.1760
      11    H7      22.208617   19.626654   24.008323 H          1 MOL1         0.0833
      12    H8      22.167027   17.910402   24.352587 H          1 MOL1         0.0833
      13    C5      21.704184   18.374450   22.300559 C.3        1 MOL1         0.1219
      14    H9      21.109391   17.472650   22.103455 H          1 MOL1         0.0790
      15    C6      21.232615   19.524504   21.373430 C.3        1 MOL1        -0.1760
      16    H10     21.309649   20.485667   21.891861 H          1 MOL1         0.0833
      17    H11     21.923962   19.611545   20.524266 H          1 MOL1         0.0833
      18    C7      19.810179   19.348729   20.780935 C.3        1 MOL1        -0.1684
      19    H12     19.877045   18.627448   19.954900 H          1 MOL1         0.0833
      20    H13     19.494511   20.296333   20.323880 H          1 MOL1         0.0833
      21    C8      18.703911   18.851675   21.744979 C.3        1 MOL1        -0.1684
      22    H14     18.949676   17.856113   22.131834 H          1 MOL1         0.0833
      23    H15     17.795333   18.698701   21.146740 H          1 MOL1         0.0833
      24    O1      23.060663   18.081490   21.990237 O.3        1 MOL1        -0.5508
      25    H16     23.569593   18.896877   22.177526 H          1 MOL1         0.3780
@<TRIPOS>BOND
    1     1     2    1
    2     1     3    1
    3     1     4    1
    4     4     5    1
    5     4     6    1
    6     4     7    1
    7     7     8    1
    8     7     9    1
    9     7    10    1
   10    10    11    1
   11    10    12    1
   12    10    13    1
   13    13    14    1
   14    13    15    1
   15    15    16    1
   16    15    17    1
   17    15    18    1
   18    18    19    1
   19    18    20    1
   20     1    21    1
   21    18    21    1
   22    21    22    1
   23    21    23    1
   24    13    24    1
   25    24    25    1
@<TRIPOS>SUBSTRUCTURE
       1 MOL1            1 RESIDUE      1      MOL     
@<SCITEGIC>MOL_PROPERTY
VConf Rank
SciTegic.value.IntegerValue
658

@<SCITEGIC>MOL_PROPERTY
Conf_Id
SciTegic.value.IntegerValue
68

@<SCITEGIC>MOL_PROPERTY
Delta U+W
SciTegic.value.DoubleValue
-1.765

@<SCITEGIC>MOL_PROPERTY
U+W
SciTegic.value.DoubleValue
9.148

@<SCITEGIC>MOL_PROPERTY
Grad RMS
SciTegic.value.DoubleValue
0.000000

@<SCITEGIC>MOL_PROPERTY
U
SciTegic.value.DoubleValue
11.181

@<SCITEGIC>MOL_PROPERTY
W
SciTegic.value.DoubleValue
-2.032

@<SCITEGIC>MOL_PROPERTY
W(PB)
SciTegic.value.DoubleValue
-4.147

@<SCITEGIC>MOL_PROPERTY
W(SA)
SciTegic.value.DoubleValue
2.114

@<SCITEGIC>MOL_PROPERTY
Valence
SciTegic.value.DoubleValue
16.955

@<SCITEGIC>MOL_PROPERTY
Coulomb
SciTegic.value.DoubleValue
-8.661

@<SCITEGIC>MOL_PROPERTY
VdW
SciTegic.value.DoubleValue
2.887

@<SCITEGIC>MOL_PROPERTY
VdW6
SciTegic.value.DoubleValue
-12.561

@<SCITEGIC>MOL_PROPERTY
VdW12
SciTegic.value.DoubleValue
15.448

@<SCITEGIC>MOL_PROPERTY
Bond
SciTegic.value.DoubleValue
0.433

@<SCITEGIC>MOL_PROPERTY
Angle
SciTegic.value.DoubleValue
5.121

@<SCITEGIC>MOL_PROPERTY
Pdih
SciTegic.value.DoubleValue
11.402

@<SCITEGIC>MOL_PROPERTY
Idih
SciTegic.value.DoubleValue
0.000

@<SCITEGIC>MOL_PROPERTY
Tether
SciTegic.value.DoubleValue
0.000

@<TRIPOS>MOLECULE
guest-s17_confgen4.mol2 : confsearch ligand conformer 659
          25          25           1
SMALL
USER_CHARGES
 
@<TRIPOS>ATOM
       1    C1      21.570024   20.337875   23.295705 C.3        1 MOL1        -0.1684
       2    H1      22.373628   20.930311   23.754309 H          1 MOL1         0.0833
       3    H2      21.036613   21.051956   22.658169 H          1 MOL1         0.0833
       4    C2      20.645620   19.822338   24.429284 C.3        1 MOL1        -0.1684
       5    H3      20.930500   18.809733   24.742477 H          1 MOL1         0.0833
       6    H4      20.820999   20.453870   25.311003 H          1 MOL1         0.0833
       7    C3      19.128079   19.895034   24.115618 C.3        1 MOL1        -0.1684
       8    H5      18.859629   20.927174   23.851617 H          1 MOL1         0.0833
       9    H6      18.584531   19.678297   25.045357 H          1 MOL1         0.0833
      10    C4      18.595754   18.931145   23.021953 C.3        1 MOL1        -0.1760
      11    H7      18.828355   17.891838   23.283286 H          1 MOL1         0.0833
      12    H8      17.499601   18.996842   23.049197 H          1 MOL1         0.0833
      13    C5      19.075342   19.261879   21.584769 C.3        1 MOL1         0.1219
      14    H9      19.413713   20.303978   21.551926 H          1 MOL1         0.0790
      15    C6      20.202686   18.344800   21.049882 C.3        1 MOL1        -0.1760
      16    H10     19.759260   17.386033   20.750356 H          1 MOL1         0.0833
      17    H11     20.604595   18.790179   20.130539 H          1 MOL1         0.0833
      18    C7      21.376734   18.030719   22.012705 C.3        1 MOL1        -0.1684
      19    H12     22.035652   17.315163   21.502284 H          1 MOL1         0.0833
      20    H13     21.014753   17.491710   22.895738 H          1 MOL1         0.0833
      21    C8      22.249164   19.237865   22.439091 C.3        1 MOL1        -0.1684
      22    H14     22.688637   19.702215   21.545879 H          1 MOL1         0.0833
      23    H15     23.097223   18.842025   23.014508 H          1 MOL1         0.0833
      24    O1      17.969259   19.140461   20.699036 O.3        1 MOL1        -0.5508
      25    H16     17.670248   18.209694   20.755188 H          1 MOL1         0.3780
@<TRIPOS>BOND
    1     1     2    1
    2     1     3    1
    3     1     4    1
    4     4     5    1
    5     4     6    1
    6     4     7    1
    7     7     8    1
    8     7     9    1
    9     7    10    1
   10    10    11    1
   11    10    12    1
   12    10    13    1
   13    13    14    1
   14    13    15    1
   15    15    16    1
   16    15    17    1
   17    15    18    1
   18    18    19    1
   19    18    20    1
   20     1    21    1
   21    18    21    1
   22    21    22    1
   23    21    23    1
   24    13    24    1
   25    24    25    1
@<TRIPOS>SUBSTRUCTURE
       1 MOL1            1 RESIDUE      1      MOL     
@<SCITEGIC>MOL_PROPERTY
VConf Rank
SciTegic.value.IntegerValue
659

@<SCITEGIC>MOL_PROPERTY
Conf_Id
SciTegic.value.IntegerValue
165

@<SCITEGIC>MOL_PROPERTY
Delta U+W
SciTegic.value.DoubleValue
-1.999

@<SCITEGIC>MOL_PROPERTY
U+W
SciTegic.value.DoubleValue
8.915

@<SCITEGIC>MOL_PROPERTY
Grad RMS
SciTegic.value.DoubleValue
0.000000

@<SCITEGIC>MOL_PROPERTY
U
SciTegic.value.DoubleValue
10.935

@<SCITEGIC>MOL_PROPERTY
W
SciTegic.value.DoubleValue
-2.020

@<SCITEGIC>MOL_PROPERTY
W(PB)
SciTegic.value.DoubleValue
-4.135

@<SCITEGIC>MOL_PROPERTY
W(SA)
SciTegic.value.DoubleValue
2.115

@<SCITEGIC>MOL_PROPERTY
Valence
SciTegic.value.DoubleValue
16.757

@<SCITEGIC>MOL_PROPERTY
Coulomb
SciTegic.value.DoubleValue
-8.731

@<SCITEGIC>MOL_PROPERTY
VdW
SciTegic.value.DoubleValue
2.908

@<SCITEGIC>MOL_PROPERTY
VdW6
SciTegic.value.DoubleValue
-12.597

@<SCITEGIC>MOL_PROPERTY
VdW12
SciTegic.value.DoubleValue
15.506

@<SCITEGIC>MOL_PROPERTY
Bond
SciTegic.value.DoubleValue
0.434

@<SCITEGIC>MOL_PROPERTY
Angle
SciTegic.value.DoubleValue
5.069

@<SCITEGIC>MOL_PROPERTY
Pdih
SciTegic.value.DoubleValue
11.254

@<SCITEGIC>MOL_PROPERTY
Idih
SciTegic.value.DoubleValue
0.000

@<SCITEGIC>MOL_PROPERTY
Tether
SciTegic.value.DoubleValue
0.000

@<TRIPOS>MOLECULE
guest-s17_confgen4.mol2 : confsearch ligand conformer 660
          25          25           1
SMALL
USER_CHARGES
 
@<TRIPOS>ATOM
       1    C1      21.079893   20.799746   23.033253 C.3        1 MOL1        -0.1684
       2    H1      21.610971   21.746024   23.205299 H          1 MOL1         0.0833
       3    H2      20.094194   20.956031   23.485773 H          1 MOL1         0.0833
       4    C2      21.863252   19.695695   23.790135 C.3        1 MOL1        -0.1684
       5    H3      22.934892   19.876508   23.629195 H          1 MOL1         0.0833
       6    H4      21.701264   19.819619   24.869473 H          1 MOL1         0.0833
       7    C3      21.578917   18.225067   23.394220 C.3        1 MOL1        -0.1684
       8    H5      22.282615   17.593566   23.953431 H          1 MOL1         0.0833
       9    H6      21.834294   18.057840   22.341552 H          1 MOL1         0.0833
      10    C4      20.150499   17.702373   23.694958 C.3        1 MOL1        -0.1760
      11    H7      20.137764   16.628781   23.463110 H          1 MOL1         0.0833
      12    H8      19.963923   17.781351   24.773693 H          1 MOL1         0.0833
      13    C5      18.978162   18.374276   22.938696 C.3        1 MOL1         0.1219
      14    H9      18.753151   19.340460   23.405298 H          1 MOL1         0.0790
      15    C6      19.226837   18.592553   21.423870 C.3        1 MOL1        -0.1760
      16    H10     19.992569   17.902339   21.050537 H          1 MOL1         0.0833
      17    H11     18.311019   18.324391   20.879905 H          1 MOL1         0.0833
      18    C7      19.573801   20.053503   21.031147 C.3        1 MOL1        -0.1684
      19    H12     18.778984   20.723296   21.386998 H          1 MOL1         0.0833
      20    H13     19.546046   20.120246   19.934995 H          1 MOL1         0.0833
      21    C8      20.950250   20.592869   21.501616 C.3        1 MOL1        -0.1684
      22    H14     21.091063   21.571815   21.023235 H          1 MOL1         0.0833
      23    H15     21.765713   19.967283   21.116556 H          1 MOL1         0.0833
      24    O1      17.836708   17.538420   23.093423 O.3        1 MOL1        -0.5508
      25    H16     17.676757   17.454536   24.056657 H          1 MOL1         0.3780
@<TRIPOS>BOND
    1     1     2    1
    2     1     3    1
    3     1     4    1
    4     4     5    1
    5     4     6    1
    6     4     7    1
    7     7     8    1
    8     7     9    1
    9     7    10    1
   10    10    11    1
   11    10    12    1
   12    10    13    1
   13    13    14    1
   14    13    15    1
   15    15    16    1
   16    15    17    1
   17    15    18    1
   18    18    19    1
   19    18    20    1
   20     1    21    1
   21    18    21    1
   22    21    22    1
   23    21    23    1
   24    13    24    1
   25    24    25    1
@<TRIPOS>SUBSTRUCTURE
       1 MOL1            1 RESIDUE      1      MOL     
@<SCITEGIC>MOL_PROPERTY
VConf Rank
SciTegic.value.IntegerValue
660

@<SCITEGIC>MOL_PROPERTY
Conf_Id
SciTegic.value.IntegerValue
133

@<SCITEGIC>MOL_PROPERTY
Delta U+W
SciTegic.value.DoubleValue
-2.139

@<SCITEGIC>MOL_PROPERTY
U+W
SciTegic.value.DoubleValue
8.774

@<SCITEGIC>MOL_PROPERTY
Grad RMS
SciTegic.value.DoubleValue
0.000000

@<SCITEGIC>MOL_PROPERTY
U
SciTegic.value.DoubleValue
10.905

@<SCITEGIC>MOL_PROPERTY
W
SciTegic.value.DoubleValue
-2.131

@<SCITEGIC>MOL_PROPERTY
W(PB)
SciTegic.value.DoubleValue
-4.281

@<SCITEGIC>MOL_PROPERTY
W(SA)
SciTegic.value.DoubleValue
2.150

@<SCITEGIC>MOL_PROPERTY
Valence
SciTegic.value.DoubleValue
16.378

@<SCITEGIC>MOL_PROPERTY
Coulomb
SciTegic.value.DoubleValue
-8.448

@<SCITEGIC>MOL_PROPERTY
VdW
SciTegic.value.DoubleValue
2.976

@<SCITEGIC>MOL_PROPERTY
VdW6
SciTegic.value.DoubleValue
-12.570

@<SCITEGIC>MOL_PROPERTY
VdW12
SciTegic.value.DoubleValue
15.545

@<SCITEGIC>MOL_PROPERTY
Bond
SciTegic.value.DoubleValue
0.439

@<SCITEGIC>MOL_PROPERTY
Angle
SciTegic.value.DoubleValue
5.049

@<SCITEGIC>MOL_PROPERTY
Pdih
SciTegic.value.DoubleValue
10.889

@<SCITEGIC>MOL_PROPERTY
Idih
SciTegic.value.DoubleValue
0.000

@<SCITEGIC>MOL_PROPERTY
Tether
SciTegic.value.DoubleValue
0.000

@<TRIPOS>MOLECULE
guest-s17_confgen4.mol2 : confsearch ligand conformer 661
          25          25           1
SMALL
USER_CHARGES
 
@<TRIPOS>ATOM
       1    C1      21.771559   20.309447   22.782576 C.3        1 MOL1        -0.1684
       2    H1      22.613745   21.014489   22.809508 H          1 MOL1         0.0833
       3    H2      22.181658   19.381460   23.196656 H          1 MOL1         0.0833
       4    C2      21.358881   20.109932   21.300883 C.3        1 MOL1        -0.1684
       5    H3      20.536954   20.782992   21.025137 H          1 MOL1         0.0833
       6    H4      22.206788   20.424142   20.676916 H          1 MOL1         0.0833
       7    C3      21.026631   18.646213   20.908445 C.3        1 MOL1        -0.1684
       8    H5      21.882944   18.001208   21.148622 H          1 MOL1         0.0833
       9    H6      20.927045   18.608124   19.815099 H          1 MOL1         0.0833
      10    C4      19.737727   18.036091   21.521199 C.3        1 MOL1        -0.1760
      11    H7      18.864477   18.648278   21.266677 H          1 MOL1         0.0833
      12    H8      19.568865   17.074498   21.017855 H          1 MOL1         0.0833
      13    C5      19.808082   17.783054   23.049337 C.3        1 MOL1         0.1219
      14    H9      20.859796   17.756143   23.357609 H          1 MOL1         0.0790
      15    C6      19.049500   18.822072   23.911161 C.3        1 MOL1        -0.1760
      16    H10     17.975480   18.600301   23.849403 H          1 MOL1         0.0833
      17    H11     19.328559   18.677144   24.962750 H          1 MOL1         0.0833
      18    C7      19.236385   20.317053   23.544920 C.3        1 MOL1        -0.1684
      19    H12     18.576180   20.899586   24.201793 H          1 MOL1         0.0833
      20    H13     18.862629   20.513280   22.533439 H          1 MOL1         0.0833
      21    C8      20.668677   20.884431   23.709130 C.3        1 MOL1        -0.1684
      22    H14     20.986750   20.772124   24.754494 H          1 MOL1         0.0833
      23    H15     20.614047   21.967201   23.531280 H          1 MOL1         0.0833
      24    O1      19.240284   16.506973   23.322711 O.3        1 MOL1        -0.5508
      25    H16     19.338726   16.354679   24.285807 H          1 MOL1         0.3780
@<TRIPOS>BOND
    1     1     2    1
    2     1     3    1
    3     1     4    1
    4     4     5    1
    5     4     6    1
    6     4     7    1
    7     7     8    1
    8     7     9    1
    9     7    10    1
   10    10    11    1
   11    10    12    1
   12    10    13    1
   13    13    14    1
   14    13    15    1
   15    15    16    1
   16    15    17    1
   17    15    18    1
   18    18    19    1
   19    18    20    1
   20     1    21    1
   21    18    21    1
   22    21    22    1
   23    21    23    1
   24    13    24    1
   25    24    25    1
@<TRIPOS>SUBSTRUCTURE
       1 MOL1            1 RESIDUE      1      MOL     
@<SCITEGIC>MOL_PROPERTY
VConf Rank
SciTegic.value.IntegerValue
661

@<SCITEGIC>MOL_PROPERTY
Conf_Id
SciTegic.value.IntegerValue
95

@<SCITEGIC>MOL_PROPERTY
Delta U+W
SciTegic.value.DoubleValue
-2.190

@<SCITEGIC>MOL_PROPERTY
U+W
SciTegic.value.DoubleValue
8.723

@<SCITEGIC>MOL_PROPERTY
Grad RMS
SciTegic.value.DoubleValue
0.000000

@<SCITEGIC>MOL_PROPERTY
U
SciTegic.value.DoubleValue
10.905

@<SCITEGIC>MOL_PROPERTY
W
SciTegic.value.DoubleValue
-2.182

@<SCITEGIC>MOL_PROPERTY
W(PB)
SciTegic.value.DoubleValue
-4.296

@<SCITEGIC>MOL_PROPERTY
W(SA)
SciTegic.value.DoubleValue
2.114

@<SCITEGIC>MOL_PROPERTY
Valence
SciTegic.value.DoubleValue
16.377

@<SCITEGIC>MOL_PROPERTY
Coulomb
SciTegic.value.DoubleValue
-8.448

@<SCITEGIC>MOL_PROPERTY
VdW
SciTegic.value.DoubleValue
2.976

@<SCITEGIC>MOL_PROPERTY
VdW6
SciTegic.value.DoubleValue
-12.570

@<SCITEGIC>MOL_PROPERTY
VdW12
SciTegic.value.DoubleValue
15.546

@<SCITEGIC>MOL_PROPERTY
Bond
SciTegic.value.DoubleValue
0.439

@<SCITEGIC>MOL_PROPERTY
Angle
SciTegic.value.DoubleValue
5.049

@<SCITEGIC>MOL_PROPERTY
Pdih
SciTegic.value.DoubleValue
10.889

@<SCITEGIC>MOL_PROPERTY
Idih
SciTegic.value.DoubleValue
0.000

@<SCITEGIC>MOL_PROPERTY
Tether
SciTegic.value.DoubleValue
0.000

@<TRIPOS>MOLECULE
guest-s17_confgen4.mol2 : confsearch ligand conformer 662
          25          25           1
SMALL
USER_CHARGES
 
@<TRIPOS>ATOM
       1    C1      21.600639   18.165707   21.879201 C.3        1 MOL1        -0.1684
       2    H1      22.368091   17.624309   21.309284 H          1 MOL1         0.0833
       3    H2      21.382287   17.492382   22.714180 H          1 MOL1         0.0833
       4    C2      20.362987   18.316641   20.946647 C.3        1 MOL1        -0.1684
       5    H3      20.738425   18.450633   19.922911 H          1 MOL1         0.0833
       6    H4      19.809539   17.367974   20.932587 H          1 MOL1         0.0833
       7    C3      19.376009   19.481628   21.220829 C.3        1 MOL1        -0.1684
       8    H5      18.645179   19.498109   20.400808 H          1 MOL1         0.0833
       9    H6      19.903053   20.434832   21.112870 H          1 MOL1         0.0833
      10    C4      18.570060   19.440971   22.553238 C.3        1 MOL1        -0.1760
      11    H7      18.214772   20.453838   22.783981 H          1 MOL1         0.0833
      12    H8      17.667265   18.845527   22.364371 H          1 MOL1         0.0833
      13    C5      19.257579   18.847136   23.808773 C.3        1 MOL1         0.1219
      14    H9      19.563922   17.822285   23.574996 H          1 MOL1         0.0790
      15    C6      20.469326   19.633198   24.387018 C.3        1 MOL1        -0.1760
      16    H10     20.079673   20.401150   25.068734 H          1 MOL1         0.0833
      17    H11     21.054585   18.950236   25.015765 H          1 MOL1         0.0833
      18    C7      21.426104   20.352346   23.397867 C.3        1 MOL1        -0.1684
      19    H12     22.143868   20.932695   23.993452 H          1 MOL1         0.0833
      20    H13     20.869774   21.119184   22.849663 H          1 MOL1         0.0833
      21    C8      22.252989   19.464394   22.422516 C.3        1 MOL1        -0.1684
      22    H14     23.170650   19.166077   22.947656 H          1 MOL1         0.0833
      23    H15     22.587362   20.081372   21.577545 H          1 MOL1         0.0833
      24    O1      18.275008   18.770268   24.835057 O.3        1 MOL1        -0.5508
      25    H16     17.543934   18.219054   24.486129 H          1 MOL1         0.3780
@<TRIPOS>BOND
    1     1     2    1
    2     1     3    1
    3     1     4    1
    4     4     5    1
    5     4     6    1
    6     4     7    1
    7     7     8    1
    8     7     9    1
    9     7    10    1
   10    10    11    1
   11    10    12    1
   12    10    13    1
   13    13    14    1
   14    13    15    1
   15    15    16    1
   16    15    17    1
   17    15    18    1
   18    18    19    1
   19    18    20    1
   20     1    21    1
   21    18    21    1
   22    21    22    1
   23    21    23    1
   24    13    24    1
   25    24    25    1
@<TRIPOS>SUBSTRUCTURE
       1 MOL1            1 RESIDUE      1      MOL     
@<SCITEGIC>MOL_PROPERTY
VConf Rank
SciTegic.value.IntegerValue
662

@<SCITEGIC>MOL_PROPERTY
Conf_Id
SciTegic.value.IntegerValue
161

@<SCITEGIC>MOL_PROPERTY
Delta U+W
SciTegic.value.DoubleValue
2.120

@<SCITEGIC>MOL_PROPERTY
U+W
SciTegic.value.DoubleValue
13.033

@<SCITEGIC>MOL_PROPERTY
Grad RMS
SciTegic.value.DoubleValue
0.000000

@<SCITEGIC>MOL_PROPERTY
U
SciTegic.value.DoubleValue
15.076

@<SCITEGIC>MOL_PROPERTY
W
SciTegic.value.DoubleValue
-2.043

@<SCITEGIC>MOL_PROPERTY
W(PB)
SciTegic.value.DoubleValue
-4.186

@<SCITEGIC>MOL_PROPERTY
W(SA)
SciTegic.value.DoubleValue
2.143

@<SCITEGIC>MOL_PROPERTY
Valence
SciTegic.value.DoubleValue
18.884

@<SCITEGIC>MOL_PROPERTY
Coulomb
SciTegic.value.DoubleValue
-8.074

@<SCITEGIC>MOL_PROPERTY
VdW
SciTegic.value.DoubleValue
4.266

@<SCITEGIC>MOL_PROPERTY
VdW6
SciTegic.value.DoubleValue
-13.486

@<SCITEGIC>MOL_PROPERTY
VdW12
SciTegic.value.DoubleValue
17.752

@<SCITEGIC>MOL_PROPERTY
Bond
SciTegic.value.DoubleValue
0.713

@<SCITEGIC>MOL_PROPERTY
Angle
SciTegic.value.DoubleValue
8.955

@<SCITEGIC>MOL_PROPERTY
Pdih
SciTegic.value.DoubleValue
9.215

@<SCITEGIC>MOL_PROPERTY
Idih
SciTegic.value.DoubleValue
0.000

@<SCITEGIC>MOL_PROPERTY
Tether
SciTegic.value.DoubleValue
0.000

@<TRIPOS>MOLECULE
guest-s17_confgen4.mol2 : confsearch ligand conformer 663
          25          25           1
SMALL
USER_CHARGES
 
@<TRIPOS>ATOM
       1    C1      20.133466   18.996697   24.593583 C.3        1 MOL1        -0.1684
       2    H1      19.805968   19.017174   25.642064 H          1 MOL1         0.0833
       3    H2      21.176676   18.658504   24.633247 H          1 MOL1         0.0833
       4    C2      20.067406   20.443291   24.043421 C.3        1 MOL1        -0.1684
       5    H3      19.062888   20.670317   23.661858 H          1 MOL1         0.0833
       6    H4      20.211458   21.116315   24.899843 H          1 MOL1         0.0833
       7    C3      21.160363   20.804296   22.999174 C.3        1 MOL1        -0.1684
       8    H5      22.119686   20.332001   23.250018 H          1 MOL1         0.0833
       9    H6      21.337551   21.885131   23.086359 H          1 MOL1         0.0833
      10    C4      20.780817   20.529832   21.520970 C.3        1 MOL1        -0.1760
      11    H7      19.707948   20.703731   21.373730 H          1 MOL1         0.0833
      12    H8      21.277821   21.288980   20.902654 H          1 MOL1         0.0833
      13    C5      21.202539   19.152209   20.949888 C.3        1 MOL1         0.1219
      14    H9      22.297243   19.149988   20.847953 H          1 MOL1         0.0790
      15    C6      20.812858   17.911783   21.786773 C.3        1 MOL1        -0.1760
      16    H10     20.962319   17.017648   21.166880 H          1 MOL1         0.0833
      17    H11     21.528864   17.797141   22.607721 H          1 MOL1         0.0833
      18    C7      19.354871   17.913810   22.319218 C.3        1 MOL1        -0.1684
      19    H12     18.847646   17.006592   21.963680 H          1 MOL1         0.0833
      20    H13     18.778065   18.743487   21.894918 H          1 MOL1         0.0833
      21    C8      19.247882   17.953192   23.862488 C.3        1 MOL1        -0.1684
      22    H14     19.493902   16.958530   24.258633 H          1 MOL1         0.0833
      23    H15     18.197128   18.129624   24.130015 H          1 MOL1         0.0833
      24    O1      20.622788   19.016393   19.660001 O.3        1 MOL1        -0.5508
      25    H16     19.664788   18.883390   19.809517 H          1 MOL1         0.3780
@<TRIPOS>BOND
    1     1     2    1
    2     1     3    1
    3     1     4    1
    4     4     5    1
    5     4     6    1
    6     4     7    1
    7     7     8    1
    8     7     9    1
    9     7    10    1
   10    10    11    1
   11    10    12    1
   12    10    13    1
   13    13    14    1
   14    13    15    1
   15    15    16    1
   16    15    17    1
   17    15    18    1
   18    18    19    1
   19    18    20    1
   20     1    21    1
   21    18    21    1
   22    21    22    1
   23    21    23    1
   24    13    24    1
   25    24    25    1
@<TRIPOS>SUBSTRUCTURE
       1 MOL1            1 RESIDUE      1      MOL     
@<SCITEGIC>MOL_PROPERTY
VConf Rank
SciTegic.value.IntegerValue
663

@<SCITEGIC>MOL_PROPERTY
Conf_Id
SciTegic.value.IntegerValue
164

@<SCITEGIC>MOL_PROPERTY
Delta U+W
SciTegic.value.DoubleValue
0.008

@<SCITEGIC>MOL_PROPERTY
U+W
SciTegic.value.DoubleValue
10.922

@<SCITEGIC>MOL_PROPERTY
Grad RMS
SciTegic.value.DoubleValue
0.000000

@<SCITEGIC>MOL_PROPERTY
U
SciTegic.value.DoubleValue
12.433

@<SCITEGIC>MOL_PROPERTY
W
SciTegic.value.DoubleValue
-1.511

@<SCITEGIC>MOL_PROPERTY
W(PB)
SciTegic.value.DoubleValue
-3.669

@<SCITEGIC>MOL_PROPERTY
W(SA)
SciTegic.value.DoubleValue
2.157

@<SCITEGIC>MOL_PROPERTY
Valence
SciTegic.value.DoubleValue
19.007

@<SCITEGIC>MOL_PROPERTY
Coulomb
SciTegic.value.DoubleValue
-9.373

@<SCITEGIC>MOL_PROPERTY
VdW
SciTegic.value.DoubleValue
2.799

@<SCITEGIC>MOL_PROPERTY
VdW6
SciTegic.value.DoubleValue
-12.597

@<SCITEGIC>MOL_PROPERTY
VdW12
SciTegic.value.DoubleValue
15.396

@<SCITEGIC>MOL_PROPERTY
Bond
SciTegic.value.DoubleValue
0.425

@<SCITEGIC>MOL_PROPERTY
Angle
SciTegic.value.DoubleValue
4.784

@<SCITEGIC>MOL_PROPERTY
Pdih
SciTegic.value.DoubleValue
13.799

@<SCITEGIC>MOL_PROPERTY
Idih
SciTegic.value.DoubleValue
0.000

@<SCITEGIC>MOL_PROPERTY
Tether
SciTegic.value.DoubleValue
0.000

@<TRIPOS>MOLECULE
guest-s17_confgen4.mol2 : confsearch ligand conformer 664
          25          25           1
SMALL
USER_CHARGES
 
@<TRIPOS>ATOM
       1    C1      20.529292   21.009506   22.804006 C.3        1 MOL1        -0.1684
       2    H1      20.169475   20.859077   21.779885 H          1 MOL1         0.0833
       3    H2      20.657297   22.096711   22.894962 H          1 MOL1         0.0833
       4    C2      21.926242   20.365293   22.986323 C.3        1 MOL1        -0.1684
       5    H3      22.606787   20.848114   22.271728 H          1 MOL1         0.0833
       6    H4      22.314665   20.616938   23.982470 H          1 MOL1         0.0833
       7    C3      22.030468   18.832777   22.778256 C.3        1 MOL1        -0.1684
       8    H5      21.739440   18.299723   23.690517 H          1 MOL1         0.0833
       9    H6      23.095303   18.595119   22.649226 H          1 MOL1         0.0833
      10    C4      21.257784   18.276334   21.552651 C.3        1 MOL1        -0.1760
      11    H7      21.115970   19.053574   20.792015 H          1 MOL1         0.0833
      12    H8      21.898333   17.520237   21.079096 H          1 MOL1         0.0833
      13    C5      19.913469   17.583501   21.889212 C.3        1 MOL1         0.1219
      14    H9      20.104566   16.819516   22.656289 H          1 MOL1         0.0790
      15    C6      18.769902   18.498849   22.394061 C.3        1 MOL1        -0.1760
      16    H10     18.546252   19.283399   21.661094 H          1 MOL1         0.0833
      17    H11     17.863154   17.881134   22.443818 H          1 MOL1         0.0833
      18    C7      18.993017   19.104461   23.805527 C.3        1 MOL1        -0.1684
      19    H12     19.685376   18.483441   24.385214 H          1 MOL1         0.0833
      20    H13     18.044747   19.046883   24.357320 H          1 MOL1         0.0833
      21    C8      19.444175   20.587300   23.825761 C.3        1 MOL1        -0.1684
      22    H14     19.780894   20.843572   24.839395 H          1 MOL1         0.0833
      23    H15     18.558346   21.210228   23.640915 H          1 MOL1         0.0833
      24    O1      19.456832   16.933836   20.710816 O.3        1 MOL1        -0.5508
      25    H16     19.296855   17.639284   20.050863 H          1 MOL1         0.3780
@<TRIPOS>BOND
    1     1     2    1
    2     1     3    1
    3     1     4    1
    4     4     5    1
    5     4     6    1
    6     4     7    1
    7     7     8    1
    8     7     9    1
    9     7    10    1
   10    10    11    1
   11    10    12    1
   12    10    13    1
   13    13    14    1
   14    13    15    1
   15    15    16    1
   16    15    17    1
   17    15    18    1
   18    18    19    1
   19    18    20    1
   20     1    21    1
   21    18    21    1
   22    21    22    1
   23    21    23    1
   24    13    24    1
   25    24    25    1
@<TRIPOS>SUBSTRUCTURE
       1 MOL1            1 RESIDUE      1      MOL     
@<SCITEGIC>MOL_PROPERTY
VConf Rank
SciTegic.value.IntegerValue
664

@<SCITEGIC>MOL_PROPERTY
Conf_Id
SciTegic.value.IntegerValue
15

@<SCITEGIC>MOL_PROPERTY
Delta U+W
SciTegic.value.DoubleValue
-1.271

@<SCITEGIC>MOL_PROPERTY
U+W
SciTegic.value.DoubleValue
9.643

@<SCITEGIC>MOL_PROPERTY
Grad RMS
SciTegic.value.DoubleValue
0.000000

@<SCITEGIC>MOL_PROPERTY
U
SciTegic.value.DoubleValue
11.413

@<SCITEGIC>MOL_PROPERTY
W
SciTegic.value.DoubleValue
-1.770

@<SCITEGIC>MOL_PROPERTY
W(PB)
SciTegic.value.DoubleValue
-3.908

@<SCITEGIC>MOL_PROPERTY
W(SA)
SciTegic.value.DoubleValue
2.138

@<SCITEGIC>MOL_PROPERTY
Valence
SciTegic.value.DoubleValue
17.496

@<SCITEGIC>MOL_PROPERTY
Coulomb
SciTegic.value.DoubleValue
-8.736

@<SCITEGIC>MOL_PROPERTY
VdW
SciTegic.value.DoubleValue
2.653

@<SCITEGIC>MOL_PROPERTY
VdW6
SciTegic.value.DoubleValue
-12.485

@<SCITEGIC>MOL_PROPERTY
VdW12
SciTegic.value.DoubleValue
15.138

@<SCITEGIC>MOL_PROPERTY
Bond
SciTegic.value.DoubleValue
0.414

@<SCITEGIC>MOL_PROPERTY
Angle
SciTegic.value.DoubleValue
5.295

@<SCITEGIC>MOL_PROPERTY
Pdih
SciTegic.value.DoubleValue
11.787

@<SCITEGIC>MOL_PROPERTY
Idih
SciTegic.value.DoubleValue
0.000

@<SCITEGIC>MOL_PROPERTY
Tether
SciTegic.value.DoubleValue
0.000

@<TRIPOS>MOLECULE
guest-s17_confgen4.mol2 : confsearch ligand conformer 665
          25          25           1
SMALL
USER_CHARGES
 
@<TRIPOS>ATOM
       1    C1      20.542518   20.330450   21.089669 C.3        1 MOL1        -0.1684
       2    H1      20.840128   20.875160   20.183192 H          1 MOL1         0.0833
       3    H2      19.854611   21.008654   21.610236 H          1 MOL1         0.0833
       4    C2      19.800777   19.049406   20.625373 C.3        1 MOL1        -0.1684
       5    H3      18.862226   19.354878   20.143052 H          1 MOL1         0.0833
       6    H4      20.393890   18.559916   19.840905 H          1 MOL1         0.0833
       7    C3      19.478719   17.999789   21.716206 C.3        1 MOL1        -0.1684
       8    H5      20.379564   17.417394   21.942183 H          1 MOL1         0.0833
       9    H6      18.773653   17.272239   21.291543 H          1 MOL1         0.0833
      10    C4      18.861350   18.596607   23.007763 C.3        1 MOL1        -0.1760
      11    H7      18.608109   19.653363   22.868026 H          1 MOL1         0.0833
      12    H8      17.901023   18.098830   23.195344 H          1 MOL1         0.0833
      13    C5      19.731390   18.422726   24.273884 C.3        1 MOL1         0.1219
      14    H9      19.671199   17.367310   24.576050 H          1 MOL1         0.0790
      15    C6      21.235714   18.772103   24.134516 C.3        1 MOL1        -0.1760
      16    H10     21.662677   18.759629   25.146386 H          1 MOL1         0.0833
      17    H11     21.760495   17.966871   23.606579 H          1 MOL1         0.0833
      18    C7      21.583267   20.138005   23.484470 C.3        1 MOL1        -0.1684
      19    H12     22.527226   20.472322   23.936484 H          1 MOL1         0.0833
      20    H13     20.846408   20.905224   23.755074 H          1 MOL1         0.0833
      21    C8      21.811153   20.101776   21.948067 C.3        1 MOL1        -0.1684
      22    H14     22.327379   19.181189   21.644399 H          1 MOL1         0.0833
      23    H15     22.507976   20.917362   21.710511 H          1 MOL1         0.0833
      24    O1      19.176480   19.224812   25.306909 O.3        1 MOL1        -0.5508
      25    H16     19.336710   20.152531   25.040812 H          1 MOL1         0.3780
@<TRIPOS>BOND
    1     1     2    1
    2     1     3    1
    3     1     4    1
    4     4     5    1
    5     4     6    1
    6     4     7    1
    7     7     8    1
    8     7     9    1
    9     7    10    1
   10    10    11    1
   11    10    12    1
   12    10    13    1
   13    13    14    1
   14    13    15    1
   15    15    16    1
   16    15    17    1
   17    15    18    1
   18    18    19    1
   19    18    20    1
   20     1    21    1
   21    18    21    1
   22    21    22    1
   23    21    23    1
   24    13    24    1
   25    24    25    1
@<TRIPOS>SUBSTRUCTURE
       1 MOL1            1 RESIDUE      1      MOL     
@<SCITEGIC>MOL_PROPERTY
VConf Rank
SciTegic.value.IntegerValue
665

@<SCITEGIC>MOL_PROPERTY
Conf_Id
SciTegic.value.IntegerValue
115

@<SCITEGIC>MOL_PROPERTY
Delta U+W
SciTegic.value.DoubleValue
0.038

@<SCITEGIC>MOL_PROPERTY
U+W
SciTegic.value.DoubleValue
10.952

@<SCITEGIC>MOL_PROPERTY
Grad RMS
SciTegic.value.DoubleValue
0.000000

@<SCITEGIC>MOL_PROPERTY
U
SciTegic.value.DoubleValue
12.526

@<SCITEGIC>MOL_PROPERTY
W
SciTegic.value.DoubleValue
-1.575

@<SCITEGIC>MOL_PROPERTY
W(PB)
SciTegic.value.DoubleValue
-3.698

@<SCITEGIC>MOL_PROPERTY
W(SA)
SciTegic.value.DoubleValue
2.123

@<SCITEGIC>MOL_PROPERTY
Valence
SciTegic.value.DoubleValue
19.016

@<SCITEGIC>MOL_PROPERTY
Coulomb
SciTegic.value.DoubleValue
-9.226

@<SCITEGIC>MOL_PROPERTY
VdW
SciTegic.value.DoubleValue
2.737

@<SCITEGIC>MOL_PROPERTY
VdW6
SciTegic.value.DoubleValue
-12.612

@<SCITEGIC>MOL_PROPERTY
VdW12
SciTegic.value.DoubleValue
15.349

@<SCITEGIC>MOL_PROPERTY
Bond
SciTegic.value.DoubleValue
0.421

@<SCITEGIC>MOL_PROPERTY
Angle
SciTegic.value.DoubleValue
4.883

@<SCITEGIC>MOL_PROPERTY
Pdih
SciTegic.value.DoubleValue
13.711

@<SCITEGIC>MOL_PROPERTY
Idih
SciTegic.value.DoubleValue
0.000

@<SCITEGIC>MOL_PROPERTY
Tether
SciTegic.value.DoubleValue
0.000

@<TRIPOS>MOLECULE
guest-s17_confgen4.mol2 : confsearch ligand conformer 666
          25          25           1
SMALL
USER_CHARGES
 
@<TRIPOS>ATOM
       1    C1      21.662518   20.838267   22.111242 C.3        1 MOL1        -0.1684
       2    H1      22.329379   21.683703   22.329234 H          1 MOL1         0.0833
       3    H2      21.843362   20.585051   21.057841 H          1 MOL1         0.0833
       4    C2      20.210529   21.337521   22.295660 C.3        1 MOL1        -0.1684
       5    H3      20.065499   21.705402   23.320464 H          1 MOL1         0.0833
       6    H4      20.079737   22.214063   21.646379 H          1 MOL1         0.0833
       7    C3      19.111638   20.310812   21.936213 C.3        1 MOL1        -0.1684
       8    H5      19.379797   19.770877   21.018314 H          1 MOL1         0.0833
       9    H6      18.202932   20.875841   21.686894 H          1 MOL1         0.0833
      10    C4      18.751008   19.332054   23.085960 C.3        1 MOL1        -0.1760
      11    H7      19.162352   19.673530   24.044083 H          1 MOL1         0.0833
      12    H8      17.659933   19.360329   23.209716 H          1 MOL1         0.0833
      13    C5      19.161126   17.864657   22.828076 C.3        1 MOL1         0.1219
      14    H9      19.033447   17.642147   21.759031 H          1 MOL1         0.0790
      15    C6      20.607910   17.517492   23.243680 C.3        1 MOL1        -0.1760
      16    H10     20.735723   17.675433   24.322712 H          1 MOL1         0.0833
      17    H11     20.749912   16.441094   23.080539 H          1 MOL1         0.0833
      18    C7      21.719616   18.258506   22.461583 C.3        1 MOL1        -0.1684
      19    H12     21.468818   18.306974   21.393509 H          1 MOL1         0.0833
      20    H13     22.626708   17.641185   22.519295 H          1 MOL1         0.0833
      21    C8      22.076314   19.659613   23.023428 C.3        1 MOL1        -0.1684
      22    H14     23.168700   19.700541   23.133979 H          1 MOL1         0.0833
      23    H15     21.676854   19.800531   24.036543 H          1 MOL1         0.0833
      24    O1      18.288865   17.025917   23.575955 O.3        1 MOL1        -0.5508
      25    H16     18.529166   16.101217   23.357967 H          1 MOL1         0.3780
@<TRIPOS>BOND
    1     1     2    1
    2     1     3    1
    3     1     4    1
    4     4     5    1
    5     4     6    1
    6     4     7    1
    7     7     8    1
    8     7     9    1
    9     7    10    1
   10    10    11    1
   11    10    12    1
   12    10    13    1
   13    13    14    1
   14    13    15    1
   15    15    16    1
   16    15    17    1
   17    15    18    1
   18    18    19    1
   19    18    20    1
   20     1    21    1
   21    18    21    1
   22    21    22    1
   23    21    23    1
   24    13    24    1
   25    24    25    1
@<TRIPOS>SUBSTRUCTURE
       1 MOL1            1 RESIDUE      1      MOL     
@<SCITEGIC>MOL_PROPERTY
VConf Rank
SciTegic.value.IntegerValue
666

@<SCITEGIC>MOL_PROPERTY
Conf_Id
SciTegic.value.IntegerValue
30

@<SCITEGIC>MOL_PROPERTY
Delta U+W
SciTegic.value.DoubleValue
0.000

@<SCITEGIC>MOL_PROPERTY
U+W
SciTegic.value.DoubleValue
10.913

@<SCITEGIC>MOL_PROPERTY
Grad RMS
SciTegic.value.DoubleValue
0.000000

@<SCITEGIC>MOL_PROPERTY
U
SciTegic.value.DoubleValue
13.140

@<SCITEGIC>MOL_PROPERTY
W
SciTegic.value.DoubleValue
-2.227

@<SCITEGIC>MOL_PROPERTY
W(PB)
SciTegic.value.DoubleValue
-4.367

@<SCITEGIC>MOL_PROPERTY
W(SA)
SciTegic.value.DoubleValue
2.140

@<SCITEGIC>MOL_PROPERTY
Valence
SciTegic.value.DoubleValue
19.155

@<SCITEGIC>MOL_PROPERTY
Coulomb
SciTegic.value.DoubleValue
-8.157

@<SCITEGIC>MOL_PROPERTY
VdW
SciTegic.value.DoubleValue
2.142

@<SCITEGIC>MOL_PROPERTY
VdW6
SciTegic.value.DoubleValue
-11.576

@<SCITEGIC>MOL_PROPERTY
VdW12
SciTegic.value.DoubleValue
13.718

@<SCITEGIC>MOL_PROPERTY
Bond
SciTegic.value.DoubleValue
0.294

@<SCITEGIC>MOL_PROPERTY
Angle
SciTegic.value.DoubleValue
3.547

@<SCITEGIC>MOL_PROPERTY
Pdih
SciTegic.value.DoubleValue
15.314

@<SCITEGIC>MOL_PROPERTY
Idih
SciTegic.value.DoubleValue
0.000

@<SCITEGIC>MOL_PROPERTY
Tether
SciTegic.value.DoubleValue
0.000

@<TRIPOS>MOLECULE
guest-s17_confgen4.mol2 : confsearch ligand conformer 667
          25          25           1
SMALL
USER_CHARGES
 
@<TRIPOS>ATOM
       1    C1      19.292300   17.892097   23.968311 C.3        1 MOL1        -0.1684
       2    H1      19.071084   16.817463   23.912794 H          1 MOL1         0.0833
       3    H2      18.812015   18.246636   24.890483 H          1 MOL1         0.0833
       4    C2      18.614158   18.595784   22.767048 C.3        1 MOL1        -0.1684
       5    H3      17.599794   18.186744   22.663987 H          1 MOL1         0.0833
       6    H4      18.462550   19.656292   22.999196 H          1 MOL1         0.0833
       7    C3      19.357691   18.420317   21.418652 C.3        1 MOL1        -0.1684
       8    H5      18.661356   17.991962   20.684952 H          1 MOL1         0.0833
       9    H6      20.161795   17.680443   21.506042 H          1 MOL1         0.0833
      10    C4      19.922400   19.738791   20.831893 C.3        1 MOL1        -0.1760
      11    H7      20.583285   19.489107   19.991268 H          1 MOL1         0.0833
      12    H8      19.090690   20.311621   20.401438 H          1 MOL1         0.0833
      13    C5      20.679294   20.672273   21.809594 C.3        1 MOL1         0.1219
      14    H9      19.960443   21.128936   22.502919 H          1 MOL1         0.0790
      15    C6      21.798565   19.991500   22.634867 C.3        1 MOL1        -0.1760
      16    H10     22.251334   19.172791   22.061051 H          1 MOL1         0.0833
      17    H11     22.605061   20.721826   22.783814 H          1 MOL1         0.0833
      18    C7      21.368310   19.506240   24.048074 C.3        1 MOL1        -0.1684
      19    H12     20.657973   20.205407   24.509602 H          1 MOL1         0.0833
      20    H13     22.264273   19.539778   24.683183 H          1 MOL1         0.0833
      21    C8      20.829260   18.055515   24.108244 C.3        1 MOL1        -0.1684
      22    H14     21.107934   17.632446   25.083139 H          1 MOL1         0.0833
      23    H15     21.352523   17.430506   23.373472 H          1 MOL1         0.0833
      24    O1      21.263004   21.710709   21.031679 O.3        1 MOL1        -0.5508
      25    H16     21.671542   22.340116   21.662074 H          1 MOL1         0.3780
@<TRIPOS>BOND
    1     1     2    1
    2     1     3    1
    3     1     4    1
    4     4     5    1
    5     4     6    1
    6     4     7    1
    7     7     8    1
    8     7     9    1
    9     7    10    1
   10    10    11    1
   11    10    12    1
   12    10    13    1
   13    13    14    1
   14    13    15    1
   15    15    16    1
   16    15    17    1
   17    15    18    1
   18    18    19    1
   19    18    20    1
   20     1    21    1
   21    18    21    1
   22    21    22    1
   23    21    23    1
   24    13    24    1
   25    24    25    1
@<TRIPOS>SUBSTRUCTURE
       1 MOL1            1 RESIDUE      1      MOL     
@<SCITEGIC>MOL_PROPERTY
VConf Rank
SciTegic.value.IntegerValue
667

@<SCITEGIC>MOL_PROPERTY
Conf_Id
SciTegic.value.IntegerValue
162

@<SCITEGIC>MOL_PROPERTY
Delta U+W
SciTegic.value.DoubleValue
0.219

@<SCITEGIC>MOL_PROPERTY
U+W
SciTegic.value.DoubleValue
11.132

@<SCITEGIC>MOL_PROPERTY
Grad RMS
SciTegic.value.DoubleValue
0.000000

@<SCITEGIC>MOL_PROPERTY
U
SciTegic.value.DoubleValue
13.296

@<SCITEGIC>MOL_PROPERTY
W
SciTegic.value.DoubleValue
-2.164

@<SCITEGIC>MOL_PROPERTY
W(PB)
SciTegic.value.DoubleValue
-4.311

@<SCITEGIC>MOL_PROPERTY
W(SA)
SciTegic.value.DoubleValue
2.148

@<SCITEGIC>MOL_PROPERTY
Valence
SciTegic.value.DoubleValue
18.607

@<SCITEGIC>MOL_PROPERTY
Coulomb
SciTegic.value.DoubleValue
-8.339

@<SCITEGIC>MOL_PROPERTY
VdW
SciTegic.value.DoubleValue
3.028

@<SCITEGIC>MOL_PROPERTY
VdW6
SciTegic.value.DoubleValue
-12.271

@<SCITEGIC>MOL_PROPERTY
VdW12
SciTegic.value.DoubleValue
15.299

@<SCITEGIC>MOL_PROPERTY
Bond
SciTegic.value.DoubleValue
0.423

@<SCITEGIC>MOL_PROPERTY
Angle
SciTegic.value.DoubleValue
4.488

@<SCITEGIC>MOL_PROPERTY
Pdih
SciTegic.value.DoubleValue
13.696

@<SCITEGIC>MOL_PROPERTY
Idih
SciTegic.value.DoubleValue
0.000

@<SCITEGIC>MOL_PROPERTY
Tether
SciTegic.value.DoubleValue
0.000

@<TRIPOS>MOLECULE
guest-s17_confgen4.mol2 : confsearch ligand conformer 668
          25          25           1
SMALL
USER_CHARGES
 
@<TRIPOS>ATOM
       1    C1      21.068641   20.612002   21.408188 C.3        1 MOL1        -0.1684
       2    H1      20.040547   20.980475   21.301201 H          1 MOL1         0.0833
       3    H2      21.675077   21.293391   20.795888 H          1 MOL1         0.0833
       4    C2      21.530245   20.753101   22.880164 C.3        1 MOL1        -0.1684
       5    H3      22.380725   20.089765   23.087289 H          1 MOL1         0.0833
       6    H4      21.922679   21.772943   22.994426 H          1 MOL1         0.0833
       7    C3      20.410821   20.579882   23.944329 C.3        1 MOL1        -0.1684
       8    H5      19.463061   21.013034   23.597491 H          1 MOL1         0.0833
       9    H6      20.704355   21.183028   24.814492 H          1 MOL1         0.0833
      10    C4      20.201110   19.130204   24.453882 C.3        1 MOL1        -0.1760
      11    H7      21.159928   18.597647   24.472495 H          1 MOL1         0.0833
      12    H8      19.888557   19.186126   25.504785 H          1 MOL1         0.0833
      13    C5      19.126112   18.290973   23.718086 C.3        1 MOL1         0.1219
      14    H9      18.140474   18.701007   23.981680 H          1 MOL1         0.0790
      15    C6      19.215459   18.265641   22.173602 C.3        1 MOL1        -0.1760
      16    H10     18.545021   17.482005   21.797534 H          1 MOL1         0.0833
      17    H11     18.795424   19.196510   21.777836 H          1 MOL1         0.0833
      18    C7      20.639113   18.016804   21.609010 C.3        1 MOL1        -0.1684
      19    H12     20.612736   17.128641   20.963386 H          1 MOL1         0.0833
      20    H13     21.338886   17.757100   22.412118 H          1 MOL1         0.0833
      21    C8      21.209950   19.197218   20.786484 C.3        1 MOL1        -0.1684
      22    H14     20.724403   19.207222   19.801150 H          1 MOL1         0.0833
      23    H15     22.273018   18.998886   20.593445 H          1 MOL1         0.0833
      24    O1      19.213598   16.954867   24.198988 O.3        1 MOL1        -0.5508
      25    H16     18.530772   16.438849   23.722974 H          1 MOL1         0.3780
@<TRIPOS>BOND
    1     1     2    1
    2     1     3    1
    3     1     4    1
    4     4     5    1
    5     4     6    1
    6     4     7    1
    7     7     8    1
    8     7     9    1
    9     7    10    1
   10    10    11    1
   11    10    12    1
   12    10    13    1
   13    13    14    1
   14    13    15    1
   15    15    16    1
   16    15    17    1
   17    15    18    1
   18    18    19    1
   19    18    20    1
   20     1    21    1
   21    18    21    1
   22    21    22    1
   23    21    23    1
   24    13    24    1
   25    24    25    1
@<TRIPOS>SUBSTRUCTURE
       1 MOL1            1 RESIDUE      1      MOL     
@<SCITEGIC>MOL_PROPERTY
VConf Rank
SciTegic.value.IntegerValue
668

@<SCITEGIC>MOL_PROPERTY
Conf_Id
SciTegic.value.IntegerValue
155

@<SCITEGIC>MOL_PROPERTY
Delta U+W
SciTegic.value.DoubleValue
0.339

@<SCITEGIC>MOL_PROPERTY
U+W
SciTegic.value.DoubleValue
11.252

@<SCITEGIC>MOL_PROPERTY
Grad RMS
SciTegic.value.DoubleValue
0.000000

@<SCITEGIC>MOL_PROPERTY
U
SciTegic.value.DoubleValue
13.420

@<SCITEGIC>MOL_PROPERTY
W
SciTegic.value.DoubleValue
-2.167

@<SCITEGIC>MOL_PROPERTY
W(PB)
SciTegic.value.DoubleValue
-4.325

@<SCITEGIC>MOL_PROPERTY
W(SA)
SciTegic.value.DoubleValue
2.157

@<SCITEGIC>MOL_PROPERTY
Valence
SciTegic.value.DoubleValue
18.609

@<SCITEGIC>MOL_PROPERTY
Coulomb
SciTegic.value.DoubleValue
-8.052

@<SCITEGIC>MOL_PROPERTY
VdW
SciTegic.value.DoubleValue
2.863

@<SCITEGIC>MOL_PROPERTY
VdW6
SciTegic.value.DoubleValue
-12.524

@<SCITEGIC>MOL_PROPERTY
VdW12
SciTegic.value.DoubleValue
15.387

@<SCITEGIC>MOL_PROPERTY
Bond
SciTegic.value.DoubleValue
0.430

@<SCITEGIC>MOL_PROPERTY
Angle
SciTegic.value.DoubleValue
4.724

@<SCITEGIC>MOL_PROPERTY
Pdih
SciTegic.value.DoubleValue
13.455

@<SCITEGIC>MOL_PROPERTY
Idih
SciTegic.value.DoubleValue
0.000

@<SCITEGIC>MOL_PROPERTY
Tether
SciTegic.value.DoubleValue
0.000

@<TRIPOS>MOLECULE
guest-s17_confgen4.mol2 : confsearch ligand conformer 669
          25          25           1
SMALL
USER_CHARGES
 
@<TRIPOS>ATOM
       1    C1      18.686750   18.212387   23.164531 C.3        1 MOL1        -0.1684
       2    H1      18.328049   17.522634   22.388700 H          1 MOL1         0.0833
       3    H2      17.983780   18.101994   24.001448 H          1 MOL1         0.0833
       4    C2      20.071973   17.733621   23.673217 C.3        1 MOL1        -0.1684
       5    H3      20.377067   18.349806   24.524906 H          1 MOL1         0.0833
       6    H4      19.937266   16.736105   24.113139 H          1 MOL1         0.0833
       7    C3      21.222488   17.621744   22.630618 C.3        1 MOL1        -0.1684
       8    H5      21.150420   16.628795   22.166494 H          1 MOL1         0.0833
       9    H6      22.184858   17.629235   23.160247 H          1 MOL1         0.0833
      10    C4      21.269237   18.659823   21.476447 C.3        1 MOL1        -0.1760
      11    H7      22.050996   18.336991   20.776496 H          1 MOL1         0.0833
      12    H8      20.354906   18.577919   20.882273 H          1 MOL1         0.0833
      13    C5      21.543508   20.147910   21.843432 C.3        1 MOL1         0.1219
      14    H9      21.139666   20.772444   21.033718 H          1 MOL1         0.0790
      15    C6      20.971215   20.676408   23.182727 C.3        1 MOL1        -0.1760
      16    H10     21.410167   20.108036   24.007829 H          1 MOL1         0.0833
      17    H11     21.362391   21.691630   23.330819 H          1 MOL1         0.0833
      18    C7      19.422237   20.761298   23.330261 C.3        1 MOL1        -0.1684
      19    H12     19.105427   21.729621   22.919385 H          1 MOL1         0.0833
      20    H13     19.168941   20.799770   24.398289 H          1 MOL1         0.0833
      21    C8      18.558994   19.672694   22.640014 C.3        1 MOL1        -0.1684
      22    H14     18.719730   19.713362   21.558124 H          1 MOL1         0.0833
      23    H15     17.505883   19.964255   22.753268 H          1 MOL1         0.0833
      24    O1      22.954131   20.331402   21.895006 O.3        1 MOL1        -0.5508
      25    H16     23.308644   20.044989   21.028098 H          1 MOL1         0.3780
@<TRIPOS>BOND
    1     1     2    1
    2     1     3    1
    3     1     4    1
    4     4     5    1
    5     4     6    1
    6     4     7    1
    7     7     8    1
    8     7     9    1
    9     7    10    1
   10    10    11    1
   11    10    12    1
   12    10    13    1
   13    13    14    1
   14    13    15    1
   15    15    16    1
   16    15    17    1
   17    15    18    1
   18    18    19    1
   19    18    20    1
   20     1    21    1
   21    18    21    1
   22    21    22    1
   23    21    23    1
   24    13    24    1
   25    24    25    1
@<TRIPOS>SUBSTRUCTURE
       1 MOL1            1 RESIDUE      1      MOL     
@<SCITEGIC>MOL_PROPERTY
VConf Rank
SciTegic.value.IntegerValue
669

@<SCITEGIC>MOL_PROPERTY
Conf_Id
SciTegic.value.IntegerValue
146

@<SCITEGIC>MOL_PROPERTY
Delta U+W
SciTegic.value.DoubleValue
2.553

@<SCITEGIC>MOL_PROPERTY
U+W
SciTegic.value.DoubleValue
13.466

@<SCITEGIC>MOL_PROPERTY
Grad RMS
SciTegic.value.DoubleValue
0.000000

@<SCITEGIC>MOL_PROPERTY
U
SciTegic.value.DoubleValue
15.643

@<SCITEGIC>MOL_PROPERTY
W
SciTegic.value.DoubleValue
-2.176

@<SCITEGIC>MOL_PROPERTY
W(PB)
SciTegic.value.DoubleValue
-4.307

@<SCITEGIC>MOL_PROPERTY
W(SA)
SciTegic.value.DoubleValue
2.131

@<SCITEGIC>MOL_PROPERTY
Valence
SciTegic.value.DoubleValue
18.916

@<SCITEGIC>MOL_PROPERTY
Coulomb
SciTegic.value.DoubleValue
-7.506

@<SCITEGIC>MOL_PROPERTY
VdW
SciTegic.value.DoubleValue
4.232

@<SCITEGIC>MOL_PROPERTY
VdW6
SciTegic.value.DoubleValue
-13.632

@<SCITEGIC>MOL_PROPERTY
VdW12
SciTegic.value.DoubleValue
17.864

@<SCITEGIC>MOL_PROPERTY
Bond
SciTegic.value.DoubleValue
0.735

@<SCITEGIC>MOL_PROPERTY
Angle
SciTegic.value.DoubleValue
9.140

@<SCITEGIC>MOL_PROPERTY
Pdih
SciTegic.value.DoubleValue
9.042

@<SCITEGIC>MOL_PROPERTY
Idih
SciTegic.value.DoubleValue
0.000

@<SCITEGIC>MOL_PROPERTY
Tether
SciTegic.value.DoubleValue
0.000

@<TRIPOS>MOLECULE
guest-s17_confgen4.mol2 : confsearch ligand conformer 670
          25          25           1
SMALL
USER_CHARGES
 
@<TRIPOS>ATOM
       1    C1      21.538515   19.233871   20.987822 C.3        1 MOL1        -0.1684
       2    H1      21.406592   19.932779   20.150787 H          1 MOL1         0.0833
       3    H2      22.394712   18.602270   20.714108 H          1 MOL1         0.0833
       4    C2      20.296811   18.312554   21.085225 C.3        1 MOL1        -0.1684
       5    H3      20.227077   17.758716   20.139074 H          1 MOL1         0.0833
       6    H4      20.454456   17.539510   21.845947 H          1 MOL1         0.0833
       7    C3      18.936663   19.021457   21.303940 C.3        1 MOL1        -0.1684
       8    H5      18.150475   18.257277   21.233813 H          1 MOL1         0.0833
       9    H6      18.751509   19.716225   20.473603 H          1 MOL1         0.0833
      10    C4      18.745219   19.777015   22.644904 C.3        1 MOL1        -0.1760
      11    H7      19.204540   20.769099   22.591400 H          1 MOL1         0.0833
      12    H8      17.670594   19.977891   22.751515 H          1 MOL1         0.0833
      13    C5      19.246441   19.022228   23.903136 C.3        1 MOL1         0.1219
      14    H9      19.325883   17.949419   23.681749 H          1 MOL1         0.0790
      15    C6      20.602244   19.534814   24.451603 C.3        1 MOL1        -0.1760
      16    H10     20.529768   20.614015   24.640796 H          1 MOL1         0.0833
      17    H11     20.767418   19.072098   25.433414 H          1 MOL1         0.0833
      18    C7      21.861625   19.248717   23.589215 C.3        1 MOL1        -0.1684
      19    H12     21.980004   18.171050   23.417695 H          1 MOL1         0.0833
      20    H13     22.734154   19.540635   24.189597 H          1 MOL1         0.0833
      21    C8      21.929961   20.036615   22.255411 C.3        1 MOL1        -0.1684
      22    H14     22.964295   20.378743   22.113498 H          1 MOL1         0.0833
      23    H15     21.344652   20.960507   22.323676 H          1 MOL1         0.0833
      24    O1      18.281020   19.192874   24.934733 O.3        1 MOL1        -0.5508
      25    H16     18.586468   18.661519   25.699314 H          1 MOL1         0.3780
@<TRIPOS>BOND
    1     1     2    1
    2     1     3    1
    3     1     4    1
    4     4     5    1
    5     4     6    1
    6     4     7    1
    7     7     8    1
    8     7     9    1
    9     7    10    1
   10    10    11    1
   11    10    12    1
   12    10    13    1
   13    13    14    1
   14    13    15    1
   15    15    16    1
   16    15    17    1
   17    15    18    1
   18    18    19    1
   19    18    20    1
   20     1    21    1
   21    18    21    1
   22    21    22    1
   23    21    23    1
   24    13    24    1
   25    24    25    1
@<TRIPOS>SUBSTRUCTURE
       1 MOL1            1 RESIDUE      1      MOL     
@<SCITEGIC>MOL_PROPERTY
VConf Rank
SciTegic.value.IntegerValue
670

@<SCITEGIC>MOL_PROPERTY
Conf_Id
SciTegic.value.IntegerValue
62

@<SCITEGIC>MOL_PROPERTY
Delta U+W
SciTegic.value.DoubleValue
-1.779

@<SCITEGIC>MOL_PROPERTY
U+W
SciTegic.value.DoubleValue
9.134

@<SCITEGIC>MOL_PROPERTY
Grad RMS
SciTegic.value.DoubleValue
0.000000

@<SCITEGIC>MOL_PROPERTY
U
SciTegic.value.DoubleValue
11.364

@<SCITEGIC>MOL_PROPERTY
W
SciTegic.value.DoubleValue
-2.230

@<SCITEGIC>MOL_PROPERTY
W(PB)
SciTegic.value.DoubleValue
-4.359

@<SCITEGIC>MOL_PROPERTY
W(SA)
SciTegic.value.DoubleValue
2.129

@<SCITEGIC>MOL_PROPERTY
Valence
SciTegic.value.DoubleValue
16.582

@<SCITEGIC>MOL_PROPERTY
Coulomb
SciTegic.value.DoubleValue
-8.150

@<SCITEGIC>MOL_PROPERTY
VdW
SciTegic.value.DoubleValue
2.933

@<SCITEGIC>MOL_PROPERTY
VdW6
SciTegic.value.DoubleValue
-12.531

@<SCITEGIC>MOL_PROPERTY
VdW12
SciTegic.value.DoubleValue
15.464

@<SCITEGIC>MOL_PROPERTY
Bond
SciTegic.value.DoubleValue
0.439

@<SCITEGIC>MOL_PROPERTY
Angle
SciTegic.value.DoubleValue
5.099

@<SCITEGIC>MOL_PROPERTY
Pdih
SciTegic.value.DoubleValue
11.044

@<SCITEGIC>MOL_PROPERTY
Idih
SciTegic.value.DoubleValue
0.000

@<SCITEGIC>MOL_PROPERTY
Tether
SciTegic.value.DoubleValue
0.000

@<TRIPOS>MOLECULE
guest-s17_confgen4.mol2 : confsearch ligand conformer 671
          25          25           1
SMALL
USER_CHARGES
 
@<TRIPOS>ATOM
       1    C1      19.498163   20.828404   22.936205 C.3        1 MOL1        -0.1684
       2    H1      19.970761   20.933329   21.952963 H          1 MOL1         0.0833
       3    H2      19.000424   21.792445   23.108026 H          1 MOL1         0.0833
       4    C2      20.574460   20.663474   24.038038 C.3        1 MOL1        -0.1684
       5    H3      21.207772   21.560870   24.016059 H          1 MOL1         0.0833
       6    H4      20.088689   20.666973   25.023183 H          1 MOL1         0.0833
       7    C3      21.502737   19.426025   23.939350 C.3        1 MOL1        -0.1684
       8    H5      21.016714   18.544881   24.373354 H          1 MOL1         0.0833
       9    H6      22.364291   19.614792   24.594420 H          1 MOL1         0.0833
      10    C4      22.035777   19.108716   22.516502 C.3        1 MOL1        -0.1760
      11    H7      22.033533   20.005748   21.885170 H          1 MOL1         0.0833
      12    H8      23.092853   18.831138   22.620831 H          1 MOL1         0.0833
      13    C5      21.319922   17.937252   21.797740 C.3        1 MOL1         0.1219
      14    H9      21.336517   17.062562   22.463790 H          1 MOL1         0.0790
      15    C6      19.852742   18.186756   21.367578 C.3        1 MOL1        -0.1760
      16    H10     19.789736   19.056052   20.701888 H          1 MOL1         0.0833
      17    H11     19.550021   17.329563   20.751632 H          1 MOL1         0.0833
      18    C7      18.836617   18.299779   22.535605 C.3        1 MOL1        -0.1684
      19    H12     19.214157   17.782198   23.424717 H          1 MOL1         0.0833
      20    H13     17.931347   17.742944   22.257449 H          1 MOL1         0.0833
      21    C8      18.394544   19.742233   22.891721 C.3        1 MOL1        -0.1684
      22    H14     17.862940   19.725237   23.852758 H          1 MOL1         0.0833
      23    H15     17.651609   20.058925   22.146982 H          1 MOL1         0.0833
      24    O1      22.063474   17.631956   20.624560 O.3        1 MOL1        -0.5508
      25    H16     22.972393   17.409482   20.915281 H          1 MOL1         0.3780
@<TRIPOS>BOND
    1     1     2    1
    2     1     3    1
    3     1     4    1
    4     4     5    1
    5     4     6    1
    6     4     7    1
    7     7     8    1
    8     7     9    1
    9     7    10    1
   10    10    11    1
   11    10    12    1
   12    10    13    1
   13    13    14    1
   14    13    15    1
   15    15    16    1
   16    15    17    1
   17    15    18    1
   18    18    19    1
   19    18    20    1
   20     1    21    1
   21    18    21    1
   22    21    22    1
   23    21    23    1
   24    13    24    1
   25    24    25    1
@<TRIPOS>SUBSTRUCTURE
       1 MOL1            1 RESIDUE      1      MOL     
@<SCITEGIC>MOL_PROPERTY
VConf Rank
SciTegic.value.IntegerValue
671

@<SCITEGIC>MOL_PROPERTY
Conf_Id
SciTegic.value.IntegerValue
121

@<SCITEGIC>MOL_PROPERTY
Delta U+W
SciTegic.value.DoubleValue
-1.283

@<SCITEGIC>MOL_PROPERTY
U+W
SciTegic.value.DoubleValue
9.630

@<SCITEGIC>MOL_PROPERTY
Grad RMS
SciTegic.value.DoubleValue
0.000000

@<SCITEGIC>MOL_PROPERTY
U
SciTegic.value.DoubleValue
11.876

@<SCITEGIC>MOL_PROPERTY
W
SciTegic.value.DoubleValue
-2.246

@<SCITEGIC>MOL_PROPERTY
W(PB)
SciTegic.value.DoubleValue
-4.376

@<SCITEGIC>MOL_PROPERTY
W(SA)
SciTegic.value.DoubleValue
2.130

@<SCITEGIC>MOL_PROPERTY
Valence
SciTegic.value.DoubleValue
17.153

@<SCITEGIC>MOL_PROPERTY
Coulomb
SciTegic.value.DoubleValue
-7.966

@<SCITEGIC>MOL_PROPERTY
VdW
SciTegic.value.DoubleValue
2.689

@<SCITEGIC>MOL_PROPERTY
VdW6
SciTegic.value.DoubleValue
-12.458

@<SCITEGIC>MOL_PROPERTY
VdW12
SciTegic.value.DoubleValue
15.147

@<SCITEGIC>MOL_PROPERTY
Bond
SciTegic.value.DoubleValue
0.421

@<SCITEGIC>MOL_PROPERTY
Angle
SciTegic.value.DoubleValue
5.258

@<SCITEGIC>MOL_PROPERTY
Pdih
SciTegic.value.DoubleValue
11.475

@<SCITEGIC>MOL_PROPERTY
Idih
SciTegic.value.DoubleValue
0.000

@<SCITEGIC>MOL_PROPERTY
Tether
SciTegic.value.DoubleValue
0.000

@<TRIPOS>MOLECULE
guest-s17_confgen4.mol2 : confsearch ligand conformer 672
          25          25           1
SMALL
USER_CHARGES
 
@<TRIPOS>ATOM
       1    C1      22.113420   19.715609   22.290532 C.3        1 MOL1        -0.1684
       2    H1      21.968705   18.756735   21.779902 H          1 MOL1         0.0833
       3    H2      23.148036   20.000452   22.055858 H          1 MOL1         0.0833
       4    C2      22.024581   19.528643   23.825743 C.3        1 MOL1        -0.1684
       5    H3      22.813935   18.822258   24.116987 H          1 MOL1         0.0833
       6    H4      22.275895   20.475790   24.321965 H          1 MOL1         0.0833
       7    C3      20.683376   19.001638   24.397023 C.3        1 MOL1        -0.1684
       8    H5      19.969862   19.823527   24.524857 H          1 MOL1         0.0833
       9    H6      20.882468   18.649528   25.418457 H          1 MOL1         0.0833
      10    C4      20.035277   17.837174   23.601056 C.3        1 MOL1        -0.1760
      11    H7      20.787334   17.282882   23.026635 H          1 MOL1         0.0833
      12    H8      19.643849   17.118004   24.332758 H          1 MOL1         0.0833
      13    C5      18.849626   18.245731   22.691535 C.3        1 MOL1         0.1219
      14    H9      18.123869   18.799314   23.304563 H          1 MOL1         0.0790
      15    C6      19.197461   19.109052   21.452554 C.3        1 MOL1        -0.1760
      16    H10     19.927558   18.592793   20.817191 H          1 MOL1         0.0833
      17    H11     18.287772   19.187359   20.842899 H          1 MOL1         0.0833
      18    C7      19.660285   20.555577   21.772973 C.3        1 MOL1        -0.1684
      19    H12     19.279115   20.873842   22.749912 H          1 MOL1         0.0833
      20    H13     19.180540   21.236121   21.056225 H          1 MOL1         0.0833
      21    C8      21.188473   20.797826   21.679847 C.3        1 MOL1        -0.1684
      22    H14     21.423050   21.771807   22.130211 H          1 MOL1         0.0833
      23    H15     21.449366   20.891660   20.616823 H          1 MOL1         0.0833
      24    O1      18.236139   17.050219   22.225908 O.3        1 MOL1        -0.5508
      25    H16     17.448573   17.319031   21.708579 H          1 MOL1         0.3780
@<TRIPOS>BOND
    1     1     2    1
    2     1     3    1
    3     1     4    1
    4     4     5    1
    5     4     6    1
    6     4     7    1
    7     7     8    1
    8     7     9    1
    9     7    10    1
   10    10    11    1
   11    10    12    1
   12    10    13    1
   13    13    14    1
   14    13    15    1
   15    15    16    1
   16    15    17    1
   17    15    18    1
   18    18    19    1
   19    18    20    1
   20     1    21    1
   21    18    21    1
   22    21    22    1
   23    21    23    1
   24    13    24    1
   25    24    25    1
@<TRIPOS>SUBSTRUCTURE
       1 MOL1            1 RESIDUE      1      MOL     
@<SCITEGIC>MOL_PROPERTY
VConf Rank
SciTegic.value.IntegerValue
672

@<SCITEGIC>MOL_PROPERTY
Conf_Id
SciTegic.value.IntegerValue
24

@<SCITEGIC>MOL_PROPERTY
Delta U+W
SciTegic.value.DoubleValue
-1.236

@<SCITEGIC>MOL_PROPERTY
U+W
SciTegic.value.DoubleValue
9.678

@<SCITEGIC>MOL_PROPERTY
Grad RMS
SciTegic.value.DoubleValue
0.000000

@<SCITEGIC>MOL_PROPERTY
U
SciTegic.value.DoubleValue
11.876

@<SCITEGIC>MOL_PROPERTY
W
SciTegic.value.DoubleValue
-2.199

@<SCITEGIC>MOL_PROPERTY
W(PB)
SciTegic.value.DoubleValue
-4.335

@<SCITEGIC>MOL_PROPERTY
W(SA)
SciTegic.value.DoubleValue
2.137

@<SCITEGIC>MOL_PROPERTY
Valence
SciTegic.value.DoubleValue
17.153

@<SCITEGIC>MOL_PROPERTY
Coulomb
SciTegic.value.DoubleValue
-7.966

@<SCITEGIC>MOL_PROPERTY
VdW
SciTegic.value.DoubleValue
2.689

@<SCITEGIC>MOL_PROPERTY
VdW6
SciTegic.value.DoubleValue
-12.458

@<SCITEGIC>MOL_PROPERTY
VdW12
SciTegic.value.DoubleValue
15.147

@<SCITEGIC>MOL_PROPERTY
Bond
SciTegic.value.DoubleValue
0.421

@<SCITEGIC>MOL_PROPERTY
Angle
SciTegic.value.DoubleValue
5.258

@<SCITEGIC>MOL_PROPERTY
Pdih
SciTegic.value.DoubleValue
11.475

@<SCITEGIC>MOL_PROPERTY
Idih
SciTegic.value.DoubleValue
0.000

@<SCITEGIC>MOL_PROPERTY
Tether
SciTegic.value.DoubleValue
0.000

@<TRIPOS>MOLECULE
guest-s17_confgen4.mol2 : confsearch ligand conformer 673
          25          25           1
SMALL
USER_CHARGES
 
@<TRIPOS>ATOM
       1    C1      19.126781   20.774962   21.749205 C.3        1 MOL1        -0.1684
       2    H1      18.153667   20.614799   21.265292 H          1 MOL1         0.0833
       3    H2      19.361833   21.837541   21.599106 H          1 MOL1         0.0833
       4    C2      18.975186   20.530381   23.274131 C.3        1 MOL1        -0.1684
       5    H3      19.808840   20.986019   23.823412 H          1 MOL1         0.0833
       6    H4      18.087333   21.089091   23.600668 H          1 MOL1         0.0833
       7    C3      18.796572   19.055438   23.711510 C.3        1 MOL1        -0.1684
       8    H5      18.221847   18.493448   22.962968 H          1 MOL1         0.0833
       9    H6      18.169228   19.064200   24.613489 H          1 MOL1         0.0833
      10    C4      20.111172   18.313065   24.083847 C.3        1 MOL1        -0.1760
      11    H7      20.812554   18.990065   24.588042 H          1 MOL1         0.0833
      12    H8      19.841968   17.556369   24.833440 H          1 MOL1         0.0833
      13    C5      20.807822   17.586412   22.907525 C.3        1 MOL1         0.1219
      14    H9      20.042900   17.294101   22.176003 H          1 MOL1         0.0790
      15    C6      21.918531   18.395811   22.191280 C.3        1 MOL1        -0.1760
      16    H10     22.798951   18.462641   22.843785 H          1 MOL1         0.0833
      17    H11     22.236742   17.818445   21.313207 H          1 MOL1         0.0833
      18    C7      21.551503   19.827575   21.726541 C.3        1 MOL1        -0.1684
      19    H12     22.338344   20.176264   21.043859 H          1 MOL1         0.0833
      20    H13     21.595993   20.515675   22.578732 H          1 MOL1         0.0833
      21    C8      20.185137   19.926744   21.002274 C.3        1 MOL1        -0.1684
      22    H14     19.776959   18.931579   20.790866 H          1 MOL1         0.0833
      23    H15     20.344012   20.377622   20.013165 H          1 MOL1         0.0833
      24    O1      21.408335   16.398838   23.408287 O.3        1 MOL1        -0.5508
      25    H16     22.070655   16.681839   24.071775 H          1 MOL1         0.3780
@<TRIPOS>BOND
    1     1     2    1
    2     1     3    1
    3     1     4    1
    4     4     5    1
    5     4     6    1
    6     4     7    1
    7     7     8    1
    8     7     9    1
    9     7    10    1
   10    10    11    1
   11    10    12    1
   12    10    13    1
   13    13    14    1
   14    13    15    1
   15    15    16    1
   16    15    17    1
   17    15    18    1
   18    18    19    1
   19    18    20    1
   20     1    21    1
   21    18    21    1
   22    21    22    1
   23    21    23    1
   24    13    24    1
   25    24    25    1
@<TRIPOS>SUBSTRUCTURE
       1 MOL1            1 RESIDUE      1      MOL     
@<SCITEGIC>MOL_PROPERTY
VConf Rank
SciTegic.value.IntegerValue
673

@<SCITEGIC>MOL_PROPERTY
Conf_Id
SciTegic.value.IntegerValue
167

@<SCITEGIC>MOL_PROPERTY
Delta U+W
SciTegic.value.DoubleValue
0.388

@<SCITEGIC>MOL_PROPERTY
U+W
SciTegic.value.DoubleValue
11.301

@<SCITEGIC>MOL_PROPERTY
Grad RMS
SciTegic.value.DoubleValue
0.000000

@<SCITEGIC>MOL_PROPERTY
U
SciTegic.value.DoubleValue
13.202

@<SCITEGIC>MOL_PROPERTY
W
SciTegic.value.DoubleValue
-1.901

@<SCITEGIC>MOL_PROPERTY
W(PB)
SciTegic.value.DoubleValue
-4.065

@<SCITEGIC>MOL_PROPERTY
W(SA)
SciTegic.value.DoubleValue
2.163

@<SCITEGIC>MOL_PROPERTY
Valence
SciTegic.value.DoubleValue
18.957

@<SCITEGIC>MOL_PROPERTY
Coulomb
SciTegic.value.DoubleValue
-8.753

@<SCITEGIC>MOL_PROPERTY
VdW
SciTegic.value.DoubleValue
2.998

@<SCITEGIC>MOL_PROPERTY
VdW6
SciTegic.value.DoubleValue
-12.294

@<SCITEGIC>MOL_PROPERTY
VdW12
SciTegic.value.DoubleValue
15.292

@<SCITEGIC>MOL_PROPERTY
Bond
SciTegic.value.DoubleValue
0.419

@<SCITEGIC>MOL_PROPERTY
Angle
SciTegic.value.DoubleValue
4.543

@<SCITEGIC>MOL_PROPERTY
Pdih
SciTegic.value.DoubleValue
13.996

@<SCITEGIC>MOL_PROPERTY
Idih
SciTegic.value.DoubleValue
0.000

@<SCITEGIC>MOL_PROPERTY
Tether
SciTegic.value.DoubleValue
0.000

@<TRIPOS>MOLECULE
guest-s17_confgen4.mol2 : confsearch ligand conformer 674
          25          25           1
SMALL
USER_CHARGES
 
@<TRIPOS>ATOM
       1    C1      21.795921   17.841381   22.344918 C.3        1 MOL1        -0.1684
       2    H1      22.787818   18.136247   21.976546 H          1 MOL1         0.0833
       3    H2      21.849236   16.755263   22.501199 H          1 MOL1         0.0833
       4    C2      20.747972   18.106920   21.232895 C.3        1 MOL1        -0.1684
       5    H3      20.951813   19.058364   20.728903 H          1 MOL1         0.0833
       6    H4      20.904922   17.347364   20.454771 H          1 MOL1         0.0833
       7    C3      19.265616   18.035992   21.682821 C.3        1 MOL1        -0.1684
       8    H5      19.151530   17.394329   22.566011 H          1 MOL1         0.0833
       9    H6      18.702730   17.530240   20.886405 H          1 MOL1         0.0833
      10    C4      18.586978   19.414135   21.911774 C.3        1 MOL1        -0.1760
      11    H7      18.678505   20.021699   21.001976 H          1 MOL1         0.0833
      12    H8      17.511341   19.235074   22.041110 H          1 MOL1         0.0833
      13    C5      19.074534   20.240676   23.127721 C.3        1 MOL1         0.1219
      14    H9      19.013031   19.620126   24.031763 H          1 MOL1         0.0790
      15    C6      20.510879   20.804831   22.974845 C.3        1 MOL1        -0.1760
      16    H10     20.783546   20.858574   21.916054 H          1 MOL1         0.0833
      17    H11     20.532363   21.848960   23.314367 H          1 MOL1         0.0833
      18    C7      21.602173   20.043095   23.770834 C.3        1 MOL1        -0.1684
      19    H12     21.526805   20.347836   24.823638 H          1 MOL1         0.0833
      20    H13     22.591108   20.381439   23.433072 H          1 MOL1         0.0833
      21    C8      21.549011   18.495132   23.727781 C.3        1 MOL1        -0.1684
      22    H14     20.610338   18.129564   24.159522 H          1 MOL1         0.0833
      23    H15     22.328229   18.123691   24.407246 H          1 MOL1         0.0833
      24    O1      18.179971   21.336341   23.280809 O.3        1 MOL1        -0.5508
      25    H16     18.455640   21.812570   24.091814 H          1 MOL1         0.3780
@<TRIPOS>BOND
    1     1     2    1
    2     1     3    1
    3     1     4    1
    4     4     5    1
    5     4     6    1
    6     4     7    1
    7     7     8    1
    8     7     9    1
    9     7    10    1
   10    10    11    1
   11    10    12    1
   12    10    13    1
   13    13    14    1
   14    13    15    1
   15    15    16    1
   16    15    17    1
   17    15    18    1
   18    18    19    1
   19    18    20    1
   20     1    21    1
   21    18    21    1
   22    21    22    1
   23    21    23    1
   24    13    24    1
   25    24    25    1
@<TRIPOS>SUBSTRUCTURE
       1 MOL1            1 RESIDUE      1      MOL     
@<SCITEGIC>MOL_PROPERTY
VConf Rank
SciTegic.value.IntegerValue
674

@<SCITEGIC>MOL_PROPERTY
Conf_Id
SciTegic.value.IntegerValue
60

@<SCITEGIC>MOL_PROPERTY
Delta U+W
SciTegic.value.DoubleValue
-1.838

@<SCITEGIC>MOL_PROPERTY
U+W
SciTegic.value.DoubleValue
9.075

@<SCITEGIC>MOL_PROPERTY
Grad RMS
SciTegic.value.DoubleValue
0.000000

@<SCITEGIC>MOL_PROPERTY
U
SciTegic.value.DoubleValue
11.150

@<SCITEGIC>MOL_PROPERTY
W
SciTegic.value.DoubleValue
-2.074

@<SCITEGIC>MOL_PROPERTY
W(PB)
SciTegic.value.DoubleValue
-4.196

@<SCITEGIC>MOL_PROPERTY
W(SA)
SciTegic.value.DoubleValue
2.121

@<SCITEGIC>MOL_PROPERTY
Valence
SciTegic.value.DoubleValue
16.582

@<SCITEGIC>MOL_PROPERTY
Coulomb
SciTegic.value.DoubleValue
-8.361

@<SCITEGIC>MOL_PROPERTY
VdW
SciTegic.value.DoubleValue
2.928

@<SCITEGIC>MOL_PROPERTY
VdW6
SciTegic.value.DoubleValue
-12.539

@<SCITEGIC>MOL_PROPERTY
VdW12
SciTegic.value.DoubleValue
15.467

@<SCITEGIC>MOL_PROPERTY
Bond
SciTegic.value.DoubleValue
0.441

@<SCITEGIC>MOL_PROPERTY
Angle
SciTegic.value.DoubleValue
5.093

@<SCITEGIC>MOL_PROPERTY
Pdih
SciTegic.value.DoubleValue
11.049

@<SCITEGIC>MOL_PROPERTY
Idih
SciTegic.value.DoubleValue
0.000

@<SCITEGIC>MOL_PROPERTY
Tether
SciTegic.value.DoubleValue
0.000

@<TRIPOS>MOLECULE
guest-s17_confgen4.mol2 : confsearch ligand conformer 675
          25          25           1
SMALL
USER_CHARGES
 
@<TRIPOS>ATOM
       1    C1      19.996715   17.481899   23.768347 C.3        1 MOL1        -0.1684
       2    H1      19.402102   16.647032   23.373459 H          1 MOL1         0.0833
       3    H2      20.285815   17.184098   24.785527 H          1 MOL1         0.0833
       4    C2      19.096427   18.736725   23.893073 C.3        1 MOL1        -0.1684
       5    H3      18.286467   18.488062   24.592325 H          1 MOL1         0.0833
       6    H4      19.643147   19.550278   24.383353 H          1 MOL1         0.0833
       7    C3      18.435333   19.236025   22.583674 C.3        1 MOL1        -0.1684
       8    H5      17.745047   20.048122   22.850037 H          1 MOL1         0.0833
       9    H6      17.807818   18.436722   22.166673 H          1 MOL1         0.0833
      10    C4      19.383891   19.761151   21.474963 C.3        1 MOL1        -0.1760
      11    H7      19.800085   18.923846   20.905774 H          1 MOL1         0.0833
      12    H8      18.763583   20.302264   20.748081 H          1 MOL1         0.0833
      13    C5      20.524098   20.686935   21.972534 C.3        1 MOL1         0.1219
      14    H9      20.269913   21.091341   22.961473 H          1 MOL1         0.0790
      15    C6      21.909987   19.999107   22.047426 C.3        1 MOL1        -0.1760
      16    H10     22.151429   19.565573   21.068143 H          1 MOL1         0.0833
      17    H11     22.660997   20.781877   22.217832 H          1 MOL1         0.0833
      18    C7      22.099799   18.921846   23.150028 C.3        1 MOL1        -0.1684
      19    H12     21.903259   19.343468   24.144199 H          1 MOL1         0.0833
      20    H13     23.165553   18.655349   23.157249 H          1 MOL1         0.0833
      21    C8      21.294222   17.615258   22.929301 C.3        1 MOL1        -0.1684
      22    H14     21.939417   16.767394   23.197410 H          1 MOL1         0.0833
      23    H15     21.082421   17.469329   21.864102 H          1 MOL1         0.0833
      24    O1      20.640803   21.776450   21.065064 O.3        1 MOL1        -0.5508
      25    H16     19.780388   22.245540   21.077546 H          1 MOL1         0.3780
@<TRIPOS>BOND
    1     1     2    1
    2     1     3    1
    3     1     4    1
    4     4     5    1
    5     4     6    1
    6     4     7    1
    7     7     8    1
    8     7     9    1
    9     7    10    1
   10    10    11    1
   11    10    12    1
   12    10    13    1
   13    13    14    1
   14    13    15    1
   15    15    16    1
   16    15    17    1
   17    15    18    1
   18    18    19    1
   19    18    20    1
   20     1    21    1
   21    18    21    1
   22    21    22    1
   23    21    23    1
   24    13    24    1
   25    24    25    1
@<TRIPOS>SUBSTRUCTURE
       1 MOL1            1 RESIDUE      1      MOL     
@<SCITEGIC>MOL_PROPERTY
VConf Rank
SciTegic.value.IntegerValue
675

@<SCITEGIC>MOL_PROPERTY
Conf_Id
SciTegic.value.IntegerValue
129

@<SCITEGIC>MOL_PROPERTY
Delta U+W
SciTegic.value.DoubleValue
-1.846

@<SCITEGIC>MOL_PROPERTY
U+W
SciTegic.value.DoubleValue
9.067

@<SCITEGIC>MOL_PROPERTY
Grad RMS
SciTegic.value.DoubleValue
0.000000

@<SCITEGIC>MOL_PROPERTY
U
SciTegic.value.DoubleValue
11.150

@<SCITEGIC>MOL_PROPERTY
W
SciTegic.value.DoubleValue
-2.083

@<SCITEGIC>MOL_PROPERTY
W(PB)
SciTegic.value.DoubleValue
-4.217

@<SCITEGIC>MOL_PROPERTY
W(SA)
SciTegic.value.DoubleValue
2.134

@<SCITEGIC>MOL_PROPERTY
Valence
SciTegic.value.DoubleValue
16.583

@<SCITEGIC>MOL_PROPERTY
Coulomb
SciTegic.value.DoubleValue
-8.361

@<SCITEGIC>MOL_PROPERTY
VdW
SciTegic.value.DoubleValue
2.928

@<SCITEGIC>MOL_PROPERTY
VdW6
SciTegic.value.DoubleValue
-12.539

@<SCITEGIC>MOL_PROPERTY
VdW12
SciTegic.value.DoubleValue
15.467

@<SCITEGIC>MOL_PROPERTY
Bond
SciTegic.value.DoubleValue
0.441

@<SCITEGIC>MOL_PROPERTY
Angle
SciTegic.value.DoubleValue
5.093

@<SCITEGIC>MOL_PROPERTY
Pdih
SciTegic.value.DoubleValue
11.049

@<SCITEGIC>MOL_PROPERTY
Idih
SciTegic.value.DoubleValue
0.000

@<SCITEGIC>MOL_PROPERTY
Tether
SciTegic.value.DoubleValue
0.000

@<TRIPOS>MOLECULE
guest-s17_confgen4.mol2 : confsearch ligand conformer 676
          25          25           1
SMALL
USER_CHARGES
 
@<TRIPOS>ATOM
       1    C1      20.657244   20.157999   20.855502 C.3        1 MOL1        -0.1684
       2    H1      20.174668   19.826181   19.926242 H          1 MOL1         0.0833
       3    H2      21.293442   21.007494   20.571727 H          1 MOL1         0.0833
       4    C2      21.589956   19.035964   21.376369 C.3        1 MOL1        -0.1684
       5    H3      22.348530   18.857442   20.602095 H          1 MOL1         0.0833
       6    H4      22.159860   19.386141   22.244576 H          1 MOL1         0.0833
       7    C3      20.915995   17.674725   21.681445 C.3        1 MOL1        -0.1684
       8    H5      21.712939   16.958775   21.925060 H          1 MOL1         0.0833
       9    H6      20.441021   17.292003   20.767979 H          1 MOL1         0.0833
      10    C4      19.882167   17.645021   22.837122 C.3        1 MOL1        -0.1760
      11    H7      18.909358   18.000905   22.482822 H          1 MOL1         0.0833
      12    H8      19.715626   16.589074   23.089818 H          1 MOL1         0.0833
      13    C5      20.303709   18.415936   24.114842 C.3        1 MOL1         0.1219
      14    H9      21.393435   18.551227   24.122839 H          1 MOL1         0.0790
      15    C6      19.616677   19.794624   24.282488 C.3        1 MOL1        -0.1760
      16    H10     18.526955   19.667041   24.244500 H          1 MOL1         0.0833
      17    H11     19.839167   20.157084   25.295087 H          1 MOL1         0.0833
      18    C7      20.034022   20.911504   23.287791 C.3        1 MOL1        -0.1684
      19    H12     21.115794   21.091239   23.335323 H          1 MOL1         0.0833
      20    H13     19.573036   21.844075   23.641018 H          1 MOL1         0.0833
      21    C8      19.569184   20.686589   21.825640 C.3        1 MOL1        -0.1684
      22    H14     19.221322   21.649074   21.426060 H          1 MOL1         0.0833
      23    H15     18.682032   20.043934   21.798144 H          1 MOL1         0.0833
      24    O1      19.951357   17.628530   25.245330 O.3        1 MOL1        -0.5508
      25    H16     18.977875   17.525831   25.218345 H          1 MOL1         0.3780
@<TRIPOS>BOND
    1     1     2    1
    2     1     3    1
    3     1     4    1
    4     4     5    1
    5     4     6    1
    6     4     7    1
    7     7     8    1
    8     7     9    1
    9     7    10    1
   10    10    11    1
   11    10    12    1
   12    10    13    1
   13    13    14    1
   14    13    15    1
   15    15    16    1
   16    15    17    1
   17    15    18    1
   18    18    19    1
   19    18    20    1
   20     1    21    1
   21    18    21    1
   22    21    22    1
   23    21    23    1
   24    13    24    1
   25    24    25    1
@<TRIPOS>SUBSTRUCTURE
       1 MOL1            1 RESIDUE      1      MOL     
@<SCITEGIC>MOL_PROPERTY
VConf Rank
SciTegic.value.IntegerValue
676

@<SCITEGIC>MOL_PROPERTY
Conf_Id
SciTegic.value.IntegerValue
140

@<SCITEGIC>MOL_PROPERTY
Delta U+W
SciTegic.value.DoubleValue
-1.702

@<SCITEGIC>MOL_PROPERTY
U+W
SciTegic.value.DoubleValue
9.211

@<SCITEGIC>MOL_PROPERTY
Grad RMS
SciTegic.value.DoubleValue
0.000000

@<SCITEGIC>MOL_PROPERTY
U
SciTegic.value.DoubleValue
11.181

@<SCITEGIC>MOL_PROPERTY
W
SciTegic.value.DoubleValue
-1.969

@<SCITEGIC>MOL_PROPERTY
W(PB)
SciTegic.value.DoubleValue
-4.093

@<SCITEGIC>MOL_PROPERTY
W(SA)
SciTegic.value.DoubleValue
2.124

@<SCITEGIC>MOL_PROPERTY
Valence
SciTegic.value.DoubleValue
16.954

@<SCITEGIC>MOL_PROPERTY
Coulomb
SciTegic.value.DoubleValue
-8.661

@<SCITEGIC>MOL_PROPERTY
VdW
SciTegic.value.DoubleValue
2.887

@<SCITEGIC>MOL_PROPERTY
VdW6
SciTegic.value.DoubleValue
-12.561

@<SCITEGIC>MOL_PROPERTY
VdW12
SciTegic.value.DoubleValue
15.448

@<SCITEGIC>MOL_PROPERTY
Bond
SciTegic.value.DoubleValue
0.433

@<SCITEGIC>MOL_PROPERTY
Angle
SciTegic.value.DoubleValue
5.120

@<SCITEGIC>MOL_PROPERTY
Pdih
SciTegic.value.DoubleValue
11.401

@<SCITEGIC>MOL_PROPERTY
Idih
SciTegic.value.DoubleValue
0.000

@<SCITEGIC>MOL_PROPERTY
Tether
SciTegic.value.DoubleValue
0.000

@<TRIPOS>MOLECULE
guest-s17_confgen4.mol2 : confsearch ligand conformer 677
          25          25           1
SMALL
USER_CHARGES
 
@<TRIPOS>ATOM
       1    C1      21.838605   18.147045   23.521314 C.3        1 MOL1        -0.1684
       2    H1      21.691840   17.133365   23.918076 H          1 MOL1         0.0833
       3    H2      22.891774   18.391609   23.716105 H          1 MOL1         0.0833
       4    C2      20.965836   19.136611   24.335857 C.3        1 MOL1        -0.1684
       5    H3      19.981332   18.702545   24.543563 H          1 MOL1         0.0833
       6    H4      21.432924   19.239264   25.324969 H          1 MOL1         0.0833
       7    C3      20.818419   20.553437   23.723140 C.3        1 MOL1        -0.1684
       8    H5      21.668947   20.792804   23.071910 H          1 MOL1         0.0833
       9    H6      20.876399   21.277308   24.547527 H          1 MOL1         0.0833
      10    C4      19.473802   20.808659   22.989736 C.3        1 MOL1        -0.1760
      11    H7      18.643394   20.602764   23.677664 H          1 MOL1         0.0833
      12    H8      19.418917   21.883244   22.769532 H          1 MOL1         0.0833
      13    C5      19.245192   20.044048   21.661580 C.3        1 MOL1         0.1219
      14    H9      20.092439   20.227958   20.987619 H          1 MOL1         0.0790
      15    C6      19.035760   18.517200   21.833173 C.3        1 MOL1        -0.1760
      16    H10     18.694804   18.292756   22.849004 H          1 MOL1         0.0833
      17    H11     18.211161   18.189852   21.185488 H          1 MOL1         0.0833
      18    C7      20.265016   17.641722   21.475767 C.3        1 MOL1        -0.1684
      19    H12     20.321753   17.573226   20.380714 H          1 MOL1         0.0833
      20    H13     20.088054   16.616953   21.829362 H          1 MOL1         0.0833
      21    C8      21.645452   18.127623   21.984263 C.3        1 MOL1        -0.1684
      22    H14     21.889979   19.106725   21.556749 H          1 MOL1         0.0833
      23    H15     22.402733   17.448475   21.569429 H          1 MOL1         0.0833
      24    O1      18.078256   20.587376   21.057252 O.3        1 MOL1        -0.5508
      25    H16     17.339952   20.415045   21.677053 H          1 MOL1         0.3780
@<TRIPOS>BOND
    1     1     2    1
    2     1     3    1
    3     1     4    1
    4     4     5    1
    5     4     6    1
    6     4     7    1
    7     7     8    1
    8     7     9    1
    9     7    10    1
   10    10    11    1
   11    10    12    1
   12    10    13    1
   13    13    14    1
   14    13    15    1
   15    15    16    1
   16    15    17    1
   17    15    18    1
   18    18    19    1
   19    18    20    1
   20     1    21    1
   21    18    21    1
   22    21    22    1
   23    21    23    1
   24    13    24    1
   25    24    25    1
@<TRIPOS>SUBSTRUCTURE
       1 MOL1            1 RESIDUE      1      MOL     
@<SCITEGIC>MOL_PROPERTY
VConf Rank
SciTegic.value.IntegerValue
677

@<SCITEGIC>MOL_PROPERTY
Conf_Id
SciTegic.value.IntegerValue
68

@<SCITEGIC>MOL_PROPERTY
Delta U+W
SciTegic.value.DoubleValue
-1.765

@<SCITEGIC>MOL_PROPERTY
U+W
SciTegic.value.DoubleValue
9.148

@<SCITEGIC>MOL_PROPERTY
Grad RMS
SciTegic.value.DoubleValue
0.000000

@<SCITEGIC>MOL_PROPERTY
U
SciTegic.value.DoubleValue
11.181

@<SCITEGIC>MOL_PROPERTY
W
SciTegic.value.DoubleValue
-2.032

@<SCITEGIC>MOL_PROPERTY
W(PB)
SciTegic.value.DoubleValue
-4.147

@<SCITEGIC>MOL_PROPERTY
W(SA)
SciTegic.value.DoubleValue
2.114

@<SCITEGIC>MOL_PROPERTY
Valence
SciTegic.value.DoubleValue
16.955

@<SCITEGIC>MOL_PROPERTY
Coulomb
SciTegic.value.DoubleValue
-8.661

@<SCITEGIC>MOL_PROPERTY
VdW
SciTegic.value.DoubleValue
2.887

@<SCITEGIC>MOL_PROPERTY
VdW6
SciTegic.value.DoubleValue
-12.561

@<SCITEGIC>MOL_PROPERTY
VdW12
SciTegic.value.DoubleValue
15.448

@<SCITEGIC>MOL_PROPERTY
Bond
SciTegic.value.DoubleValue
0.433

@<SCITEGIC>MOL_PROPERTY
Angle
SciTegic.value.DoubleValue
5.121

@<SCITEGIC>MOL_PROPERTY
Pdih
SciTegic.value.DoubleValue
11.402

@<SCITEGIC>MOL_PROPERTY
Idih
SciTegic.value.DoubleValue
0.000

@<SCITEGIC>MOL_PROPERTY
Tether
SciTegic.value.DoubleValue
0.000

@<TRIPOS>MOLECULE
guest-s17_confgen4.mol2 : confsearch ligand conformer 678
          25          25           1
SMALL
USER_CHARGES
 
@<TRIPOS>ATOM
       1    C1      20.370095   17.369764   23.047191 C.3        1 MOL1        -0.1684
       2    H1      20.543065   16.296372   23.205265 H          1 MOL1         0.0833
       3    H2      19.341155   17.531709   23.387701 H          1 MOL1         0.0833
       4    C2      20.493824   17.658322   21.528399 C.3        1 MOL1        -0.1684
       5    H3      21.506099   17.995306   21.270805 H          1 MOL1         0.0833
       6    H4      20.367555   16.703548   20.999737 H          1 MOL1         0.0833
       7    C3      19.428302   18.633211   20.961959 C.3        1 MOL1        -0.1684
       8    H5      18.424732   18.249366   21.191276 H          1 MOL1         0.0833
       9    H6      19.507426   18.613953   19.866422 H          1 MOL1         0.0833
      10    C4      19.527065   20.113844   21.416412 C.3        1 MOL1        -0.1760
      11    H7      20.513354   20.524092   21.168444 H          1 MOL1         0.0833
      12    H8      18.815785   20.681354   20.801087 H          1 MOL1         0.0833
      13    C5      19.187638   20.351659   22.910775 C.3        1 MOL1         0.1219
      14    H9      18.609482   19.499283   23.285921 H          1 MOL1         0.0790
      15    C6      20.415612   20.575218   23.827369 C.3        1 MOL1        -0.1760
      16    H10     20.778231   21.601072   23.680038 H          1 MOL1         0.0833
      17    H11     20.082478   20.521448   24.871981 H          1 MOL1         0.0833
      18    C7      21.625450   19.624831   23.634710 C.3        1 MOL1        -0.1684
      19    H12     22.423745   19.971860   24.304798 H          1 MOL1         0.0833
      20    H13     22.042948   19.734973   22.627301 H          1 MOL1         0.0833
      21    C8      21.374037   18.129556   23.952650 C.3        1 MOL1        -0.1684
      22    H14     21.056746   18.028903   24.999446 H          1 MOL1         0.0833
      23    H15     22.341521   17.613327   23.885718 H          1 MOL1         0.0833
      24    O1      18.364349   21.507106   23.009887 O.3        1 MOL1        -0.5508
      25    H16     18.889904   22.253056   22.654586 H          1 MOL1         0.3780
@<TRIPOS>BOND
    1     1     2    1
    2     1     3    1
    3     1     4    1
    4     4     5    1
    5     4     6    1
    6     4     7    1
    7     7     8    1
    8     7     9    1
    9     7    10    1
   10    10    11    1
   11    10    12    1
   12    10    13    1
   13    13    14    1
   14    13    15    1
   15    15    16    1
   16    15    17    1
   17    15    18    1
   18    18    19    1
   19    18    20    1
   20     1    21    1
   21    18    21    1
   22    21    22    1
   23    21    23    1
   24    13    24    1
   25    24    25    1
@<TRIPOS>SUBSTRUCTURE
       1 MOL1            1 RESIDUE      1      MOL     
@<SCITEGIC>MOL_PROPERTY
VConf Rank
SciTegic.value.IntegerValue
678

@<SCITEGIC>MOL_PROPERTY
Conf_Id
SciTegic.value.IntegerValue
165

@<SCITEGIC>MOL_PROPERTY
Delta U+W
SciTegic.value.DoubleValue
-1.999

@<SCITEGIC>MOL_PROPERTY
U+W
SciTegic.value.DoubleValue
8.915

@<SCITEGIC>MOL_PROPERTY
Grad RMS
SciTegic.value.DoubleValue
0.000000

@<SCITEGIC>MOL_PROPERTY
U
SciTegic.value.DoubleValue
10.935

@<SCITEGIC>MOL_PROPERTY
W
SciTegic.value.DoubleValue
-2.020

@<SCITEGIC>MOL_PROPERTY
W(PB)
SciTegic.value.DoubleValue
-4.135

@<SCITEGIC>MOL_PROPERTY
W(SA)
SciTegic.value.DoubleValue
2.115

@<SCITEGIC>MOL_PROPERTY
Valence
SciTegic.value.DoubleValue
16.757

@<SCITEGIC>MOL_PROPERTY
Coulomb
SciTegic.value.DoubleValue
-8.731

@<SCITEGIC>MOL_PROPERTY
VdW
SciTegic.value.DoubleValue
2.908

@<SCITEGIC>MOL_PROPERTY
VdW6
SciTegic.value.DoubleValue
-12.597

@<SCITEGIC>MOL_PROPERTY
VdW12
SciTegic.value.DoubleValue
15.506

@<SCITEGIC>MOL_PROPERTY
Bond
SciTegic.value.DoubleValue
0.434

@<SCITEGIC>MOL_PROPERTY
Angle
SciTegic.value.DoubleValue
5.069

@<SCITEGIC>MOL_PROPERTY
Pdih
SciTegic.value.DoubleValue
11.254

@<SCITEGIC>MOL_PROPERTY
Idih
SciTegic.value.DoubleValue
0.000

@<SCITEGIC>MOL_PROPERTY
Tether
SciTegic.value.DoubleValue
0.000

@<TRIPOS>MOLECULE
guest-s17_confgen4.mol2 : confsearch ligand conformer 679
          25          25           1
SMALL
USER_CHARGES
 
@<TRIPOS>ATOM
       1    C1      20.104904   20.856076   21.946628 C.3        1 MOL1        -0.1684
       2    H1      19.905876   21.867414   21.566276 H          1 MOL1         0.0833
       3    H2      21.120345   20.631612   21.601234 H          1 MOL1         0.0833
       4    C2      19.074950   19.908893   21.277680 C.3        1 MOL1        -0.1684
       5    H3      18.102980   20.421017   21.274647 H          1 MOL1         0.0833
       6    H4      19.343973   19.778810   20.220669 H          1 MOL1         0.0833
       7    C3      18.861980   18.518754   21.927677 C.3        1 MOL1        -0.1684
       8    H5      18.039448   18.028283   21.389551 H          1 MOL1         0.0833
       9    H6      18.492916   18.630532   22.953635 H          1 MOL1         0.0833
      10    C4      20.076680   17.555862   21.890617 C.3        1 MOL1        -0.1760
      11    H7      19.740512   16.587339   22.284914 H          1 MOL1         0.0833
      12    H8      20.355093   17.376531   20.844174 H          1 MOL1         0.0833
      13    C5      21.342071   17.983838   22.673805 C.3        1 MOL1         0.1219
      14    H9      21.887304   18.738869   22.095438 H          1 MOL1         0.0790
      15    C6      21.065447   18.540718   24.094209 C.3        1 MOL1        -0.1760
      16    H10     20.099322   18.185282   24.471549 H          1 MOL1         0.0833
      17    H11     21.812293   18.122129   24.782349 H          1 MOL1         0.0833
      18    C7      21.159690   20.085539   24.210986 C.3        1 MOL1        -0.1684
      19    H12     22.145841   20.416546   23.857536 H          1 MOL1         0.0833
      20    H13     21.128323   20.342294   25.278632 H          1 MOL1         0.0833
      21    C8      20.054522   20.906640   23.495957 C.3        1 MOL1        -0.1684
      22    H14     20.189244   21.954735   23.796553 H          1 MOL1         0.0833
      23    H15     19.060362   20.628534   23.868665 H          1 MOL1         0.0833
      24    O1      22.177435   16.837721   22.792536 O.3        1 MOL1        -0.5508
      25    H16     22.372029   16.534621   21.881108 H          1 MOL1         0.3780
@<TRIPOS>BOND
    1     1     2    1
    2     1     3    1
    3     1     4    1
    4     4     5    1
    5     4     6    1
    6     4     7    1
    7     7     8    1
    8     7     9    1
    9     7    10    1
   10    10    11    1
   11    10    12    1
   12    10    13    1
   13    13    14    1
   14    13    15    1
   15    15    16    1
   16    15    17    1
   17    15    18    1
   18    18    19    1
   19    18    20    1
   20     1    21    1
   21    18    21    1
   22    21    22    1
   23    21    23    1
   24    13    24    1
   25    24    25    1
@<TRIPOS>SUBSTRUCTURE
       1 MOL1            1 RESIDUE      1      MOL     
@<SCITEGIC>MOL_PROPERTY
VConf Rank
SciTegic.value.IntegerValue
679

@<SCITEGIC>MOL_PROPERTY
Conf_Id
SciTegic.value.IntegerValue
133

@<SCITEGIC>MOL_PROPERTY
Delta U+W
SciTegic.value.DoubleValue
-2.139

@<SCITEGIC>MOL_PROPERTY
U+W
SciTegic.value.DoubleValue
8.774

@<SCITEGIC>MOL_PROPERTY
Grad RMS
SciTegic.value.DoubleValue
0.000000

@<SCITEGIC>MOL_PROPERTY
U
SciTegic.value.DoubleValue
10.905

@<SCITEGIC>MOL_PROPERTY
W
SciTegic.value.DoubleValue
-2.131

@<SCITEGIC>MOL_PROPERTY
W(PB)
SciTegic.value.DoubleValue
-4.281

@<SCITEGIC>MOL_PROPERTY
W(SA)
SciTegic.value.DoubleValue
2.150

@<SCITEGIC>MOL_PROPERTY
Valence
SciTegic.value.DoubleValue
16.378

@<SCITEGIC>MOL_PROPERTY
Coulomb
SciTegic.value.DoubleValue
-8.448

@<SCITEGIC>MOL_PROPERTY
VdW
SciTegic.value.DoubleValue
2.976

@<SCITEGIC>MOL_PROPERTY
VdW6
SciTegic.value.DoubleValue
-12.570

@<SCITEGIC>MOL_PROPERTY
VdW12
SciTegic.value.DoubleValue
15.545

@<SCITEGIC>MOL_PROPERTY
Bond
SciTegic.value.DoubleValue
0.439

@<SCITEGIC>MOL_PROPERTY
Angle
SciTegic.value.DoubleValue
5.049

@<SCITEGIC>MOL_PROPERTY
Pdih
SciTegic.value.DoubleValue
10.889

@<SCITEGIC>MOL_PROPERTY
Idih
SciTegic.value.DoubleValue
0.000

@<SCITEGIC>MOL_PROPERTY
Tether
SciTegic.value.DoubleValue
0.000

@<TRIPOS>MOLECULE
guest-s17_confgen4.mol2 : confsearch ligand conformer 680
          25          25           1
SMALL
USER_CHARGES
 
@<TRIPOS>ATOM
       1    C1      20.324648   21.044185   22.352047 C.3        1 MOL1        -0.1684
       2    H1      20.414140   22.112311   22.110833 H          1 MOL1         0.0833
       3    H2      19.609037   21.012670   23.181330 H          1 MOL1         0.0833
       4    C2      21.716113   20.537227   22.812853 C.3        1 MOL1        -0.1684
       5    H3      22.271168   20.091341   21.977564 H          1 MOL1         0.0833
       6    H4      22.305288   21.415363   23.110780 H          1 MOL1         0.0833
       7    C3      21.689076   19.576489   24.030689 C.3        1 MOL1        -0.1684
       8    H5      21.172211   20.064452   24.868382 H          1 MOL1         0.0833
       9    H6      22.725212   19.434360   24.366838 H          1 MOL1         0.0833
      10    C4      21.072155   18.171697   23.796256 C.3        1 MOL1        -0.1760
      11    H7      21.594744   17.653516   22.983539 H          1 MOL1         0.0833
      12    H8      21.281509   17.576678   24.695508 H          1 MOL1         0.0833
      13    C5      19.540419   18.172641   23.555496 C.3        1 MOL1         0.1219
      14    H9      19.121260   19.112412   23.933644 H          1 MOL1         0.0790
      15    C6      19.119311   17.983573   22.077434 C.3        1 MOL1        -0.1760
      16    H10     19.233187   16.921468   21.821540 H          1 MOL1         0.0833
      17    H11     18.047866   18.203684   21.986481 H          1 MOL1         0.0833
      18    C7      19.891162   18.803046   21.011255 C.3        1 MOL1        -0.1684
      19    H12     19.517023   18.492471   20.026237 H          1 MOL1         0.0833
      20    H13     20.950606   18.522271   21.005339 H          1 MOL1         0.0833
      21    C8      19.742738   20.342834   21.097078 C.3        1 MOL1        -0.1684
      22    H14     18.682509   20.612162   20.997355 H          1 MOL1         0.0833
      23    H15     20.240415   20.769149   20.215273 H          1 MOL1         0.0833
      24    O1      18.964958   17.106347   24.302071 O.3        1 MOL1        -0.5508
      25    H16     17.995616   17.158569   24.167582 H          1 MOL1         0.3780
@<TRIPOS>BOND
    1     1     2    1
    2     1     3    1
    3     1     4    1
    4     4     5    1
    5     4     6    1
    6     4     7    1
    7     7     8    1
    8     7     9    1
    9     7    10    1
   10    10    11    1
   11    10    12    1
   12    10    13    1
   13    13    14    1
   14    13    15    1
   15    15    16    1
   16    15    17    1
   17    15    18    1
   18    18    19    1
   19    18    20    1
   20     1    21    1
   21    18    21    1
   22    21    22    1
   23    21    23    1
   24    13    24    1
   25    24    25    1
@<TRIPOS>SUBSTRUCTURE
       1 MOL1            1 RESIDUE      1      MOL     
@<SCITEGIC>MOL_PROPERTY
VConf Rank
SciTegic.value.IntegerValue
680

@<SCITEGIC>MOL_PROPERTY
Conf_Id
SciTegic.value.IntegerValue
95

@<SCITEGIC>MOL_PROPERTY
Delta U+W
SciTegic.value.DoubleValue
-2.190

@<SCITEGIC>MOL_PROPERTY
U+W
SciTegic.value.DoubleValue
8.723

@<SCITEGIC>MOL_PROPERTY
Grad RMS
SciTegic.value.DoubleValue
0.000000

@<SCITEGIC>MOL_PROPERTY
U
SciTegic.value.DoubleValue
10.905

@<SCITEGIC>MOL_PROPERTY
W
SciTegic.value.DoubleValue
-2.182

@<SCITEGIC>MOL_PROPERTY
W(PB)
SciTegic.value.DoubleValue
-4.296

@<SCITEGIC>MOL_PROPERTY
W(SA)
SciTegic.value.DoubleValue
2.114

@<SCITEGIC>MOL_PROPERTY
Valence
SciTegic.value.DoubleValue
16.377

@<SCITEGIC>MOL_PROPERTY
Coulomb
SciTegic.value.DoubleValue
-8.448

@<SCITEGIC>MOL_PROPERTY
VdW
SciTegic.value.DoubleValue
2.976

@<SCITEGIC>MOL_PROPERTY
VdW6
SciTegic.value.DoubleValue
-12.570

@<SCITEGIC>MOL_PROPERTY
VdW12
SciTegic.value.DoubleValue
15.546

@<SCITEGIC>MOL_PROPERTY
Bond
SciTegic.value.DoubleValue
0.439

@<SCITEGIC>MOL_PROPERTY
Angle
SciTegic.value.DoubleValue
5.049

@<SCITEGIC>MOL_PROPERTY
Pdih
SciTegic.value.DoubleValue
10.889

@<SCITEGIC>MOL_PROPERTY
Idih
SciTegic.value.DoubleValue
0.000

@<SCITEGIC>MOL_PROPERTY
Tether
SciTegic.value.DoubleValue
0.000

@<TRIPOS>MOLECULE
guest-s17_confgen4.mol2 : confsearch ligand conformer 681
          25          25           1
SMALL
USER_CHARGES
 
@<TRIPOS>ATOM
       1    C1      20.318310   19.162869   20.834438 C.3        1 MOL1        -0.1684
       2    H1      20.399448   19.055963   19.744076 H          1 MOL1         0.0833
       3    H2      20.041759   20.213718   20.966618 H          1 MOL1         0.0833
       4    C2      21.730436   18.879567   21.425928 C.3        1 MOL1        -0.1684
       5    H3      22.196548   18.103172   20.803922 H          1 MOL1         0.0833
       6    H4      22.356874   19.772431   21.296155 H          1 MOL1         0.0833
       7    C3      21.825803   18.396122   22.896873 C.3        1 MOL1        -0.1684
       8    H5      22.874973   18.137124   23.094305 H          1 MOL1         0.0833
       9    H6      21.302990   17.439805   22.997639 H          1 MOL1         0.0833
      10    C4      21.381455   19.391417   24.009736 C.3        1 MOL1        -0.1760
      11    H7      21.152964   18.824728   24.921892 H          1 MOL1         0.0833
      12    H8      22.254967   20.009470   24.255198 H          1 MOL1         0.0833
      13    C5      20.207305   20.355972   23.705274 C.3        1 MOL1         0.1219
      14    H9      20.472218   20.944225   22.820630 H          1 MOL1         0.0790
      15    C6      18.803664   19.716002   23.503227 C.3        1 MOL1        -0.1760
      16    H10     18.339661   19.600103   24.491955 H          1 MOL1         0.0833
      17    H11     18.172485   20.433366   22.963514 H          1 MOL1         0.0833
      18    C7      18.713382   18.335335   22.798512 C.3        1 MOL1        -0.1684
      19    H12     17.666550   18.005961   22.847174 H          1 MOL1         0.0833
      20    H13     19.244421   17.588461   23.397050 H          1 MOL1         0.0833
      21    C8      19.148024   18.259653   21.305573 C.3        1 MOL1        -0.1684
      22    H14     18.273843   18.524121   20.695055 H          1 MOL1         0.0833
      23    H15     19.374556   17.214687   21.054231 H          1 MOL1         0.0833
      24    O1      20.105929   21.260613   24.798875 O.3        1 MOL1        -0.5508
      25    H16     20.974516   21.707061   24.878229 H          1 MOL1         0.3780
@<TRIPOS>BOND
    1     1     2    1
    2     1     3    1
    3     1     4    1
    4     4     5    1
    5     4     6    1
    6     4     7    1
    7     7     8    1
    8     7     9    1
    9     7    10    1
   10    10    11    1
   11    10    12    1
   12    10    13    1
   13    13    14    1
   14    13    15    1
   15    15    16    1
   16    15    17    1
   17    15    18    1
   18    18    19    1
   19    18    20    1
   20     1    21    1
   21    18    21    1
   22    21    22    1
   23    21    23    1
   24    13    24    1
   25    24    25    1
@<TRIPOS>SUBSTRUCTURE
       1 MOL1            1 RESIDUE      1      MOL     
@<SCITEGIC>MOL_PROPERTY
VConf Rank
SciTegic.value.IntegerValue
681

@<SCITEGIC>MOL_PROPERTY
Conf_Id
SciTegic.value.IntegerValue
161

@<SCITEGIC>MOL_PROPERTY
Delta U+W
SciTegic.value.DoubleValue
2.120

@<SCITEGIC>MOL_PROPERTY
U+W
SciTegic.value.DoubleValue
13.033

@<SCITEGIC>MOL_PROPERTY
Grad RMS
SciTegic.value.DoubleValue
0.000000

@<SCITEGIC>MOL_PROPERTY
U
SciTegic.value.DoubleValue
15.076

@<SCITEGIC>MOL_PROPERTY
W
SciTegic.value.DoubleValue
-2.043

@<SCITEGIC>MOL_PROPERTY
W(PB)
SciTegic.value.DoubleValue
-4.186

@<SCITEGIC>MOL_PROPERTY
W(SA)
SciTegic.value.DoubleValue
2.143

@<SCITEGIC>MOL_PROPERTY
Valence
SciTegic.value.DoubleValue
18.884

@<SCITEGIC>MOL_PROPERTY
Coulomb
SciTegic.value.DoubleValue
-8.074

@<SCITEGIC>MOL_PROPERTY
VdW
SciTegic.value.DoubleValue
4.266

@<SCITEGIC>MOL_PROPERTY
VdW6
SciTegic.value.DoubleValue
-13.486

@<SCITEGIC>MOL_PROPERTY
VdW12
SciTegic.value.DoubleValue
17.752

@<SCITEGIC>MOL_PROPERTY
Bond
SciTegic.value.DoubleValue
0.713

@<SCITEGIC>MOL_PROPERTY
Angle
SciTegic.value.DoubleValue
8.955

@<SCITEGIC>MOL_PROPERTY
Pdih
SciTegic.value.DoubleValue
9.215

@<SCITEGIC>MOL_PROPERTY
Idih
SciTegic.value.DoubleValue
0.000

@<SCITEGIC>MOL_PROPERTY
Tether
SciTegic.value.DoubleValue
0.000

@<TRIPOS>MOLECULE
guest-s17_confgen4.mol2 : confsearch ligand conformer 682
          25          25           1
SMALL
USER_CHARGES
 
@<TRIPOS>ATOM
       1    C1      22.087123   19.775914   23.298969 C.3        1 MOL1        -0.1684
       2    H1      23.052154   20.272385   23.469906 H          1 MOL1         0.0833
       3    H2      22.129361   18.865187   23.909729 H          1 MOL1         0.0833
       4    C2      22.000605   19.402207   21.798125 C.3        1 MOL1        -0.1684
       5    H3      21.604776   20.240532   21.209298 H          1 MOL1         0.0833
       6    H4      23.031553   19.261097   21.445411 H          1 MOL1         0.0833
       7    C3      21.235041   18.085893   21.487379 C.3        1 MOL1        -0.1684
       8    H5      21.427643   17.324590   22.255238 H          1 MOL1         0.0833
       9    H6      21.665518   17.679674   20.561703 H          1 MOL1         0.0833
      10    C4      19.712638   18.247236   21.240941 C.3        1 MOL1        -0.1760
      11    H7      19.515385   19.205375   20.744928 H          1 MOL1         0.0833
      12    H8      19.410143   17.483868   20.511969 H          1 MOL1         0.0833
      13    C5      18.795428   18.063590   22.476590 C.3        1 MOL1         0.1219
      14    H9      18.811393   16.999718   22.753530 H          1 MOL1         0.0790
      15    C6      19.169169   18.876115   23.737941 C.3        1 MOL1        -0.1760
      16    H10     18.325057   18.830895   24.439021 H          1 MOL1         0.0833
      17    H11     19.985433   18.366139   24.260816 H          1 MOL1         0.0833
      18    C7      19.523176   20.364499   23.475979 C.3        1 MOL1        -0.1684
      19    H12     18.857475   20.997332   24.078551 H          1 MOL1         0.0833
      20    H13     19.314884   20.645612   22.437379 H          1 MOL1         0.0833
      21    C8      20.985199   20.734700   23.822566 C.3        1 MOL1        -0.1684
      22    H14     21.082330   20.803175   24.914668 H          1 MOL1         0.0833
      23    H15     21.183678   21.745604   23.441174 H          1 MOL1         0.0833
      24    O1      17.472903   18.417668   22.097221 O.3        1 MOL1        -0.5508
      25    H16     17.474876   19.391051   21.995574 H          1 MOL1         0.3780
@<TRIPOS>BOND
    1     1     2    1
    2     1     3    1
    3     1     4    1
    4     4     5    1
    5     4     6    1
    6     4     7    1
    7     7     8    1
    8     7     9    1
    9     7    10    1
   10    10    11    1
   11    10    12    1
   12    10    13    1
   13    13    14    1
   14    13    15    1
   15    15    16    1
   16    15    17    1
   17    15    18    1
   18    18    19    1
   19    18    20    1
   20     1    21    1
   21    18    21    1
   22    21    22    1
   23    21    23    1
   24    13    24    1
   25    24    25    1
@<TRIPOS>SUBSTRUCTURE
       1 MOL1            1 RESIDUE      1      MOL     
@<SCITEGIC>MOL_PROPERTY
VConf Rank
SciTegic.value.IntegerValue
682

@<SCITEGIC>MOL_PROPERTY
Conf_Id
SciTegic.value.IntegerValue
164

@<SCITEGIC>MOL_PROPERTY
Delta U+W
SciTegic.value.DoubleValue
0.008

@<SCITEGIC>MOL_PROPERTY
U+W
SciTegic.value.DoubleValue
10.922

@<SCITEGIC>MOL_PROPERTY
Grad RMS
SciTegic.value.DoubleValue
0.000000

@<SCITEGIC>MOL_PROPERTY
U
SciTegic.value.DoubleValue
12.433

@<SCITEGIC>MOL_PROPERTY
W
SciTegic.value.DoubleValue
-1.511

@<SCITEGIC>MOL_PROPERTY
W(PB)
SciTegic.value.DoubleValue
-3.669

@<SCITEGIC>MOL_PROPERTY
W(SA)
SciTegic.value.DoubleValue
2.157

@<SCITEGIC>MOL_PROPERTY
Valence
SciTegic.value.DoubleValue
19.007

@<SCITEGIC>MOL_PROPERTY
Coulomb
SciTegic.value.DoubleValue
-9.373

@<SCITEGIC>MOL_PROPERTY
VdW
SciTegic.value.DoubleValue
2.799

@<SCITEGIC>MOL_PROPERTY
VdW6
SciTegic.value.DoubleValue
-12.597

@<SCITEGIC>MOL_PROPERTY
VdW12
SciTegic.value.DoubleValue
15.396

@<SCITEGIC>MOL_PROPERTY
Bond
SciTegic.value.DoubleValue
0.425

@<SCITEGIC>MOL_PROPERTY
Angle
SciTegic.value.DoubleValue
4.784

@<SCITEGIC>MOL_PROPERTY
Pdih
SciTegic.value.DoubleValue
13.799

@<SCITEGIC>MOL_PROPERTY
Idih
SciTegic.value.DoubleValue
0.000

@<SCITEGIC>MOL_PROPERTY
Tether
SciTegic.value.DoubleValue
0.000

@<TRIPOS>MOLECULE
guest-s17_confgen4.mol2 : confsearch ligand conformer 683
          25          25           1
SMALL
USER_CHARGES
 
@<TRIPOS>ATOM
       1    C1      20.312372   20.886762   21.928698 C.3        1 MOL1        -0.1684
       2    H1      20.447813   20.214928   21.073587 H          1 MOL1         0.0833
       3    H2      20.313987   21.894419   21.491323 H          1 MOL1         0.0833
       4    C2      21.528803   20.798211   22.883776 C.3        1 MOL1        -0.1684
       5    H3      22.419039   21.090787   22.310381 H          1 MOL1         0.0833
       6    H4      21.424417   21.552678   23.675225 H          1 MOL1         0.0833
       7    C3      21.816720   19.421759   23.535884 C.3        1 MOL1        -0.1684
       8    H5      21.192709   19.279116   24.425449 H          1 MOL1         0.0833
       9    H6      22.844071   19.455650   23.923705 H          1 MOL1         0.0833
      10    C4      21.697465   18.200380   22.585732 C.3        1 MOL1        -0.1760
      11    H7      21.850530   18.498840   21.541571 H          1 MOL1         0.0833
      12    H8      22.530034   17.523157   22.819046 H          1 MOL1         0.0833
      13    C5      20.391531   17.380795   22.738342 C.3        1 MOL1         0.1219
      14    H9      20.278948   17.110092   23.797891 H          1 MOL1         0.0790
      15    C6      19.083452   18.069483   22.274536 C.3        1 MOL1        -0.1760
      16    H10     19.150537   18.363625   21.220136 H          1 MOL1         0.0833
      17    H11     18.290275   17.310848   22.314320 H          1 MOL1         0.0833
      18    C7      18.625277   19.261958   23.155933 C.3        1 MOL1        -0.1684
      19    H12     19.034505   19.171049   24.168520 H          1 MOL1         0.0833
      20    H13     17.537468   19.189949   23.291918 H          1 MOL1         0.0833
      21    C8      18.920901   20.667628   22.573298 C.3        1 MOL1        -0.1684
      22    H14     18.762190   21.419376   23.358277 H          1 MOL1         0.0833
      23    H15     18.165352   20.877798   21.803963 H          1 MOL1         0.0833
      24    O1      20.541329   16.187037   21.982232 O.3        1 MOL1        -0.5508
      25    H16     20.638915   16.462481   21.047676 H          1 MOL1         0.3780
@<TRIPOS>BOND
    1     1     2    1
    2     1     3    1
    3     1     4    1
    4     4     5    1
    5     4     6    1
    6     4     7    1
    7     7     8    1
    8     7     9    1
    9     7    10    1
   10    10    11    1
   11    10    12    1
   12    10    13    1
   13    13    14    1
   14    13    15    1
   15    15    16    1
   16    15    17    1
   17    15    18    1
   18    18    19    1
   19    18    20    1
   20     1    21    1
   21    18    21    1
   22    21    22    1
   23    21    23    1
   24    13    24    1
   25    24    25    1
@<TRIPOS>SUBSTRUCTURE
       1 MOL1            1 RESIDUE      1      MOL     
@<SCITEGIC>MOL_PROPERTY
VConf Rank
SciTegic.value.IntegerValue
683

@<SCITEGIC>MOL_PROPERTY
Conf_Id
SciTegic.value.IntegerValue
15

@<SCITEGIC>MOL_PROPERTY
Delta U+W
SciTegic.value.DoubleValue
-1.271

@<SCITEGIC>MOL_PROPERTY
U+W
SciTegic.value.DoubleValue
9.643

@<SCITEGIC>MOL_PROPERTY
Grad RMS
SciTegic.value.DoubleValue
0.000000

@<SCITEGIC>MOL_PROPERTY
U
SciTegic.value.DoubleValue
11.413

@<SCITEGIC>MOL_PROPERTY
W
SciTegic.value.DoubleValue
-1.770

@<SCITEGIC>MOL_PROPERTY
W(PB)
SciTegic.value.DoubleValue
-3.908

@<SCITEGIC>MOL_PROPERTY
W(SA)
SciTegic.value.DoubleValue
2.138

@<SCITEGIC>MOL_PROPERTY
Valence
SciTegic.value.DoubleValue
17.496

@<SCITEGIC>MOL_PROPERTY
Coulomb
SciTegic.value.DoubleValue
-8.736

@<SCITEGIC>MOL_PROPERTY
VdW
SciTegic.value.DoubleValue
2.653

@<SCITEGIC>MOL_PROPERTY
VdW6
SciTegic.value.DoubleValue
-12.485

@<SCITEGIC>MOL_PROPERTY
VdW12
SciTegic.value.DoubleValue
15.138

@<SCITEGIC>MOL_PROPERTY
Bond
SciTegic.value.DoubleValue
0.414

@<SCITEGIC>MOL_PROPERTY
Angle
SciTegic.value.DoubleValue
5.295

@<SCITEGIC>MOL_PROPERTY
Pdih
SciTegic.value.DoubleValue
11.787

@<SCITEGIC>MOL_PROPERTY
Idih
SciTegic.value.DoubleValue
0.000

@<SCITEGIC>MOL_PROPERTY
Tether
SciTegic.value.DoubleValue
0.000

@<TRIPOS>MOLECULE
guest-s17_confgen4.mol2 : confsearch ligand conformer 684
          25          25           1
SMALL
USER_CHARGES
 
@<TRIPOS>ATOM
       1    C1      18.434147   19.360157   22.464255 C.3        1 MOL1        -0.1684
       2    H1      17.369236   19.324157   22.196582 H          1 MOL1         0.0833
       3    H2      18.555862   20.310136   22.999876 H          1 MOL1         0.0833
       4    C2      18.704317   18.160428   23.410028 C.3        1 MOL1        -0.1684
       5    H3      18.158342   18.335448   24.347100 H          1 MOL1         0.0833
       6    H4      18.262001   17.255547   22.971484 H          1 MOL1         0.0833
       7    C3      20.185032   17.862118   23.747409 C.3        1 MOL1        -0.1684
       8    H5      20.651910   17.329954   22.910392 H          1 MOL1         0.0833
       9    H6      20.207264   17.147477   24.581423 H          1 MOL1         0.0833
      10    C4      21.010091   19.114631   24.142305 C.3        1 MOL1        -0.1760
      11    H7      20.359673   19.986938   24.270476 H          1 MOL1         0.0833
      12    H8      21.449445   18.942301   25.133499 H          1 MOL1         0.0833
      13    C5      22.165900   19.452839   23.172775 C.3        1 MOL1         0.1219
      14    H9      22.963665   18.714141   23.336259 H          1 MOL1         0.0790
      15    C6      21.829249   19.433065   21.659251 C.3        1 MOL1        -0.1760
      16    H10     22.695712   19.855336   21.132694 H          1 MOL1         0.0833
      17    H11     21.769955   18.398122   21.301634 H          1 MOL1         0.0833
      18    C7      20.566768   20.215799   21.209238 C.3        1 MOL1        -0.1684
      19    H12     20.761573   20.569733   20.187511 H          1 MOL1         0.0833
      20    H13     20.429322   21.125337   21.808121 H          1 MOL1         0.0833
      21    C8      19.256330   19.383181   21.151983 C.3        1 MOL1        -0.1684
      22    H14     19.448949   18.362948   20.793923 H          1 MOL1         0.0833
      23    H15     18.619407   19.844784   20.384892 H          1 MOL1         0.0833
      24    O1      22.662476   20.741294   23.506997 O.3        1 MOL1        -0.5508
      25    H16     21.958014   21.372676   23.257529 H          1 MOL1         0.3780
@<TRIPOS>BOND
    1     1     2    1
    2     1     3    1
    3     1     4    1
    4     4     5    1
    5     4     6    1
    6     4     7    1
    7     7     8    1
    8     7     9    1
    9     7    10    1
   10    10    11    1
   11    10    12    1
   12    10    13    1
   13    13    14    1
   14    13    15    1
   15    15    16    1
   16    15    17    1
   17    15    18    1
   18    18    19    1
   19    18    20    1
   20     1    21    1
   21    18    21    1
   22    21    22    1
   23    21    23    1
   24    13    24    1
   25    24    25    1
@<TRIPOS>SUBSTRUCTURE
       1 MOL1            1 RESIDUE      1      MOL     
@<SCITEGIC>MOL_PROPERTY
VConf Rank
SciTegic.value.IntegerValue
684

@<SCITEGIC>MOL_PROPERTY
Conf_Id
SciTegic.value.IntegerValue
115

@<SCITEGIC>MOL_PROPERTY
Delta U+W
SciTegic.value.DoubleValue
0.038

@<SCITEGIC>MOL_PROPERTY
U+W
SciTegic.value.DoubleValue
10.952

@<SCITEGIC>MOL_PROPERTY
Grad RMS
SciTegic.value.DoubleValue
0.000000

@<SCITEGIC>MOL_PROPERTY
U
SciTegic.value.DoubleValue
12.526

@<SCITEGIC>MOL_PROPERTY
W
SciTegic.value.DoubleValue
-1.575

@<SCITEGIC>MOL_PROPERTY
W(PB)
SciTegic.value.DoubleValue
-3.698

@<SCITEGIC>MOL_PROPERTY
W(SA)
SciTegic.value.DoubleValue
2.123

@<SCITEGIC>MOL_PROPERTY
Valence
SciTegic.value.DoubleValue
19.016

@<SCITEGIC>MOL_PROPERTY
Coulomb
SciTegic.value.DoubleValue
-9.226

@<SCITEGIC>MOL_PROPERTY
VdW
SciTegic.value.DoubleValue
2.737

@<SCITEGIC>MOL_PROPERTY
VdW6
SciTegic.value.DoubleValue
-12.612

@<SCITEGIC>MOL_PROPERTY
VdW12
SciTegic.value.DoubleValue
15.349

@<SCITEGIC>MOL_PROPERTY
Bond
SciTegic.value.DoubleValue
0.421

@<SCITEGIC>MOL_PROPERTY
Angle
SciTegic.value.DoubleValue
4.883

@<SCITEGIC>MOL_PROPERTY
Pdih
SciTegic.value.DoubleValue
13.711

@<SCITEGIC>MOL_PROPERTY
Idih
SciTegic.value.DoubleValue
0.000

@<SCITEGIC>MOL_PROPERTY
Tether
SciTegic.value.DoubleValue
0.000

@<TRIPOS>MOLECULE
guest-s17_confgen4.mol2 : confsearch ligand conformer 685
          25          25           1
SMALL
USER_CHARGES
 
@<TRIPOS>ATOM
       1    C1      19.567167   21.022824   23.589695 C.3        1 MOL1        -0.1684
       2    H1      19.526194   21.776450   24.388040 H          1 MOL1         0.0833
       3    H2      18.981650   21.441272   22.759906 H          1 MOL1         0.0833
       4    C2      18.885473   19.743565   24.128516 C.3        1 MOL1        -0.1684
       5    H3      19.401059   19.393972   25.033253 H          1 MOL1         0.0833
       6    H4      17.874228   20.022872   24.454660 H          1 MOL1         0.0833
       7    C3      18.754598   18.588901   23.108459 C.3        1 MOL1        -0.1684
       8    H5      18.459005   18.979914   22.125752 H          1 MOL1         0.0833
       9    H6      17.917464   17.956152   23.434034 H          1 MOL1         0.0833
      10    C4      20.010752   17.682682   23.004602 C.3        1 MOL1        -0.1760
      11    H7      20.701343   17.861309   23.838260 H          1 MOL1         0.0833
      12    H8      19.675010   16.643300   23.120889 H          1 MOL1         0.0833
      13    C5      20.766239   17.789439   21.660803 C.3        1 MOL1         0.1219
      14    H9      20.035476   17.934348   20.852313 H          1 MOL1         0.0790
      15    C6      21.814251   18.922710   21.599143 C.3        1 MOL1        -0.1760
      16    H10     22.587491   18.759619   22.361437 H          1 MOL1         0.0833
      17    H11     22.327799   18.846362   20.631749 H          1 MOL1         0.0833
      18    C7      21.247331   20.358680   21.714293 C.3        1 MOL1        -0.1684
      19    H12     20.324072   20.453819   21.127291 H          1 MOL1         0.0833
      20    H13     21.968260   21.034129   21.233400 H          1 MOL1         0.0833
      21    C8      21.046470   20.855829   23.169801 C.3        1 MOL1        -0.1684
      22    H14     21.521216   21.843630   23.247699 H          1 MOL1         0.0833
      23    H15     21.579653   20.220307   23.889284 H          1 MOL1         0.0833
      24    O1      21.451047   16.561893   21.442129 O.3        1 MOL1        -0.5508
      25    H16     21.878595   16.628780   20.562889 H          1 MOL1         0.3780
@<TRIPOS>BOND
    1     1     2    1
    2     1     3    1
    3     1     4    1
    4     4     5    1
    5     4     6    1
    6     4     7    1
    7     7     8    1
    8     7     9    1
    9     7    10    1
   10    10    11    1
   11    10    12    1
   12    10    13    1
   13    13    14    1
   14    13    15    1
   15    15    16    1
   16    15    17    1
   17    15    18    1
   18    18    19    1
   19    18    20    1
   20     1    21    1
   21    18    21    1
   22    21    22    1
   23    21    23    1
   24    13    24    1
   25    24    25    1
@<TRIPOS>SUBSTRUCTURE
       1 MOL1            1 RESIDUE      1      MOL     
@<SCITEGIC>MOL_PROPERTY
VConf Rank
SciTegic.value.IntegerValue
685

@<SCITEGIC>MOL_PROPERTY
Conf_Id
SciTegic.value.IntegerValue
30

@<SCITEGIC>MOL_PROPERTY
Delta U+W
SciTegic.value.DoubleValue
0.000

@<SCITEGIC>MOL_PROPERTY
U+W
SciTegic.value.DoubleValue
10.913

@<SCITEGIC>MOL_PROPERTY
Grad RMS
SciTegic.value.DoubleValue
0.000000

@<SCITEGIC>MOL_PROPERTY
U
SciTegic.value.DoubleValue
13.140

@<SCITEGIC>MOL_PROPERTY
W
SciTegic.value.DoubleValue
-2.227

@<SCITEGIC>MOL_PROPERTY
W(PB)
SciTegic.value.DoubleValue
-4.367

@<SCITEGIC>MOL_PROPERTY
W(SA)
SciTegic.value.DoubleValue
2.140

@<SCITEGIC>MOL_PROPERTY
Valence
SciTegic.value.DoubleValue
19.155

@<SCITEGIC>MOL_PROPERTY
Coulomb
SciTegic.value.DoubleValue
-8.157

@<SCITEGIC>MOL_PROPERTY
VdW
SciTegic.value.DoubleValue
2.142

@<SCITEGIC>MOL_PROPERTY
VdW6
SciTegic.value.DoubleValue
-11.576

@<SCITEGIC>MOL_PROPERTY
VdW12
SciTegic.value.DoubleValue
13.718

@<SCITEGIC>MOL_PROPERTY
Bond
SciTegic.value.DoubleValue
0.294

@<SCITEGIC>MOL_PROPERTY
Angle
SciTegic.value.DoubleValue
3.547

@<SCITEGIC>MOL_PROPERTY
Pdih
SciTegic.value.DoubleValue
15.314

@<SCITEGIC>MOL_PROPERTY
Idih
SciTegic.value.DoubleValue
0.000

@<SCITEGIC>MOL_PROPERTY
Tether
SciTegic.value.DoubleValue
0.000

@<TRIPOS>MOLECULE
guest-s17_confgen4.mol2 : confsearch ligand conformer 686
          25          25           1
SMALL
USER_CHARGES
 
@<TRIPOS>ATOM
       1    C1      21.213600   18.757951   20.783630 C.3        1 MOL1        -0.1684
       2    H1      20.986367   19.029449   19.743673 H          1 MOL1         0.0833
       3    H2      22.057307   18.056517   20.729585 H          1 MOL1         0.0833
       4    C2      19.994713   18.005754   21.372357 C.3        1 MOL1        -0.1684
       5    H3      19.643121   17.288658   20.618019 H          1 MOL1         0.0833
       6    H4      20.317708   17.384248   22.215542 H          1 MOL1         0.0833
       7    C3      18.810485   18.920841   21.774872 C.3        1 MOL1        -0.1684
       8    H5      17.906651   18.578204   21.252982 H          1 MOL1         0.0833
       9    H6      18.966855   19.945973   21.419498 H          1 MOL1         0.0833
      10    C4      18.510858   18.934949   23.295261 C.3        1 MOL1        -0.1760
      11    H7      17.795061   19.742071   23.500071 H          1 MOL1         0.0833
      12    H8      17.995270   18.001565   23.556276 H          1 MOL1         0.0833
      13    C5      19.724766   19.082841   24.246435 C.3        1 MOL1         0.1219
      14    H9      20.310629   18.154109   24.231954 H          1 MOL1         0.0790
      15    C6      20.668681   20.268221   23.928321 C.3        1 MOL1        -0.1760
      16    H10     20.102494   21.099299   23.488670 H          1 MOL1         0.0833
      17    H11     21.062071   20.655518   24.877658 H          1 MOL1         0.0833
      18    C7      21.898988   19.908630   23.048100 C.3        1 MOL1        -0.1684
      19    H12     22.290259   18.913404   23.298805 H          1 MOL1         0.0833
      20    H13     22.699287   20.612166   23.316049 H          1 MOL1         0.0833
      21    C8      21.675710   20.042767   21.521354 C.3        1 MOL1        -0.1684
      22    H14     22.628538   20.346855   21.066693 H          1 MOL1         0.0833
      23    H15     20.990320   20.874496   21.314481 H          1 MOL1         0.0833
      24    O1      19.209369   19.259155   25.560778 O.3        1 MOL1        -0.5508
      25    H16     19.979526   19.271661   26.166711 H          1 MOL1         0.3780
@<TRIPOS>BOND
    1     1     2    1
    2     1     3    1
    3     1     4    1
    4     4     5    1
    5     4     6    1
    6     4     7    1
    7     7     8    1
    8     7     9    1
    9     7    10    1
   10    10    11    1
   11    10    12    1
   12    10    13    1
   13    13    14    1
   14    13    15    1
   15    15    16    1
   16    15    17    1
   17    15    18    1
   18    18    19    1
   19    18    20    1
   20     1    21    1
   21    18    21    1
   22    21    22    1
   23    21    23    1
   24    13    24    1
   25    24    25    1
@<TRIPOS>SUBSTRUCTURE
       1 MOL1            1 RESIDUE      1      MOL     
@<SCITEGIC>MOL_PROPERTY
VConf Rank
SciTegic.value.IntegerValue
686

@<SCITEGIC>MOL_PROPERTY
Conf_Id
SciTegic.value.IntegerValue
162

@<SCITEGIC>MOL_PROPERTY
Delta U+W
SciTegic.value.DoubleValue
0.219

@<SCITEGIC>MOL_PROPERTY
U+W
SciTegic.value.DoubleValue
11.132

@<SCITEGIC>MOL_PROPERTY
Grad RMS
SciTegic.value.DoubleValue
0.000000

@<SCITEGIC>MOL_PROPERTY
U
SciTegic.value.DoubleValue
13.296

@<SCITEGIC>MOL_PROPERTY
W
SciTegic.value.DoubleValue
-2.164

@<SCITEGIC>MOL_PROPERTY
W(PB)
SciTegic.value.DoubleValue
-4.311

@<SCITEGIC>MOL_PROPERTY
W(SA)
SciTegic.value.DoubleValue
2.148

@<SCITEGIC>MOL_PROPERTY
Valence
SciTegic.value.DoubleValue
18.607

@<SCITEGIC>MOL_PROPERTY
Coulomb
SciTegic.value.DoubleValue
-8.339

@<SCITEGIC>MOL_PROPERTY
VdW
SciTegic.value.DoubleValue
3.028

@<SCITEGIC>MOL_PROPERTY
VdW6
SciTegic.value.DoubleValue
-12.271

@<SCITEGIC>MOL_PROPERTY
VdW12
SciTegic.value.DoubleValue
15.299

@<SCITEGIC>MOL_PROPERTY
Bond
SciTegic.value.DoubleValue
0.423

@<SCITEGIC>MOL_PROPERTY
Angle
SciTegic.value.DoubleValue
4.488

@<SCITEGIC>MOL_PROPERTY
Pdih
SciTegic.value.DoubleValue
13.696

@<SCITEGIC>MOL_PROPERTY
Idih
SciTegic.value.DoubleValue
0.000

@<SCITEGIC>MOL_PROPERTY
Tether
SciTegic.value.DoubleValue
0.000

@<TRIPOS>MOLECULE
guest-s17_confgen4.mol2 : confsearch ligand conformer 687
          25          25           1
SMALL
USER_CHARGES
 
@<TRIPOS>ATOM
       1    C1      22.121612   20.120541   22.366547 C.3        1 MOL1        -0.1684
       2    H1      22.584058   19.131440   22.476176 H          1 MOL1         0.0833
       3    H2      22.956989   20.795858   22.136201 H          1 MOL1         0.0833
       4    C2      21.157505   20.121844   21.154030 C.3        1 MOL1        -0.1684
       5    H3      20.436308   20.946638   21.230329 H          1 MOL1         0.0833
       6    H4      21.763485   20.347039   20.265652 H          1 MOL1         0.0833
       7    C3      20.439151   18.771493   20.878204 C.3        1 MOL1        -0.1684
       8    H5      21.102754   17.920241   21.081102 H          1 MOL1         0.0833
       9    H6      20.239711   18.733105   19.798445 H          1 MOL1         0.0833
      10    C4      19.074758   18.589980   21.592820 C.3        1 MOL1        -0.1760
      11    H7      18.563556   19.557070   21.674688 H          1 MOL1         0.0833
      12    H8      18.432126   17.985113   20.939846 H          1 MOL1         0.0833
      13    C5      19.107364   17.873130   22.966279 C.3        1 MOL1         0.1219
      14    H9      19.340364   16.813507   22.787393 H          1 MOL1         0.0790
      15    C6      20.137482   18.403652   23.991685 C.3        1 MOL1        -0.1760
      16    H10     19.914258   17.962289   24.971669 H          1 MOL1         0.0833
      17    H11     21.127857   18.012154   23.735827 H          1 MOL1         0.0833
      18    C7      20.173475   19.948007   24.137104 C.3        1 MOL1        -0.1684
      19    H12     19.982002   20.208450   25.186803 H          1 MOL1         0.0833
      20    H13     19.351528   20.412944   23.580017 H          1 MOL1         0.0833
      21    C8      21.515467   20.593243   23.714597 C.3        1 MOL1        -0.1684
      22    H14     22.257202   20.412590   24.504490 H          1 MOL1         0.0833
      23    H15     21.376628   21.682353   23.678879 H          1 MOL1         0.0833
      24    O1      17.808096   17.969714   23.537834 O.3        1 MOL1        -0.5508
      25    H16     17.846973   17.514927   24.404307 H          1 MOL1         0.3780
@<TRIPOS>BOND
    1     1     2    1
    2     1     3    1
    3     1     4    1
    4     4     5    1
    5     4     6    1
    6     4     7    1
    7     7     8    1
    8     7     9    1
    9     7    10    1
   10    10    11    1
   11    10    12    1
   12    10    13    1
   13    13    14    1
   14    13    15    1
   15    15    16    1
   16    15    17    1
   17    15    18    1
   18    18    19    1
   19    18    20    1
   20     1    21    1
   21    18    21    1
   22    21    22    1
   23    21    23    1
   24    13    24    1
   25    24    25    1
@<TRIPOS>SUBSTRUCTURE
       1 MOL1            1 RESIDUE      1      MOL     
@<SCITEGIC>MOL_PROPERTY
VConf Rank
SciTegic.value.IntegerValue
687

@<SCITEGIC>MOL_PROPERTY
Conf_Id
SciTegic.value.IntegerValue
155

@<SCITEGIC>MOL_PROPERTY
Delta U+W
SciTegic.value.DoubleValue
0.339

@<SCITEGIC>MOL_PROPERTY
U+W
SciTegic.value.DoubleValue
11.252

@<SCITEGIC>MOL_PROPERTY
Grad RMS
SciTegic.value.DoubleValue
0.000000

@<SCITEGIC>MOL_PROPERTY
U
SciTegic.value.DoubleValue
13.420

@<SCITEGIC>MOL_PROPERTY
W
SciTegic.value.DoubleValue
-2.167

@<SCITEGIC>MOL_PROPERTY
W(PB)
SciTegic.value.DoubleValue
-4.325

@<SCITEGIC>MOL_PROPERTY
W(SA)
SciTegic.value.DoubleValue
2.157

@<SCITEGIC>MOL_PROPERTY
Valence
SciTegic.value.DoubleValue
18.609

@<SCITEGIC>MOL_PROPERTY
Coulomb
SciTegic.value.DoubleValue
-8.052

@<SCITEGIC>MOL_PROPERTY
VdW
SciTegic.value.DoubleValue
2.863

@<SCITEGIC>MOL_PROPERTY
VdW6
SciTegic.value.DoubleValue
-12.524

@<SCITEGIC>MOL_PROPERTY
VdW12
SciTegic.value.DoubleValue
15.387

@<SCITEGIC>MOL_PROPERTY
Bond
SciTegic.value.DoubleValue
0.430

@<SCITEGIC>MOL_PROPERTY
Angle
SciTegic.value.DoubleValue
4.724

@<SCITEGIC>MOL_PROPERTY
Pdih
SciTegic.value.DoubleValue
13.455

@<SCITEGIC>MOL_PROPERTY
Idih
SciTegic.value.DoubleValue
0.000

@<SCITEGIC>MOL_PROPERTY
Tether
SciTegic.value.DoubleValue
0.000

@<TRIPOS>MOLECULE
guest-s17_confgen4.mol2 : confsearch ligand conformer 688
          25          25           1
SMALL
USER_CHARGES
 
@<TRIPOS>ATOM
       1    C1      18.709211   18.964772   21.550285 C.3        1 MOL1        -0.1684
       2    H1      18.118850   18.073829   21.803333 H          1 MOL1         0.0833
       3    H2      18.164704   19.453071   20.730615 H          1 MOL1         0.0833
       4    C2      18.692163   19.947094   22.750940 C.3        1 MOL1        -0.1684
       5    H3      19.179739   20.882754   22.459474 H          1 MOL1         0.0833
       6    H4      17.648438   20.243877   22.922037 H          1 MOL1         0.0833
       7    C3      19.249655   19.432443   24.110186 C.3        1 MOL1        -0.1684
       8    H5      18.427622   18.923247   24.631275 H          1 MOL1         0.0833
       9    H6      19.506352   20.295521   24.739410 H          1 MOL1         0.0833
      10    C4      20.449892   18.447219   24.084302 C.3        1 MOL1        -0.1760
      11    H7      20.604573   18.091750   25.111440 H          1 MOL1         0.0833
      12    H8      20.158162   17.539512   23.548844 H          1 MOL1         0.0833
      13    C5      21.815124   18.973369   23.551748 C.3        1 MOL1         0.1219
      14    H9      22.398771   18.105881   23.211763 H          1 MOL1         0.0790
      15    C6      21.787681   20.009456   22.400093 C.3        1 MOL1        -0.1760
      16    H10     21.264582   20.907887   22.740252 H          1 MOL1         0.0833
      17    H11     22.818112   20.354161   22.241930 H          1 MOL1         0.0833
      18    C7      21.247342   19.544491   21.014399 C.3        1 MOL1        -0.1684
      19    H12     22.087973   19.096382   20.467248 H          1 MOL1         0.0833
      20    H13     20.957219   20.429024   20.431515 H          1 MOL1         0.0833
      21    C8      20.088773   18.513143   20.987455 C.3        1 MOL1        -0.1684
      22    H14     20.418186   17.584058   21.463128 H          1 MOL1         0.0833
      23    H15     19.929261   18.221775   19.940297 H          1 MOL1         0.0833
      24    O1      22.502223   19.581982   24.639714 O.3        1 MOL1        -0.5508
      25    H16     22.564119   18.908174   25.347805 H          1 MOL1         0.3780
@<TRIPOS>BOND
    1     1     2    1
    2     1     3    1
    3     1     4    1
    4     4     5    1
    5     4     6    1
    6     4     7    1
    7     7     8    1
    8     7     9    1
    9     7    10    1
   10    10    11    1
   11    10    12    1
   12    10    13    1
   13    13    14    1
   14    13    15    1
   15    15    16    1
   16    15    17    1
   17    15    18    1
   18    18    19    1
   19    18    20    1
   20     1    21    1
   21    18    21    1
   22    21    22    1
   23    21    23    1
   24    13    24    1
   25    24    25    1
@<TRIPOS>SUBSTRUCTURE
       1 MOL1            1 RESIDUE      1      MOL     
@<SCITEGIC>MOL_PROPERTY
VConf Rank
SciTegic.value.IntegerValue
688

@<SCITEGIC>MOL_PROPERTY
Conf_Id
SciTegic.value.IntegerValue
146

@<SCITEGIC>MOL_PROPERTY
Delta U+W
SciTegic.value.DoubleValue
2.553

@<SCITEGIC>MOL_PROPERTY
U+W
SciTegic.value.DoubleValue
13.466

@<SCITEGIC>MOL_PROPERTY
Grad RMS
SciTegic.value.DoubleValue
0.000000

@<SCITEGIC>MOL_PROPERTY
U
SciTegic.value.DoubleValue
15.643

@<SCITEGIC>MOL_PROPERTY
W
SciTegic.value.DoubleValue
-2.176

@<SCITEGIC>MOL_PROPERTY
W(PB)
SciTegic.value.DoubleValue
-4.307

@<SCITEGIC>MOL_PROPERTY
W(SA)
SciTegic.value.DoubleValue
2.131

@<SCITEGIC>MOL_PROPERTY
Valence
SciTegic.value.DoubleValue
18.916

@<SCITEGIC>MOL_PROPERTY
Coulomb
SciTegic.value.DoubleValue
-7.506

@<SCITEGIC>MOL_PROPERTY
VdW
SciTegic.value.DoubleValue
4.232

@<SCITEGIC>MOL_PROPERTY
VdW6
SciTegic.value.DoubleValue
-13.632

@<SCITEGIC>MOL_PROPERTY
VdW12
SciTegic.value.DoubleValue
17.864

@<SCITEGIC>MOL_PROPERTY
Bond
SciTegic.value.DoubleValue
0.735

@<SCITEGIC>MOL_PROPERTY
Angle
SciTegic.value.DoubleValue
9.140

@<SCITEGIC>MOL_PROPERTY
Pdih
SciTegic.value.DoubleValue
9.042

@<SCITEGIC>MOL_PROPERTY
Idih
SciTegic.value.DoubleValue
0.000

@<SCITEGIC>MOL_PROPERTY
Tether
SciTegic.value.DoubleValue
0.000

@<TRIPOS>MOLECULE
guest-s17_confgen4.mol2 : confsearch ligand conformer 689
          25          25           1
SMALL
USER_CHARGES
 
@<TRIPOS>ATOM
       1    C1      20.590474   20.172328   20.825806 C.3        1 MOL1        -0.1684
       2    H1      20.434290   21.248882   20.673674 H          1 MOL1         0.0833
       3    H2      20.892766   19.775709   19.846917 H          1 MOL1         0.0833
       4    C2      19.241427   19.507431   21.197456 C.3        1 MOL1        -0.1684
       5    H3      18.553889   19.673539   20.356919 H          1 MOL1         0.0833
       6    H4      19.354694   18.418581   21.249646 H          1 MOL1         0.0833
       7    C3      18.545123   20.043572   22.473424 C.3        1 MOL1        -0.1684
       8    H5      17.558644   19.564325   22.537940 H          1 MOL1         0.0833
       9    H6      18.347277   21.117506   22.355248 H          1 MOL1         0.0833
      10    C4      19.274219   19.811359   23.822572 C.3        1 MOL1        -0.1760
      11    H7      20.044453   20.574003   23.974829 H          1 MOL1         0.0833
      12    H8      18.542860   19.997254   24.620753 H          1 MOL1         0.0833
      13    C5      19.878397   18.395653   24.009173 C.3        1 MOL1         0.1219
      14    H9      19.390978   17.693410   23.319592 H          1 MOL1         0.0790
      15    C6      21.413656   18.330155   23.808040 C.3        1 MOL1        -0.1760
      16    H10     21.895962   19.056811   24.475177 H          1 MOL1         0.0833
      17    H11     21.757913   17.343776   24.145509 H          1 MOL1         0.0833
      18    C7      21.941375   18.532774   22.361643 C.3        1 MOL1        -0.1684
      19    H12     21.503909   17.792172   21.679784 H          1 MOL1         0.0833
      20    H13     23.016397   18.306868   22.378214 H          1 MOL1         0.0833
      21    C8      21.776551   19.970242   21.803965 C.3        1 MOL1        -0.1684
      22    H14     22.693066   20.231681   21.257442 H          1 MOL1         0.0833
      23    H15     21.730746   20.697677   22.622233 H          1 MOL1         0.0833
      24    O1      19.607640   17.971499   25.340388 O.3        1 MOL1        -0.5508
      25    H16     19.944390   17.054689   25.419631 H          1 MOL1         0.3780
@<TRIPOS>BOND
    1     1     2    1
    2     1     3    1
    3     1     4    1
    4     4     5    1
    5     4     6    1
    6     4     7    1
    7     7     8    1
    8     7     9    1
    9     7    10    1
   10    10    11    1
   11    10    12    1
   12    10    13    1
   13    13    14    1
   14    13    15    1
   15    15    16    1
   16    15    17    1
   17    15    18    1
   18    18    19    1
   19    18    20    1
   20     1    21    1
   21    18    21    1
   22    21    22    1
   23    21    23    1
   24    13    24    1
   25    24    25    1
@<TRIPOS>SUBSTRUCTURE
       1 MOL1            1 RESIDUE      1      MOL     
@<SCITEGIC>MOL_PROPERTY
VConf Rank
SciTegic.value.IntegerValue
689

@<SCITEGIC>MOL_PROPERTY
Conf_Id
SciTegic.value.IntegerValue
62

@<SCITEGIC>MOL_PROPERTY
Delta U+W
SciTegic.value.DoubleValue
-1.779

@<SCITEGIC>MOL_PROPERTY
U+W
SciTegic.value.DoubleValue
9.134

@<SCITEGIC>MOL_PROPERTY
Grad RMS
SciTegic.value.DoubleValue
0.000000

@<SCITEGIC>MOL_PROPERTY
U
SciTegic.value.DoubleValue
11.364

@<SCITEGIC>MOL_PROPERTY
W
SciTegic.value.DoubleValue
-2.230

@<SCITEGIC>MOL_PROPERTY
W(PB)
SciTegic.value.DoubleValue
-4.359

@<SCITEGIC>MOL_PROPERTY
W(SA)
SciTegic.value.DoubleValue
2.129

@<SCITEGIC>MOL_PROPERTY
Valence
SciTegic.value.DoubleValue
16.582

@<SCITEGIC>MOL_PROPERTY
Coulomb
SciTegic.value.DoubleValue
-8.150

@<SCITEGIC>MOL_PROPERTY
VdW
SciTegic.value.DoubleValue
2.933

@<SCITEGIC>MOL_PROPERTY
VdW6
SciTegic.value.DoubleValue
-12.531

@<SCITEGIC>MOL_PROPERTY
VdW12
SciTegic.value.DoubleValue
15.464

@<SCITEGIC>MOL_PROPERTY
Bond
SciTegic.value.DoubleValue
0.439

@<SCITEGIC>MOL_PROPERTY
Angle
SciTegic.value.DoubleValue
5.099

@<SCITEGIC>MOL_PROPERTY
Pdih
SciTegic.value.DoubleValue
11.044

@<SCITEGIC>MOL_PROPERTY
Idih
SciTegic.value.DoubleValue
0.000

@<SCITEGIC>MOL_PROPERTY
Tether
SciTegic.value.DoubleValue
0.000

@<TRIPOS>MOLECULE
guest-s17_confgen4.mol2 : confsearch ligand conformer 690
          25          25           1
SMALL
USER_CHARGES
 
@<TRIPOS>ATOM
       1    C1      19.398291   17.610259   22.834283 C.3        1 MOL1        -0.1684
       2    H1      19.800866   17.784976   23.838539 H          1 MOL1         0.0833
       3    H2      18.842302   16.666733   22.919577 H          1 MOL1         0.0833
       4    C2      20.549166   17.376413   21.824107 C.3        1 MOL1        -0.1684
       5    H3      21.112093   16.496686   22.164813 H          1 MOL1         0.0833
       6    H4      20.125606   17.098662   20.849455 H          1 MOL1         0.0833
       7    C3      21.558335   18.535501   21.622086 C.3        1 MOL1        -0.1684
       8    H5      21.166016   19.266861   20.906411 H          1 MOL1         0.0833
       9    H6      22.442073   18.112166   21.125276 H          1 MOL1         0.0833
      10    C4      22.025310   19.242410   22.922673 C.3        1 MOL1        -0.1760
      11    H7      21.918370   18.581205   23.791363 H          1 MOL1         0.0833
      12    H8      23.104364   19.420032   22.825520 H          1 MOL1         0.0833
      13    C5      21.355126   20.612355   23.197441 C.3        1 MOL1         0.1219
      14    H9      21.476828   21.241009   22.303592 H          1 MOL1         0.0790
      15    C6      19.849999   20.581738   23.562906 C.3        1 MOL1        -0.1760
      16    H10     19.682519   19.960509   24.451058 H          1 MOL1         0.0833
      17    H11     19.574177   21.600095   23.867344 H          1 MOL1         0.0833
      18    C7      18.901633   20.171637   22.404465 C.3        1 MOL1        -0.1684
      19    H12     19.369944   20.374088   21.434596 H          1 MOL1         0.0833
      20    H13     18.024550   20.832745   22.429184 H          1 MOL1         0.0833
      21    C8      18.377067   18.714104   22.462330 C.3        1 MOL1        -0.1684
      22    H14     17.907919   18.465551   21.500765 H          1 MOL1         0.0833
      23    H15     17.568671   18.677754   23.205335 H          1 MOL1         0.0833
      24    O1      22.046027   21.221026   24.281231 O.3        1 MOL1        -0.5508
      25    H16     22.984940   21.297220   24.011446 H          1 MOL1         0.3780
@<TRIPOS>BOND
    1     1     2    1
    2     1     3    1
    3     1     4    1
    4     4     5    1
    5     4     6    1
    6     4     7    1
    7     7     8    1
    8     7     9    1
    9     7    10    1
   10    10    11    1
   11    10    12    1
   12    10    13    1
   13    13    14    1
   14    13    15    1
   15    15    16    1
   16    15    17    1
   17    15    18    1
   18    18    19    1
   19    18    20    1
   20     1    21    1
   21    18    21    1
   22    21    22    1
   23    21    23    1
   24    13    24    1
   25    24    25    1
@<TRIPOS>SUBSTRUCTURE
       1 MOL1            1 RESIDUE      1      MOL     
@<SCITEGIC>MOL_PROPERTY
VConf Rank
SciTegic.value.IntegerValue
690

@<SCITEGIC>MOL_PROPERTY
Conf_Id
SciTegic.value.IntegerValue
121

@<SCITEGIC>MOL_PROPERTY
Delta U+W
SciTegic.value.DoubleValue
-1.283

@<SCITEGIC>MOL_PROPERTY
U+W
SciTegic.value.DoubleValue
9.630

@<SCITEGIC>MOL_PROPERTY
Grad RMS
SciTegic.value.DoubleValue
0.000000

@<SCITEGIC>MOL_PROPERTY
U
SciTegic.value.DoubleValue
11.876

@<SCITEGIC>MOL_PROPERTY
W
SciTegic.value.DoubleValue
-2.246

@<SCITEGIC>MOL_PROPERTY
W(PB)
SciTegic.value.DoubleValue
-4.376

@<SCITEGIC>MOL_PROPERTY
W(SA)
SciTegic.value.DoubleValue
2.130

@<SCITEGIC>MOL_PROPERTY
Valence
SciTegic.value.DoubleValue
17.153

@<SCITEGIC>MOL_PROPERTY
Coulomb
SciTegic.value.DoubleValue
-7.966

@<SCITEGIC>MOL_PROPERTY
VdW
SciTegic.value.DoubleValue
2.689

@<SCITEGIC>MOL_PROPERTY
VdW6
SciTegic.value.DoubleValue
-12.458

@<SCITEGIC>MOL_PROPERTY
VdW12
SciTegic.value.DoubleValue
15.147

@<SCITEGIC>MOL_PROPERTY
Bond
SciTegic.value.DoubleValue
0.421

@<SCITEGIC>MOL_PROPERTY
Angle
SciTegic.value.DoubleValue
5.258

@<SCITEGIC>MOL_PROPERTY
Pdih
SciTegic.value.DoubleValue
11.475

@<SCITEGIC>MOL_PROPERTY
Idih
SciTegic.value.DoubleValue
0.000

@<SCITEGIC>MOL_PROPERTY
Tether
SciTegic.value.DoubleValue
0.000

@<TRIPOS>MOLECULE
guest-s17_confgen4.mol2 : confsearch ligand conformer 691
          25          25           1
SMALL
USER_CHARGES
 
@<TRIPOS>ATOM
       1    C1      20.299640   17.420376   22.996317 C.3        1 MOL1        -0.1684
       2    H1      19.960441   17.868801   23.937052 H          1 MOL1         0.0833
       3    H2      20.258076   16.337406   23.175444 H          1 MOL1         0.0833
       4    C2      21.780783   17.785728   22.727142 C.3        1 MOL1        -0.1684
       5    H3      22.373020   17.396648   23.566639 H          1 MOL1         0.0833
       6    H4      22.132806   17.243641   21.839052 H          1 MOL1         0.0833
       7    C3      22.119560   19.289759   22.565756 C.3        1 MOL1        -0.1684
       8    H5      21.922993   19.620779   21.539728 H          1 MOL1         0.0833
       9    H6      23.207135   19.391221   22.683376 H          1 MOL1         0.0833
      10    C4      21.431747   20.237634   23.584588 C.3        1 MOL1        -0.1760
      11    H7      21.160000   19.702752   24.502654 H          1 MOL1         0.0833
      12    H8      22.177160   20.981971   23.894637 H          1 MOL1         0.0833
      13    C5      20.214887   21.021103   23.032010 C.3        1 MOL1         0.1219
      14    H9      20.529647   21.537748   22.113867 H          1 MOL1         0.0790
      15    C6      18.947797   20.188771   22.710932 C.3        1 MOL1        -0.1760
      16    H10     18.605635   19.650081   23.603114 H          1 MOL1         0.0833
      17    H11     18.142878   20.896875   22.474209 H          1 MOL1         0.0833
      18    C7      19.085750   19.229711   21.498297 C.3        1 MOL1        -0.1684
      19    H12     19.871324   19.579317   20.818855 H          1 MOL1         0.0833
      20    H13     18.162827   19.291086   20.905449 H          1 MOL1         0.0833
      21    C8      19.300223   17.736764   21.855826 C.3        1 MOL1        -0.1684
      22    H14     19.599549   17.192724   20.949780 H          1 MOL1         0.0833
      23    H15     18.326948   17.317810   22.145829 H          1 MOL1         0.0833
      24    O1      19.856320   21.995281   24.004034 O.3        1 MOL1        -0.5508
      25    H16     19.131419   22.528585   23.616408 H          1 MOL1         0.3780
@<TRIPOS>BOND
    1     1     2    1
    2     1     3    1
    3     1     4    1
    4     4     5    1
    5     4     6    1
    6     4     7    1
    7     7     8    1
    8     7     9    1
    9     7    10    1
   10    10    11    1
   11    10    12    1
   12    10    13    1
   13    13    14    1
   14    13    15    1
   15    15    16    1
   16    15    17    1
   17    15    18    1
   18    18    19    1
   19    18    20    1
   20     1    21    1
   21    18    21    1
   22    21    22    1
   23    21    23    1
   24    13    24    1
   25    24    25    1
@<TRIPOS>SUBSTRUCTURE
       1 MOL1            1 RESIDUE      1      MOL     
@<SCITEGIC>MOL_PROPERTY
VConf Rank
SciTegic.value.IntegerValue
691

@<SCITEGIC>MOL_PROPERTY
Conf_Id
SciTegic.value.IntegerValue
24

@<SCITEGIC>MOL_PROPERTY
Delta U+W
SciTegic.value.DoubleValue
-1.236

@<SCITEGIC>MOL_PROPERTY
U+W
SciTegic.value.DoubleValue
9.678

@<SCITEGIC>MOL_PROPERTY
Grad RMS
SciTegic.value.DoubleValue
0.000000

@<SCITEGIC>MOL_PROPERTY
U
SciTegic.value.DoubleValue
11.876

@<SCITEGIC>MOL_PROPERTY
W
SciTegic.value.DoubleValue
-2.199

@<SCITEGIC>MOL_PROPERTY
W(PB)
SciTegic.value.DoubleValue
-4.335

@<SCITEGIC>MOL_PROPERTY
W(SA)
SciTegic.value.DoubleValue
2.137

@<SCITEGIC>MOL_PROPERTY
Valence
SciTegic.value.DoubleValue
17.153

@<SCITEGIC>MOL_PROPERTY
Coulomb
SciTegic.value.DoubleValue
-7.966

@<SCITEGIC>MOL_PROPERTY
VdW
SciTegic.value.DoubleValue
2.689

@<SCITEGIC>MOL_PROPERTY
VdW6
SciTegic.value.DoubleValue
-12.458

@<SCITEGIC>MOL_PROPERTY
VdW12
SciTegic.value.DoubleValue
15.147

@<SCITEGIC>MOL_PROPERTY
Bond
SciTegic.value.DoubleValue
0.421

@<SCITEGIC>MOL_PROPERTY
Angle
SciTegic.value.DoubleValue
5.258

@<SCITEGIC>MOL_PROPERTY
Pdih
SciTegic.value.DoubleValue
11.475

@<SCITEGIC>MOL_PROPERTY
Idih
SciTegic.value.DoubleValue
0.000

@<SCITEGIC>MOL_PROPERTY
Tether
SciTegic.value.DoubleValue
0.000

@<TRIPOS>MOLECULE
guest-s17_confgen4.mol2 : confsearch ligand conformer 692
          25          25           1
SMALL
USER_CHARGES
 
@<TRIPOS>ATOM
       1    C1      19.738453   18.763188   24.686082 C.3        1 MOL1        -0.1684
       2    H1      20.001201   19.426247   25.521601 H          1 MOL1         0.0833
       3    H2      19.252981   17.889355   25.141699 H          1 MOL1         0.0833
       4    C2      18.692368   19.476752   23.789013 C.3        1 MOL1        -0.1684
       5    H3      18.169860   18.751283   23.152636 H          1 MOL1         0.0833
       6    H4      17.915209   19.872447   24.457231 H          1 MOL1         0.0833
       7    C3      19.222480   20.650255   22.928472 C.3        1 MOL1        -0.1684
       8    H5      20.016441   21.194430   23.457581 H          1 MOL1         0.0833
       9    H6      18.397012   21.367967   22.825061 H          1 MOL1         0.0833
      10    C4      19.668202   20.265332   21.489342 C.3        1 MOL1        -0.1760
      11    H7      19.017028   19.485438   21.074353 H          1 MOL1         0.0833
      12    H8      19.502068   21.152031   20.862354 H          1 MOL1         0.0833
      13    C5      21.156327   19.860891   21.351545 C.3        1 MOL1         0.1219
      14    H9      21.732530   20.381191   22.128046 H          1 MOL1         0.0790
      15    C6      21.441579   18.339877   21.434955 C.3        1 MOL1        -0.1760
      16    H10     21.087742   17.851975   20.517284 H          1 MOL1         0.0833
      17    H11     22.531366   18.206296   21.446877 H          1 MOL1         0.0833
      18    C7      20.844110   17.581553   22.646820 C.3        1 MOL1        -0.1684
      19    H12     21.317277   16.591372   22.695951 H          1 MOL1         0.0833
      20    H13     19.782592   17.375257   22.467062 H          1 MOL1         0.0833
      21    C8      21.049177   18.298455   24.005257 C.3        1 MOL1        -0.1684
      22    H14     21.732956   19.149210   23.903683 H          1 MOL1         0.0833
      23    H15     21.561816   17.610501   24.691399 H          1 MOL1         0.0833
      24    O1      21.626118   20.308872   20.086507 O.3        1 MOL1        -0.5508
      25    H16     21.085970   19.848746   19.411602 H          1 MOL1         0.3780
@<TRIPOS>BOND
    1     1     2    1
    2     1     3    1
    3     1     4    1
    4     4     5    1
    5     4     6    1
    6     4     7    1
    7     7     8    1
    8     7     9    1
    9     7    10    1
   10    10    11    1
   11    10    12    1
   12    10    13    1
   13    13    14    1
   14    13    15    1
   15    15    16    1
   16    15    17    1
   17    15    18    1
   18    18    19    1
   19    18    20    1
   20     1    21    1
   21    18    21    1
   22    21    22    1
   23    21    23    1
   24    13    24    1
   25    24    25    1
@<TRIPOS>SUBSTRUCTURE
       1 MOL1            1 RESIDUE      1      MOL     
@<SCITEGIC>MOL_PROPERTY
VConf Rank
SciTegic.value.IntegerValue
692

@<SCITEGIC>MOL_PROPERTY
Conf_Id
SciTegic.value.IntegerValue
167

@<SCITEGIC>MOL_PROPERTY
Delta U+W
SciTegic.value.DoubleValue
0.388

@<SCITEGIC>MOL_PROPERTY
U+W
SciTegic.value.DoubleValue
11.301

@<SCITEGIC>MOL_PROPERTY
Grad RMS
SciTegic.value.DoubleValue
0.000000

@<SCITEGIC>MOL_PROPERTY
U
SciTegic.value.DoubleValue
13.202

@<SCITEGIC>MOL_PROPERTY
W
SciTegic.value.DoubleValue
-1.901

@<SCITEGIC>MOL_PROPERTY
W(PB)
SciTegic.value.DoubleValue
-4.065

@<SCITEGIC>MOL_PROPERTY
W(SA)
SciTegic.value.DoubleValue
2.163

@<SCITEGIC>MOL_PROPERTY
Valence
SciTegic.value.DoubleValue
18.957

@<SCITEGIC>MOL_PROPERTY
Coulomb
SciTegic.value.DoubleValue
-8.753

@<SCITEGIC>MOL_PROPERTY
VdW
SciTegic.value.DoubleValue
2.998

@<SCITEGIC>MOL_PROPERTY
VdW6
SciTegic.value.DoubleValue
-12.294

@<SCITEGIC>MOL_PROPERTY
VdW12
SciTegic.value.DoubleValue
15.292

@<SCITEGIC>MOL_PROPERTY
Bond
SciTegic.value.DoubleValue
0.419

@<SCITEGIC>MOL_PROPERTY
Angle
SciTegic.value.DoubleValue
4.543

@<SCITEGIC>MOL_PROPERTY
Pdih
SciTegic.value.DoubleValue
13.996

@<SCITEGIC>MOL_PROPERTY
Idih
SciTegic.value.DoubleValue
0.000

@<SCITEGIC>MOL_PROPERTY
Tether
SciTegic.value.DoubleValue
0.000

@<TRIPOS>MOLECULE
guest-s17_confgen4.mol2 : confsearch ligand conformer 693
          25          25           1
SMALL
USER_CHARGES
 
@<TRIPOS>ATOM
       1    C1      20.153361   17.762946   21.219415 C.3        1 MOL1        -0.1684
       2    H1      21.003488   17.111575   20.975483 H          1 MOL1         0.0833
       3    H2      19.324533   17.417015   20.586726 H          1 MOL1         0.0833
       4    C2      20.495692   19.215076   20.795819 C.3        1 MOL1        -0.1684
       5    H3      21.536183   19.454560   21.042456 H          1 MOL1         0.0833
       6    H4      20.461730   19.246603   19.698146 H          1 MOL1         0.0833
       7    C3      19.541687   20.310560   21.338620 C.3        1 MOL1        -0.1684
       8    H5      18.548554   19.896711   21.555844 H          1 MOL1         0.0833
       9    H6      19.379133   21.036753   20.530459 H          1 MOL1         0.0833
      10    C4      20.086458   21.104124   22.557525 C.3        1 MOL1        -0.1760
      11    H7      21.060379   21.541852   22.302350 H          1 MOL1         0.0833
      12    H8      19.413760   21.955843   22.724380 H          1 MOL1         0.0833
      13    C5      20.208880   20.333782   23.895805 C.3        1 MOL1         0.1219
      14    H9      19.242251   19.869348   24.132628 H          1 MOL1         0.0790
      15    C6      21.325259   19.257538   23.906984 C.3        1 MOL1        -0.1760
      16    H10     22.071497   19.481150   23.137958 H          1 MOL1         0.0833
      17    H11     21.882137   19.317228   24.851583 H          1 MOL1         0.0833
      18    C7      20.827827   17.795975   23.761525 C.3        1 MOL1        -0.1684
      19    H12     20.424657   17.478249   24.732838 H          1 MOL1         0.0833
      20    H13     21.690292   17.143451   23.569385 H          1 MOL1         0.0833
      21    C8      19.737186   17.529828   22.693565 C.3        1 MOL1        -0.1684
      22    H14     18.825516   18.092265   22.925236 H          1 MOL1         0.0833
      23    H15     19.441859   16.475729   22.785649 H          1 MOL1         0.0833
      24    O1      20.501395   21.289012   24.908786 O.3        1 MOL1        -0.5508
      25    H16     20.508296   20.802669   25.759633 H          1 MOL1         0.3780
@<TRIPOS>BOND
    1     1     2    1
    2     1     3    1
    3     1     4    1
    4     4     5    1
    5     4     6    1
    6     4     7    1
    7     7     8    1
    8     7     9    1
    9     7    10    1
   10    10    11    1
   11    10    12    1
   12    10    13    1
   13    13    14    1
   14    13    15    1
   15    15    16    1
   16    15    17    1
   17    15    18    1
   18    18    19    1
   19    18    20    1
   20     1    21    1
   21    18    21    1
   22    21    22    1
   23    21    23    1
   24    13    24    1
   25    24    25    1
@<TRIPOS>SUBSTRUCTURE
       1 MOL1            1 RESIDUE      1      MOL     
@<SCITEGIC>MOL_PROPERTY
VConf Rank
SciTegic.value.IntegerValue
693

@<SCITEGIC>MOL_PROPERTY
Conf_Id
SciTegic.value.IntegerValue
60

@<SCITEGIC>MOL_PROPERTY
Delta U+W
SciTegic.value.DoubleValue
-1.838

@<SCITEGIC>MOL_PROPERTY
U+W
SciTegic.value.DoubleValue
9.075

@<SCITEGIC>MOL_PROPERTY
Grad RMS
SciTegic.value.DoubleValue
0.000000

@<SCITEGIC>MOL_PROPERTY
U
SciTegic.value.DoubleValue
11.150

@<SCITEGIC>MOL_PROPERTY
W
SciTegic.value.DoubleValue
-2.074

@<SCITEGIC>MOL_PROPERTY
W(PB)
SciTegic.value.DoubleValue
-4.196

@<SCITEGIC>MOL_PROPERTY
W(SA)
SciTegic.value.DoubleValue
2.121

@<SCITEGIC>MOL_PROPERTY
Valence
SciTegic.value.DoubleValue
16.582

@<SCITEGIC>MOL_PROPERTY
Coulomb
SciTegic.value.DoubleValue
-8.361

@<SCITEGIC>MOL_PROPERTY
VdW
SciTegic.value.DoubleValue
2.928

@<SCITEGIC>MOL_PROPERTY
VdW6
SciTegic.value.DoubleValue
-12.539

@<SCITEGIC>MOL_PROPERTY
VdW12
SciTegic.value.DoubleValue
15.467

@<SCITEGIC>MOL_PROPERTY
Bond
SciTegic.value.DoubleValue
0.441

@<SCITEGIC>MOL_PROPERTY
Angle
SciTegic.value.DoubleValue
5.093

@<SCITEGIC>MOL_PROPERTY
Pdih
SciTegic.value.DoubleValue
11.049

@<SCITEGIC>MOL_PROPERTY
Idih
SciTegic.value.DoubleValue
0.000

@<SCITEGIC>MOL_PROPERTY
Tether
SciTegic.value.DoubleValue
0.000

@<TRIPOS>MOLECULE
guest-s17_confgen4.mol2 : confsearch ligand conformer 694
          25          25           1
SMALL
USER_CHARGES
 
@<TRIPOS>ATOM
       1    C1      21.354678   20.223409   24.112115 C.3        1 MOL1        -0.1684
       2    H1      22.081812   19.720267   24.763750 H          1 MOL1         0.0833
       3    H2      21.330456   21.269149   24.447913 H          1 MOL1         0.0833
       4    C2      19.946712   19.626178   24.360329 C.3        1 MOL1        -0.1684
       5    H3      19.696745   19.808988   25.414331 H          1 MOL1         0.0833
       6    H4      19.191140   20.185837   23.797265 H          1 MOL1         0.0833
       7    C3      19.796378   18.104442   24.110151 C.3        1 MOL1        -0.1684
       8    H5      18.788922   17.813031   24.437344 H          1 MOL1         0.0833
       9    H6      20.490892   17.559239   24.763569 H          1 MOL1         0.0833
      10    C4      19.985270   17.611266   22.652119 C.3        1 MOL1        -0.1760
      11    H7      21.050736   17.509523   22.422547 H          1 MOL1         0.0833
      12    H8      19.597881   16.584788   22.605072 H          1 MOL1         0.0833
      13    C5      19.287267   18.477554   21.571812 C.3        1 MOL1         0.1219
      14    H9      18.499946   19.086946   22.035407 H          1 MOL1         0.0790
      15    C6      20.248304   19.404006   20.786001 C.3        1 MOL1        -0.1760
      16    H10     21.054679   18.800699   20.348939 H          1 MOL1         0.0833
      17    H11     19.691130   19.815211   19.933797 H          1 MOL1         0.0833
      18    C7      20.861815   20.600194   21.563812 C.3        1 MOL1        -0.1684
      19    H12     20.072814   21.242019   21.976495 H          1 MOL1         0.0833
      20    H13     21.384917   21.226145   20.827976 H          1 MOL1         0.0833
      21    C8      21.889824   20.207797   22.656546 C.3        1 MOL1        -0.1684
      22    H14     22.723628   20.921848   22.612536 H          1 MOL1         0.0833
      23    H15     22.348219   19.240111   22.423605 H          1 MOL1         0.0833
      24    O1      18.675033   17.605391   20.629122 O.3        1 MOL1        -0.5508
      25    H16     18.019517   17.071652   21.125041 H          1 MOL1         0.3780
@<TRIPOS>BOND
    1     1     2    1
    2     1     3    1
    3     1     4    1
    4     4     5    1
    5     4     6    1
    6     4     7    1
    7     7     8    1
    8     7     9    1
    9     7    10    1
   10    10    11    1
   11    10    12    1
   12    10    13    1
   13    13    14    1
   14    13    15    1
   15    15    16    1
   16    15    17    1
   17    15    18    1
   18    18    19    1
   19    18    20    1
   20     1    21    1
   21    18    21    1
   22    21    22    1
   23    21    23    1
   24    13    24    1
   25    24    25    1
@<TRIPOS>SUBSTRUCTURE
       1 MOL1            1 RESIDUE      1      MOL     
@<SCITEGIC>MOL_PROPERTY
VConf Rank
SciTegic.value.IntegerValue
694

@<SCITEGIC>MOL_PROPERTY
Conf_Id
SciTegic.value.IntegerValue
129

@<SCITEGIC>MOL_PROPERTY
Delta U+W
SciTegic.value.DoubleValue
-1.846

@<SCITEGIC>MOL_PROPERTY
U+W
SciTegic.value.DoubleValue
9.067

@<SCITEGIC>MOL_PROPERTY
Grad RMS
SciTegic.value.DoubleValue
0.000000

@<SCITEGIC>MOL_PROPERTY
U
SciTegic.value.DoubleValue
11.150

@<SCITEGIC>MOL_PROPERTY
W
SciTegic.value.DoubleValue
-2.083

@<SCITEGIC>MOL_PROPERTY
W(PB)
SciTegic.value.DoubleValue
-4.217

@<SCITEGIC>MOL_PROPERTY
W(SA)
SciTegic.value.DoubleValue
2.134

@<SCITEGIC>MOL_PROPERTY
Valence
SciTegic.value.DoubleValue
16.583

@<SCITEGIC>MOL_PROPERTY
Coulomb
SciTegic.value.DoubleValue
-8.361

@<SCITEGIC>MOL_PROPERTY
VdW
SciTegic.value.DoubleValue
2.928

@<SCITEGIC>MOL_PROPERTY
VdW6
SciTegic.value.DoubleValue
-12.539

@<SCITEGIC>MOL_PROPERTY
VdW12
SciTegic.value.DoubleValue
15.467

@<SCITEGIC>MOL_PROPERTY
Bond
SciTegic.value.DoubleValue
0.441

@<SCITEGIC>MOL_PROPERTY
Angle
SciTegic.value.DoubleValue
5.093

@<SCITEGIC>MOL_PROPERTY
Pdih
SciTegic.value.DoubleValue
11.049

@<SCITEGIC>MOL_PROPERTY
Idih
SciTegic.value.DoubleValue
0.000

@<SCITEGIC>MOL_PROPERTY
Tether
SciTegic.value.DoubleValue
0.000

@<TRIPOS>MOLECULE
guest-s17_confgen4.mol2 : confsearch ligand conformer 695
          25          25           1
SMALL
USER_CHARGES
 
@<TRIPOS>ATOM
       1    C1      21.681910   20.636851   22.172656 C.3        1 MOL1        -0.1684
       2    H1      22.752129   20.389653   22.178184 H          1 MOL1         0.0833
       3    H2      21.623490   21.692783   21.875143 H          1 MOL1         0.0833
       4    C2      21.125207   20.531633   23.614609 C.3        1 MOL1        -0.1684
       5    H3      21.675139   21.256878   24.229750 H          1 MOL1         0.0833
       6    H4      20.084989   20.875206   23.647845 H          1 MOL1         0.0833
       7    C3      21.263448   19.149400   24.300605 C.3        1 MOL1        -0.1684
       8    H5      20.935551   19.263653   25.342949 H          1 MOL1         0.0833
       9    H6      22.325519   18.873818   24.351148 H          1 MOL1         0.0833
      10    C4      20.466810   17.972838   23.679039 C.3        1 MOL1        -0.1760
      11    H7      21.011276   17.557680   22.824791 H          1 MOL1         0.0833
      12    H8      20.459242   17.164085   24.422327 H          1 MOL1         0.0833
      13    C5      19.008017   18.309005   23.274700 C.3        1 MOL1         0.1219
      14    H9      18.672000   19.205298   23.812866 H          1 MOL1         0.0790
      15    C6      18.801176   18.519127   21.753528 C.3        1 MOL1        -0.1760
      16    H10     19.164159   17.637074   21.209982 H          1 MOL1         0.0833
      17    H11     17.719686   18.560152   21.566631 H          1 MOL1         0.0833
      18    C7      19.428438   19.795558   21.130402 C.3        1 MOL1        -0.1684
      19    H12     19.049561   20.698113   21.627031 H          1 MOL1         0.0833
      20    H13     19.061070   19.861687   20.097139 H          1 MOL1         0.0833
      21    C8      20.978107   19.797624   21.075018 C.3        1 MOL1        -0.1684
      22    H14     21.284564   20.213497   20.105387 H          1 MOL1         0.0833
      23    H15     21.364466   18.772227   21.065655 H          1 MOL1         0.0833
      24    O1      18.176843   17.224208   23.667799 O.3        1 MOL1        -0.5508
      25    H16     18.492576   16.440366   23.172978 H          1 MOL1         0.3780
@<TRIPOS>BOND
    1     1     2    1
    2     1     3    1
    3     1     4    1
    4     4     5    1
    5     4     6    1
    6     4     7    1
    7     7     8    1
    8     7     9    1
    9     7    10    1
   10    10    11    1
   11    10    12    1
   12    10    13    1
   13    13    14    1
   14    13    15    1
   15    15    16    1
   16    15    17    1
   17    15    18    1
   18    18    19    1
   19    18    20    1
   20     1    21    1
   21    18    21    1
   22    21    22    1
   23    21    23    1
   24    13    24    1
   25    24    25    1
@<TRIPOS>SUBSTRUCTURE
       1 MOL1            1 RESIDUE      1      MOL     
@<SCITEGIC>MOL_PROPERTY
VConf Rank
SciTegic.value.IntegerValue
695

@<SCITEGIC>MOL_PROPERTY
Conf_Id
SciTegic.value.IntegerValue
140

@<SCITEGIC>MOL_PROPERTY
Delta U+W
SciTegic.value.DoubleValue
-1.702

@<SCITEGIC>MOL_PROPERTY
U+W
SciTegic.value.DoubleValue
9.211

@<SCITEGIC>MOL_PROPERTY
Grad RMS
SciTegic.value.DoubleValue
0.000000

@<SCITEGIC>MOL_PROPERTY
U
SciTegic.value.DoubleValue
11.181

@<SCITEGIC>MOL_PROPERTY
W
SciTegic.value.DoubleValue
-1.969

@<SCITEGIC>MOL_PROPERTY
W(PB)
SciTegic.value.DoubleValue
-4.093

@<SCITEGIC>MOL_PROPERTY
W(SA)
SciTegic.value.DoubleValue
2.124

@<SCITEGIC>MOL_PROPERTY
Valence
SciTegic.value.DoubleValue
16.954

@<SCITEGIC>MOL_PROPERTY
Coulomb
SciTegic.value.DoubleValue
-8.661

@<SCITEGIC>MOL_PROPERTY
VdW
SciTegic.value.DoubleValue
2.887

@<SCITEGIC>MOL_PROPERTY
VdW6
SciTegic.value.DoubleValue
-12.561

@<SCITEGIC>MOL_PROPERTY
VdW12
SciTegic.value.DoubleValue
15.448

@<SCITEGIC>MOL_PROPERTY
Bond
SciTegic.value.DoubleValue
0.433

@<SCITEGIC>MOL_PROPERTY
Angle
SciTegic.value.DoubleValue
5.120

@<SCITEGIC>MOL_PROPERTY
Pdih
SciTegic.value.DoubleValue
11.401

@<SCITEGIC>MOL_PROPERTY
Idih
SciTegic.value.DoubleValue
0.000

@<SCITEGIC>MOL_PROPERTY
Tether
SciTegic.value.DoubleValue
0.000

@<TRIPOS>MOLECULE
guest-s17_confgen4.mol2 : confsearch ligand conformer 696
          25          25           1
SMALL
USER_CHARGES
 
@<TRIPOS>ATOM
       1    C1      21.019112   20.727789   23.791292 C.3        1 MOL1        -0.1684
       2    H1      21.963869   21.222487   23.528203 H          1 MOL1         0.0833
       3    H2      20.665992   21.229475   24.702630 H          1 MOL1         0.0833
       4    C2      21.309995   19.247517   24.149945 C.3        1 MOL1        -0.1684
       5    H3      22.047383   18.820848   23.460732 H          1 MOL1         0.0833
       6    H4      21.815311   19.245676   25.125498 H          1 MOL1         0.0833
       7    C3      20.063848   18.330205   24.250963 C.3        1 MOL1        -0.1684
       8    H5      19.163863   18.911160   24.490365 H          1 MOL1         0.0833
       9    H6      20.212676   17.664808   25.112393 H          1 MOL1         0.0833
      10    C4      19.821479   17.423103   23.014259 C.3        1 MOL1        -0.1760
      11    H7      20.721532   16.823638   22.825150 H          1 MOL1         0.0833
      12    H8      19.035837   16.704371   23.283379 H          1 MOL1         0.0833
      13    C5      19.386099   18.127422   21.704576 C.3        1 MOL1         0.1219
      14    H9      18.503816   18.749922   21.904435 H          1 MOL1         0.0790
      15    C6      20.494534   18.988251   21.045094 C.3        1 MOL1        -0.1760
      16    H10     21.482755   18.652573   21.375669 H          1 MOL1         0.0833
      17    H11     20.491159   18.813868   19.960569 H          1 MOL1         0.0833
      18    C7      20.350729   20.517920   21.256531 C.3        1 MOL1        -0.1684
      19    H12     19.574202   20.880590   20.569125 H          1 MOL1         0.0833
      20    H13     21.280639   21.010535   20.941736 H          1 MOL1         0.0833
      21    C8      19.973580   20.998072   22.680427 C.3        1 MOL1        -0.1684
      22    H14     18.994711   20.601580   22.973362 H          1 MOL1         0.0833
      23    H15     19.826693   22.085543   22.629081 H          1 MOL1         0.0833
      24    O1      19.006581   17.111331   20.784965 O.3        1 MOL1        -0.5508
      25    H16     19.806347   16.568932   20.626467 H          1 MOL1         0.3780
@<TRIPOS>BOND
    1     1     2    1
    2     1     3    1
    3     1     4    1
    4     4     5    1
    5     4     6    1
    6     4     7    1
    7     7     8    1
    8     7     9    1
    9     7    10    1
   10    10    11    1
   11    10    12    1
   12    10    13    1
   13    13    14    1
   14    13    15    1
   15    15    16    1
   16    15    17    1
   17    15    18    1
   18    18    19    1
   19    18    20    1
   20     1    21    1
   21    18    21    1
   22    21    22    1
   23    21    23    1
   24    13    24    1
   25    24    25    1
@<TRIPOS>SUBSTRUCTURE
       1 MOL1            1 RESIDUE      1      MOL     
@<SCITEGIC>MOL_PROPERTY
VConf Rank
SciTegic.value.IntegerValue
696

@<SCITEGIC>MOL_PROPERTY
Conf_Id
SciTegic.value.IntegerValue
68

@<SCITEGIC>MOL_PROPERTY
Delta U+W
SciTegic.value.DoubleValue
-1.765

@<SCITEGIC>MOL_PROPERTY
U+W
SciTegic.value.DoubleValue
9.148

@<SCITEGIC>MOL_PROPERTY
Grad RMS
SciTegic.value.DoubleValue
0.000000

@<SCITEGIC>MOL_PROPERTY
U
SciTegic.value.DoubleValue
11.181

@<SCITEGIC>MOL_PROPERTY
W
SciTegic.value.DoubleValue
-2.032

@<SCITEGIC>MOL_PROPERTY
W(PB)
SciTegic.value.DoubleValue
-4.147

@<SCITEGIC>MOL_PROPERTY
W(SA)
SciTegic.value.DoubleValue
2.114

@<SCITEGIC>MOL_PROPERTY
Valence
SciTegic.value.DoubleValue
16.955

@<SCITEGIC>MOL_PROPERTY
Coulomb
SciTegic.value.DoubleValue
-8.661

@<SCITEGIC>MOL_PROPERTY
VdW
SciTegic.value.DoubleValue
2.887

@<SCITEGIC>MOL_PROPERTY
VdW6
SciTegic.value.DoubleValue
-12.561

@<SCITEGIC>MOL_PROPERTY
VdW12
SciTegic.value.DoubleValue
15.448

@<SCITEGIC>MOL_PROPERTY
Bond
SciTegic.value.DoubleValue
0.433

@<SCITEGIC>MOL_PROPERTY
Angle
SciTegic.value.DoubleValue
5.121

@<SCITEGIC>MOL_PROPERTY
Pdih
SciTegic.value.DoubleValue
11.402

@<SCITEGIC>MOL_PROPERTY
Idih
SciTegic.value.DoubleValue
0.000

@<SCITEGIC>MOL_PROPERTY
Tether
SciTegic.value.DoubleValue
0.000

@<TRIPOS>MOLECULE
guest-s17_confgen4.mol2 : confsearch ligand conformer 697
          25          25           1
SMALL
USER_CHARGES
 
@<TRIPOS>ATOM
       1    C1      21.414529   20.196782   23.707132 C.3        1 MOL1        -0.1684
       2    H1      22.191928   20.716172   24.284160 H          1 MOL1         0.0833
       3    H2      20.473036   20.536927   24.152984 H          1 MOL1         0.0833
       4    C2      21.597893   18.671198   23.917541 C.3        1 MOL1        -0.1684
       5    H3      22.198375   18.229948   23.111728 H          1 MOL1         0.0833
       6    H4      22.196770   18.533304   24.828228 H          1 MOL1         0.0833
       7    C3      20.279607   17.878628   24.118929 C.3        1 MOL1        -0.1684
       8    H5      19.720216   18.309757   24.960525 H          1 MOL1         0.0833
       9    H6      20.547137   16.860814   24.434072 H          1 MOL1         0.0833
      10    C4      19.342628   17.760522   22.887395 C.3        1 MOL1        -0.1760
      11    H7      19.875670   17.303928   22.044812 H          1 MOL1         0.0833
      12    H8      18.557291   17.040897   23.155716 H          1 MOL1         0.0833
      13    C5      18.669489   19.091171   22.461784 C.3        1 MOL1         0.1219
      14    H9      18.700610   19.792597   23.303554 H          1 MOL1         0.0790
      15    C6      19.294989   19.765136   21.215764 C.3        1 MOL1        -0.1760
      16    H10     18.951005   19.230226   20.320710 H          1 MOL1         0.0833
      17    H11     18.890157   20.782092   21.132127 H          1 MOL1         0.0833
      18    C7      20.842606   19.831724   21.148606 C.3        1 MOL1        -0.1684
      19    H12     21.109218   20.266290   20.175573 H          1 MOL1         0.0833
      20    H13     21.269231   18.822359   21.126667 H          1 MOL1         0.0833
      21    C8      21.535375   20.685285   22.240231 C.3        1 MOL1        -0.1684
      22    H14     21.171615   21.719880   22.177943 H          1 MOL1         0.0833
      23    H15     22.604199   20.731828   21.990338 H          1 MOL1         0.0833
      24    O1      17.302308   18.833086   22.167013 O.3        1 MOL1        -0.5508
      25    H16     17.294718   18.192584   21.426345 H          1 MOL1         0.3780
@<TRIPOS>BOND
    1     1     2    1
    2     1     3    1
    3     1     4    1
    4     4     5    1
    5     4     6    1
    6     4     7    1
    7     7     8    1
    8     7     9    1
    9     7    10    1
   10    10    11    1
   11    10    12    1
   12    10    13    1
   13    13    14    1
   14    13    15    1
   15    15    16    1
   16    15    17    1
   17    15    18    1
   18    18    19    1
   19    18    20    1
   20     1    21    1
   21    18    21    1
   22    21    22    1
   23    21    23    1
   24    13    24    1
   25    24    25    1
@<TRIPOS>SUBSTRUCTURE
       1 MOL1            1 RESIDUE      1      MOL     
@<SCITEGIC>MOL_PROPERTY
VConf Rank
SciTegic.value.IntegerValue
697

@<SCITEGIC>MOL_PROPERTY
Conf_Id
SciTegic.value.IntegerValue
165

@<SCITEGIC>MOL_PROPERTY
Delta U+W
SciTegic.value.DoubleValue
-1.999

@<SCITEGIC>MOL_PROPERTY
U+W
SciTegic.value.DoubleValue
8.915

@<SCITEGIC>MOL_PROPERTY
Grad RMS
SciTegic.value.DoubleValue
0.000000

@<SCITEGIC>MOL_PROPERTY
U
SciTegic.value.DoubleValue
10.935

@<SCITEGIC>MOL_PROPERTY
W
SciTegic.value.DoubleValue
-2.020

@<SCITEGIC>MOL_PROPERTY
W(PB)
SciTegic.value.DoubleValue
-4.135

@<SCITEGIC>MOL_PROPERTY
W(SA)
SciTegic.value.DoubleValue
2.115

@<SCITEGIC>MOL_PROPERTY
Valence
SciTegic.value.DoubleValue
16.757

@<SCITEGIC>MOL_PROPERTY
Coulomb
SciTegic.value.DoubleValue
-8.731

@<SCITEGIC>MOL_PROPERTY
VdW
SciTegic.value.DoubleValue
2.908

@<SCITEGIC>MOL_PROPERTY
VdW6
SciTegic.value.DoubleValue
-12.597

@<SCITEGIC>MOL_PROPERTY
VdW12
SciTegic.value.DoubleValue
15.506

@<SCITEGIC>MOL_PROPERTY
Bond
SciTegic.value.DoubleValue
0.434

@<SCITEGIC>MOL_PROPERTY
Angle
SciTegic.value.DoubleValue
5.069

@<SCITEGIC>MOL_PROPERTY
Pdih
SciTegic.value.DoubleValue
11.254

@<SCITEGIC>MOL_PROPERTY
Idih
SciTegic.value.DoubleValue
0.000

@<SCITEGIC>MOL_PROPERTY
Tether
SciTegic.value.DoubleValue
0.000

@<TRIPOS>MOLECULE
guest-s17_confgen4.mol2 : confsearch ligand conformer 698
          25          25           1
SMALL
USER_CHARGES
 
@<TRIPOS>ATOM
       1    C1      20.114379   20.774616   23.541231 C.3        1 MOL1        -0.1684
       2    H1      20.076403   21.756442   24.032820 H          1 MOL1         0.0833
       3    H2      19.135090   20.329191   23.749540 H          1 MOL1         0.0833
       4    C2      21.243921   19.965522   24.230400 C.3        1 MOL1        -0.1684
       5    H3      22.092711   20.644902   24.388527 H          1 MOL1         0.0833
       6    H4      20.909971   19.670820   25.234489 H          1 MOL1         0.0833
       7    C3      21.782846   18.720083   23.482884 C.3        1 MOL1        -0.1684
       8    H5      22.632607   18.333182   24.061602 H          1 MOL1         0.0833
       9    H6      22.215219   19.011939   22.518951 H          1 MOL1         0.0833
      10    C4      20.781416   17.551224   23.295966 C.3        1 MOL1        -0.1760
      11    H7      21.334905   16.711695   22.853976 H          1 MOL1         0.0833
      12    H8      20.448882   17.207880   24.284022 H          1 MOL1         0.0833
      13    C5      19.533837   17.822586   22.419799 C.3        1 MOL1         0.1219
      14    H9      18.801069   18.394472   23.001053 H          1 MOL1         0.0790
      15    C6      19.825081   18.575973   21.096255 C.3        1 MOL1        -0.1760
      16    H10     20.872402   18.449627   20.797469 H          1 MOL1         0.0833
      17    H11     19.240503   18.105992   20.293810 H          1 MOL1         0.0833
      18    C7      19.442000   20.079960   21.112450 C.3        1 MOL1        -0.1684
      19    H12     18.382080   20.181419   21.383121 H          1 MOL1         0.0833
      20    H13     19.520118   20.455600   20.083098 H          1 MOL1         0.0833
      21    C8      20.295389   21.006197   22.018365 C.3        1 MOL1        -0.1684
      22    H14     19.986613   22.038206   21.802438 H          1 MOL1         0.0833
      23    H15     21.354558   20.960022   21.734397 H          1 MOL1         0.0833
      24    O1      18.952851   16.562334   22.103993 O.3        1 MOL1        -0.5508
      25    H16     18.738686   16.128701   22.956363 H          1 MOL1         0.3780
@<TRIPOS>BOND
    1     1     2    1
    2     1     3    1
    3     1     4    1
    4     4     5    1
    5     4     6    1
    6     4     7    1
    7     7     8    1
    8     7     9    1
    9     7    10    1
   10    10    11    1
   11    10    12    1
   12    10    13    1
   13    13    14    1
   14    13    15    1
   15    15    16    1
   16    15    17    1
   17    15    18    1
   18    18    19    1
   19    18    20    1
   20     1    21    1
   21    18    21    1
   22    21    22    1
   23    21    23    1
   24    13    24    1
   25    24    25    1
@<TRIPOS>SUBSTRUCTURE
       1 MOL1            1 RESIDUE      1      MOL     
@<SCITEGIC>MOL_PROPERTY
VConf Rank
SciTegic.value.IntegerValue
698

@<SCITEGIC>MOL_PROPERTY
Conf_Id
SciTegic.value.IntegerValue
133

@<SCITEGIC>MOL_PROPERTY
Delta U+W
SciTegic.value.DoubleValue
-2.139

@<SCITEGIC>MOL_PROPERTY
U+W
SciTegic.value.DoubleValue
8.774

@<SCITEGIC>MOL_PROPERTY
Grad RMS
SciTegic.value.DoubleValue
0.000000

@<SCITEGIC>MOL_PROPERTY
U
SciTegic.value.DoubleValue
10.905

@<SCITEGIC>MOL_PROPERTY
W
SciTegic.value.DoubleValue
-2.131

@<SCITEGIC>MOL_PROPERTY
W(PB)
SciTegic.value.DoubleValue
-4.281

@<SCITEGIC>MOL_PROPERTY
W(SA)
SciTegic.value.DoubleValue
2.150

@<SCITEGIC>MOL_PROPERTY
Valence
SciTegic.value.DoubleValue
16.378

@<SCITEGIC>MOL_PROPERTY
Coulomb
SciTegic.value.DoubleValue
-8.448

@<SCITEGIC>MOL_PROPERTY
VdW
SciTegic.value.DoubleValue
2.976

@<SCITEGIC>MOL_PROPERTY
VdW6
SciTegic.value.DoubleValue
-12.570

@<SCITEGIC>MOL_PROPERTY
VdW12
SciTegic.value.DoubleValue
15.545

@<SCITEGIC>MOL_PROPERTY
Bond
SciTegic.value.DoubleValue
0.439

@<SCITEGIC>MOL_PROPERTY
Angle
SciTegic.value.DoubleValue
5.049

@<SCITEGIC>MOL_PROPERTY
Pdih
SciTegic.value.DoubleValue
10.889

@<SCITEGIC>MOL_PROPERTY
Idih
SciTegic.value.DoubleValue
0.000

@<SCITEGIC>MOL_PROPERTY
Tether
SciTegic.value.DoubleValue
0.000

@<TRIPOS>MOLECULE
guest-s17_confgen4.mol2 : confsearch ligand conformer 699
          25          25           1
SMALL
USER_CHARGES
 
@<TRIPOS>ATOM
       1    C1      18.602102   18.607316   22.303677 C.3        1 MOL1        -0.1684
       2    H1      17.579672   18.304182   22.039418 H          1 MOL1         0.0833
       3    H2      18.906177   17.891188   23.075366 H          1 MOL1         0.0833
       4    C2      18.542339   20.043687   22.885732 C.3        1 MOL1        -0.1684
       5    H3      18.740817   20.793656   22.109355 H          1 MOL1         0.0833
       6    H4      17.506883   20.228403   23.203097 H          1 MOL1         0.0833
       7    C3      19.444551   20.282632   24.125003 C.3        1 MOL1        -0.1684
       8    H5      19.192631   19.551673   24.905531 H          1 MOL1         0.0833
       9    H6      19.182393   21.263411   24.544669 H          1 MOL1         0.0833
      10    C4      20.977732   20.267069   23.883959 C.3        1 MOL1        -0.1760
      11    H7      21.255486   21.012705   23.129639 H          1 MOL1         0.0833
      12    H8      21.450829   20.611359   24.813569 H          1 MOL1         0.0833
      13    C5      21.559441   18.875354   23.524892 C.3        1 MOL1         0.1219
      14    H9      20.851204   18.100957   23.842013 H          1 MOL1         0.0790
      15    C6      21.890293   18.681671   22.024635 C.3        1 MOL1        -0.1760
      16    H10     22.828257   19.211105   21.809139 H          1 MOL1         0.0833
      17    H11     22.094508   17.618420   21.844325 H          1 MOL1         0.0833
      18    C7      20.835521   19.170052   20.998495 C.3        1 MOL1        -0.1684
      19    H12     21.262282   19.024911   19.996742 H          1 MOL1         0.0833
      20    H13     20.691685   20.253310   21.083088 H          1 MOL1         0.0833
      21    C8      19.468523   18.441500   21.028029 C.3        1 MOL1        -0.1684
      22    H14     19.622934   17.370623   20.838430 H          1 MOL1         0.0833
      23    H15     18.882232   18.811268   20.175656 H          1 MOL1         0.0833
      24    O1      22.766715   18.688138   24.254927 O.3        1 MOL1        -0.5508
      25    H16     23.087161   17.786324   24.044017 H          1 MOL1         0.3780
@<TRIPOS>BOND
    1     1     2    1
    2     1     3    1
    3     1     4    1
    4     4     5    1
    5     4     6    1
    6     4     7    1
    7     7     8    1
    8     7     9    1
    9     7    10    1
   10    10    11    1
   11    10    12    1
   12    10    13    1
   13    13    14    1
   14    13    15    1
   15    15    16    1
   16    15    17    1
   17    15    18    1
   18    18    19    1
   19    18    20    1
   20     1    21    1
   21    18    21    1
   22    21    22    1
   23    21    23    1
   24    13    24    1
   25    24    25    1
@<TRIPOS>SUBSTRUCTURE
       1 MOL1            1 RESIDUE      1      MOL     
@<SCITEGIC>MOL_PROPERTY
VConf Rank
SciTegic.value.IntegerValue
699

@<SCITEGIC>MOL_PROPERTY
Conf_Id
SciTegic.value.IntegerValue
95

@<SCITEGIC>MOL_PROPERTY
Delta U+W
SciTegic.value.DoubleValue
-2.190

@<SCITEGIC>MOL_PROPERTY
U+W
SciTegic.value.DoubleValue
8.723

@<SCITEGIC>MOL_PROPERTY
Grad RMS
SciTegic.value.DoubleValue
0.000000

@<SCITEGIC>MOL_PROPERTY
U
SciTegic.value.DoubleValue
10.905

@<SCITEGIC>MOL_PROPERTY
W
SciTegic.value.DoubleValue
-2.182

@<SCITEGIC>MOL_PROPERTY
W(PB)
SciTegic.value.DoubleValue
-4.296

@<SCITEGIC>MOL_PROPERTY
W(SA)
SciTegic.value.DoubleValue
2.114

@<SCITEGIC>MOL_PROPERTY
Valence
SciTegic.value.DoubleValue
16.377

@<SCITEGIC>MOL_PROPERTY
Coulomb
SciTegic.value.DoubleValue
-8.448

@<SCITEGIC>MOL_PROPERTY
VdW
SciTegic.value.DoubleValue
2.976

@<SCITEGIC>MOL_PROPERTY
VdW6
SciTegic.value.DoubleValue
-12.570

@<SCITEGIC>MOL_PROPERTY
VdW12
SciTegic.value.DoubleValue
15.546

@<SCITEGIC>MOL_PROPERTY
Bond
SciTegic.value.DoubleValue
0.439

@<SCITEGIC>MOL_PROPERTY
Angle
SciTegic.value.DoubleValue
5.049

@<SCITEGIC>MOL_PROPERTY
Pdih
SciTegic.value.DoubleValue
10.889

@<SCITEGIC>MOL_PROPERTY
Idih
SciTegic.value.DoubleValue
0.000

@<SCITEGIC>MOL_PROPERTY
Tether
SciTegic.value.DoubleValue
0.000

@<TRIPOS>MOLECULE
guest-s17_confgen4.mol2 : confsearch ligand conformer 700
          25          25           1
SMALL
USER_CHARGES
 
@<TRIPOS>ATOM
       1    C1      21.123002   19.494117   21.065567 C.3        1 MOL1        -0.1684
       2    H1      21.513791   19.719167   20.063799 H          1 MOL1         0.0833
       3    H2      21.898463   18.857634   21.503498 H          1 MOL1         0.0833
       4    C2      19.796931   18.702080   20.869528 C.3        1 MOL1        -0.1684
       5    H3      19.307226   19.100303   19.970335 H          1 MOL1         0.0833
       6    H4      20.037758   17.657065   20.632006 H          1 MOL1         0.0833
       7    C3      18.745299   18.739213   22.009346 C.3        1 MOL1        -0.1684
       8    H5      17.842188   18.230755   21.645094 H          1 MOL1         0.0833
       9    H6      18.413873   19.771165   22.161855 H          1 MOL1         0.0833
      10    C4      19.131487   18.074458   23.364146 C.3        1 MOL1        -0.1760
      11    H7      18.487331   18.480685   24.154977 H          1 MOL1         0.0833
      12    H8      18.870644   17.010929   23.285845 H          1 MOL1         0.0833
      13    C5      20.609164   18.152235   23.824705 C.3        1 MOL1         0.1219
      14    H9      21.231717   17.701706   23.044789 H          1 MOL1         0.0790
      15    C6      21.162623   19.561534   24.182685 C.3        1 MOL1        -0.1760
      16    H10     20.913895   19.765476   25.232856 H          1 MOL1         0.0833
      17    H11     22.258534   19.521869   24.141521 H          1 MOL1         0.0833
      18    C7      20.671113   20.781949   23.358050 C.3        1 MOL1        -0.1684
      19    H12     21.084727   21.686094   23.825122 H          1 MOL1         0.0833
      20    H13     19.590767   20.896847   23.491178 H          1 MOL1         0.0833
      21    C8      21.051600   20.831275   21.849308 C.3        1 MOL1        -0.1684
      22    H14     22.043010   21.298756   21.775593 H          1 MOL1         0.0833
      23    H15     20.366288   21.516621   21.332499 H          1 MOL1         0.0833
      24    O1      20.735419   17.340858   24.986746 O.3        1 MOL1        -0.5508
      25    H16     20.446230   16.439156   24.735030 H          1 MOL1         0.3780
@<TRIPOS>BOND
    1     1     2    1
    2     1     3    1
    3     1     4    1
    4     4     5    1
    5     4     6    1
    6     4     7    1
    7     7     8    1
    8     7     9    1
    9     7    10    1
   10    10    11    1
   11    10    12    1
   12    10    13    1
   13    13    14    1
   14    13    15    1
   15    15    16    1
   16    15    17    1
   17    15    18    1
   18    18    19    1
   19    18    20    1
   20     1    21    1
   21    18    21    1
   22    21    22    1
   23    21    23    1
   24    13    24    1
   25    24    25    1
@<TRIPOS>SUBSTRUCTURE
       1 MOL1            1 RESIDUE      1      MOL     
@<SCITEGIC>MOL_PROPERTY
VConf Rank
SciTegic.value.IntegerValue
700

@<SCITEGIC>MOL_PROPERTY
Conf_Id
SciTegic.value.IntegerValue
161

@<SCITEGIC>MOL_PROPERTY
Delta U+W
SciTegic.value.DoubleValue
2.120

@<SCITEGIC>MOL_PROPERTY
U+W
SciTegic.value.DoubleValue
13.033

@<SCITEGIC>MOL_PROPERTY
Grad RMS
SciTegic.value.DoubleValue
0.000000

@<SCITEGIC>MOL_PROPERTY
U
SciTegic.value.DoubleValue
15.076

@<SCITEGIC>MOL_PROPERTY
W
SciTegic.value.DoubleValue
-2.043

@<SCITEGIC>MOL_PROPERTY
W(PB)
SciTegic.value.DoubleValue
-4.186

@<SCITEGIC>MOL_PROPERTY
W(SA)
SciTegic.value.DoubleValue
2.143

@<SCITEGIC>MOL_PROPERTY
Valence
SciTegic.value.DoubleValue
18.884

@<SCITEGIC>MOL_PROPERTY
Coulomb
SciTegic.value.DoubleValue
-8.074

@<SCITEGIC>MOL_PROPERTY
VdW
SciTegic.value.DoubleValue
4.266

@<SCITEGIC>MOL_PROPERTY
VdW6
SciTegic.value.DoubleValue
-13.486

@<SCITEGIC>MOL_PROPERTY
VdW12
SciTegic.value.DoubleValue
17.752

@<SCITEGIC>MOL_PROPERTY
Bond
SciTegic.value.DoubleValue
0.713

@<SCITEGIC>MOL_PROPERTY
Angle
SciTegic.value.DoubleValue
8.955

@<SCITEGIC>MOL_PROPERTY
Pdih
SciTegic.value.DoubleValue
9.215

@<SCITEGIC>MOL_PROPERTY
Idih
SciTegic.value.DoubleValue
0.000

@<SCITEGIC>MOL_PROPERTY
Tether
SciTegic.value.DoubleValue
0.000

@<TRIPOS>MOLECULE
guest-s17_confgen4.mol2 : confsearch ligand conformer 701
          25          25           1
SMALL
USER_CHARGES
 
@<TRIPOS>ATOM
       1    C1      20.879903   18.014751   24.111211 C.3        1 MOL1        -0.1684
       2    H1      21.162335   17.164159   24.746595 H          1 MOL1         0.0833
       3    H2      20.751131   18.853062   24.807550 H          1 MOL1         0.0833
       4    C2      19.528065   17.677856   23.433926 C.3        1 MOL1        -0.1684
       5    H3      19.686745   17.114469   22.504624 H          1 MOL1         0.0833
       6    H4      18.999224   16.987293   24.105210 H          1 MOL1         0.0833
       7    C3      18.584149   18.890531   23.202038 C.3        1 MOL1        -0.1684
       8    H5      18.643404   19.603946   24.034993 H          1 MOL1         0.0833
       9    H6      17.556781   18.501737   23.225600 H          1 MOL1         0.0833
      10    C4      18.758360   19.615234   21.842284 C.3        1 MOL1        -0.1760
      11    H7      19.029739   18.889610   21.065887 H          1 MOL1         0.0833
      12    H8      17.774633   19.998109   21.540091 H          1 MOL1         0.0833
      13    C5      19.724616   20.826863   21.830650 C.3        1 MOL1         0.1219
      14    H9      19.251700   21.641051   22.398296 H          1 MOL1         0.0790
      15    C6      21.127848   20.593907   22.436914 C.3        1 MOL1        -0.1760
      16    H10     21.768240   21.441356   22.157967 H          1 MOL1         0.0833
      17    H11     21.058116   20.652619   23.528450 H          1 MOL1         0.0833
      18    C7      21.820366   19.276666   21.995864 C.3        1 MOL1        -0.1684
      19    H12     22.789014   19.522343   21.539693 H          1 MOL1         0.0833
      20    H13     21.254053   18.776548   21.201967 H          1 MOL1         0.0833
      21    C8      22.070552   18.278833   23.151900 C.3        1 MOL1        -0.1684
      22    H14     22.918732   18.638016   23.750555 H          1 MOL1         0.0833
      23    H15     22.395041   17.323462   22.717442 H          1 MOL1         0.0833
      24    O1      19.888124   21.244125   20.482495 O.3        1 MOL1        -0.5508
      25    H16     20.432074   20.553511   20.052402 H          1 MOL1         0.3780
@<TRIPOS>BOND
    1     1     2    1
    2     1     3    1
    3     1     4    1
    4     4     5    1
    5     4     6    1
    6     4     7    1
    7     7     8    1
    8     7     9    1
    9     7    10    1
   10    10    11    1
   11    10    12    1
   12    10    13    1
   13    13    14    1
   14    13    15    1
   15    15    16    1
   16    15    17    1
   17    15    18    1
   18    18    19    1
   19    18    20    1
   20     1    21    1
   21    18    21    1
   22    21    22    1
   23    21    23    1
   24    13    24    1
   25    24    25    1
@<TRIPOS>SUBSTRUCTURE
       1 MOL1            1 RESIDUE      1      MOL     
@<SCITEGIC>MOL_PROPERTY
VConf Rank
SciTegic.value.IntegerValue
701

@<SCITEGIC>MOL_PROPERTY
Conf_Id
SciTegic.value.IntegerValue
164

@<SCITEGIC>MOL_PROPERTY
Delta U+W
SciTegic.value.DoubleValue
0.008

@<SCITEGIC>MOL_PROPERTY
U+W
SciTegic.value.DoubleValue
10.922

@<SCITEGIC>MOL_PROPERTY
Grad RMS
SciTegic.value.DoubleValue
0.000000

@<SCITEGIC>MOL_PROPERTY
U
SciTegic.value.DoubleValue
12.433

@<SCITEGIC>MOL_PROPERTY
W
SciTegic.value.DoubleValue
-1.511

@<SCITEGIC>MOL_PROPERTY
W(PB)
SciTegic.value.DoubleValue
-3.669

@<SCITEGIC>MOL_PROPERTY
W(SA)
SciTegic.value.DoubleValue
2.157

@<SCITEGIC>MOL_PROPERTY
Valence
SciTegic.value.DoubleValue
19.007

@<SCITEGIC>MOL_PROPERTY
Coulomb
SciTegic.value.DoubleValue
-9.373

@<SCITEGIC>MOL_PROPERTY
VdW
SciTegic.value.DoubleValue
2.799

@<SCITEGIC>MOL_PROPERTY
VdW6
SciTegic.value.DoubleValue
-12.597

@<SCITEGIC>MOL_PROPERTY
VdW12
SciTegic.value.DoubleValue
15.396

@<SCITEGIC>MOL_PROPERTY
Bond
SciTegic.value.DoubleValue
0.425

@<SCITEGIC>MOL_PROPERTY
Angle
SciTegic.value.DoubleValue
4.784

@<SCITEGIC>MOL_PROPERTY
Pdih
SciTegic.value.DoubleValue
13.799

@<SCITEGIC>MOL_PROPERTY
Idih
SciTegic.value.DoubleValue
0.000

@<SCITEGIC>MOL_PROPERTY
Tether
SciTegic.value.DoubleValue
0.000

@<TRIPOS>MOLECULE
guest-s17_confgen4.mol2 : confsearch ligand conformer 702
          25          25           1
SMALL
USER_CHARGES
 
@<TRIPOS>ATOM
       1    C1      20.763251   20.954201   22.377405 C.3        1 MOL1        -0.1684
       2    H1      21.618611   20.378983   22.005376 H          1 MOL1         0.0833
       3    H2      21.045098   22.003662   22.216573 H          1 MOL1         0.0833
       4    C2      20.598272   20.751313   23.904277 C.3        1 MOL1        -0.1684
       5    H3      21.524043   21.097449   24.383902 H          1 MOL1         0.0833
       6    H4      19.805763   21.415377   24.275029 H          1 MOL1         0.0833
       7    C3      20.318772   19.309328   24.399575 C.3        1 MOL1        -0.1684
       8    H5      19.251024   19.075337   24.320680 H          1 MOL1         0.0833
       9    H6      20.524696   19.291879   25.478600 H          1 MOL1         0.0833
      10    C4      21.170299   18.200448   23.725730 C.3        1 MOL1        -0.1760
      11    H7      22.108754   18.610212   23.333079 H          1 MOL1         0.0833
      12    H8      21.468516   17.494759   24.512691 H          1 MOL1         0.0833
      13    C5      20.430501   17.380093   22.639365 C.3        1 MOL1         0.1219
      14    H9      19.497719   16.995891   23.076292 H          1 MOL1         0.0790
      15    C6      20.077768   18.126431   21.328244 C.3        1 MOL1        -0.1760
      16    H10     20.980291   18.533749   20.856732 H          1 MOL1         0.0833
      17    H11     19.696491   17.374705   20.624131 H          1 MOL1         0.0833
      18    C7      18.984914   19.218972   21.472484 C.3        1 MOL1        -0.1684
      19    H12     18.348997   19.014231   22.341250 H          1 MOL1         0.0833
      20    H13     18.306826   19.141653   20.611541 H          1 MOL1         0.0833
      21    C8      19.508303   20.677477   21.512391 C.3        1 MOL1        -0.1684
      22    H14     18.693091   21.340005   21.833317 H          1 MOL1         0.0833
      23    H15     19.746225   20.977020   20.482552 H          1 MOL1         0.0833
      24    O1      21.255916   16.275144   22.297344 O.3        1 MOL1        -0.5508
      25    H16     22.074498   16.650490   21.912861 H          1 MOL1         0.3780
@<TRIPOS>BOND
    1     1     2    1
    2     1     3    1
    3     1     4    1
    4     4     5    1
    5     4     6    1
    6     4     7    1
    7     7     8    1
    8     7     9    1
    9     7    10    1
   10    10    11    1
   11    10    12    1
   12    10    13    1
   13    13    14    1
   14    13    15    1
   15    15    16    1
   16    15    17    1
   17    15    18    1
   18    18    19    1
   19    18    20    1
   20     1    21    1
   21    18    21    1
   22    21    22    1
   23    21    23    1
   24    13    24    1
   25    24    25    1
@<TRIPOS>SUBSTRUCTURE
       1 MOL1            1 RESIDUE      1      MOL     
@<SCITEGIC>MOL_PROPERTY
VConf Rank
SciTegic.value.IntegerValue
702

@<SCITEGIC>MOL_PROPERTY
Conf_Id
SciTegic.value.IntegerValue
15

@<SCITEGIC>MOL_PROPERTY
Delta U+W
SciTegic.value.DoubleValue
-1.271

@<SCITEGIC>MOL_PROPERTY
U+W
SciTegic.value.DoubleValue
9.643

@<SCITEGIC>MOL_PROPERTY
Grad RMS
SciTegic.value.DoubleValue
0.000000

@<SCITEGIC>MOL_PROPERTY
U
SciTegic.value.DoubleValue
11.413

@<SCITEGIC>MOL_PROPERTY
W
SciTegic.value.DoubleValue
-1.770

@<SCITEGIC>MOL_PROPERTY
W(PB)
SciTegic.value.DoubleValue
-3.908

@<SCITEGIC>MOL_PROPERTY
W(SA)
SciTegic.value.DoubleValue
2.138

@<SCITEGIC>MOL_PROPERTY
Valence
SciTegic.value.DoubleValue
17.496

@<SCITEGIC>MOL_PROPERTY
Coulomb
SciTegic.value.DoubleValue
-8.736

@<SCITEGIC>MOL_PROPERTY
VdW
SciTegic.value.DoubleValue
2.653

@<SCITEGIC>MOL_PROPERTY
VdW6
SciTegic.value.DoubleValue
-12.485

@<SCITEGIC>MOL_PROPERTY
VdW12
SciTegic.value.DoubleValue
15.138

@<SCITEGIC>MOL_PROPERTY
Bond
SciTegic.value.DoubleValue
0.414

@<SCITEGIC>MOL_PROPERTY
Angle
SciTegic.value.DoubleValue
5.295

@<SCITEGIC>MOL_PROPERTY
Pdih
SciTegic.value.DoubleValue
11.787

@<SCITEGIC>MOL_PROPERTY
Idih
SciTegic.value.DoubleValue
0.000

@<SCITEGIC>MOL_PROPERTY
Tether
SciTegic.value.DoubleValue
0.000

@<TRIPOS>MOLECULE
guest-s17_confgen4.mol2 : confsearch ligand conformer 703
          25          25           1
SMALL
USER_CHARGES
 
@<TRIPOS>ATOM
       1    C1      20.952740   18.609275   24.353205 C.3        1 MOL1        -0.1684
       2    H1      21.114066   18.292079   25.392600 H          1 MOL1         0.0833
       3    H2      21.931657   18.973708   24.016938 H          1 MOL1         0.0833
       4    C2      20.534973   17.346912   23.553995 C.3        1 MOL1        -0.1684
       5    H3      21.393997   16.662809   23.523888 H          1 MOL1         0.0833
       6    H4      19.750717   16.816800   24.111398 H          1 MOL1         0.0833
       7    C3      20.032438   17.575438   22.108116 C.3        1 MOL1        -0.1684
       8    H5      18.993870   17.925560   22.131810 H          1 MOL1         0.0833
       9    H6      19.988133   16.600123   21.604544 H          1 MOL1         0.0833
      10    C4      20.923869   18.528783   21.270299 C.3        1 MOL1        -0.1760
      11    H7      21.855852   18.757984   21.798756 H          1 MOL1         0.0833
      12    H8      21.237957   18.000219   20.360813 H          1 MOL1         0.0833
      13    C5      20.227388   19.837484   20.831567 C.3        1 MOL1         0.1219
      14    H9      19.518306   19.584087   20.030429 H          1 MOL1         0.0790
      15    C6      19.429992   20.597757   21.922724 C.3        1 MOL1        -0.1760
      16    H10     19.150719   21.570596   21.496199 H          1 MOL1         0.0833
      17    H11     18.472874   20.095131   22.106583 H          1 MOL1         0.0833
      18    C7      20.153641   20.855681   23.271370 C.3        1 MOL1        -0.1684
      19    H12     19.750019   21.795681   23.672158 H          1 MOL1         0.0833
      20    H13     21.224065   21.043838   23.117737 H          1 MOL1         0.0833
      21    C8      19.929406   19.771725   24.361571 C.3        1 MOL1        -0.1684
      22    H14     18.901125   19.386940   24.333945 H          1 MOL1         0.0833
      23    H15     20.025531   20.273961   25.334040 H          1 MOL1         0.0833
      24    O1      21.216288   20.711266   20.305269 O.3        1 MOL1        -0.5508
      25    H16     21.765016   20.984709   21.067680 H          1 MOL1         0.3780
@<TRIPOS>BOND
    1     1     2    1
    2     1     3    1
    3     1     4    1
    4     4     5    1
    5     4     6    1
    6     4     7    1
    7     7     8    1
    8     7     9    1
    9     7    10    1
   10    10    11    1
   11    10    12    1
   12    10    13    1
   13    13    14    1
   14    13    15    1
   15    15    16    1
   16    15    17    1
   17    15    18    1
   18    18    19    1
   19    18    20    1
   20     1    21    1
   21    18    21    1
   22    21    22    1
   23    21    23    1
   24    13    24    1
   25    24    25    1
@<TRIPOS>SUBSTRUCTURE
       1 MOL1            1 RESIDUE      1      MOL     
@<SCITEGIC>MOL_PROPERTY
VConf Rank
SciTegic.value.IntegerValue
703

@<SCITEGIC>MOL_PROPERTY
Conf_Id
SciTegic.value.IntegerValue
115

@<SCITEGIC>MOL_PROPERTY
Delta U+W
SciTegic.value.DoubleValue
0.038

@<SCITEGIC>MOL_PROPERTY
U+W
SciTegic.value.DoubleValue
10.952

@<SCITEGIC>MOL_PROPERTY
Grad RMS
SciTegic.value.DoubleValue
0.000000

@<SCITEGIC>MOL_PROPERTY
U
SciTegic.value.DoubleValue
12.526

@<SCITEGIC>MOL_PROPERTY
W
SciTegic.value.DoubleValue
-1.575

@<SCITEGIC>MOL_PROPERTY
W(PB)
SciTegic.value.DoubleValue
-3.698

@<SCITEGIC>MOL_PROPERTY
W(SA)
SciTegic.value.DoubleValue
2.123

@<SCITEGIC>MOL_PROPERTY
Valence
SciTegic.value.DoubleValue
19.016

@<SCITEGIC>MOL_PROPERTY
Coulomb
SciTegic.value.DoubleValue
-9.226

@<SCITEGIC>MOL_PROPERTY
VdW
SciTegic.value.DoubleValue
2.737

@<SCITEGIC>MOL_PROPERTY
VdW6
SciTegic.value.DoubleValue
-12.612

@<SCITEGIC>MOL_PROPERTY
VdW12
SciTegic.value.DoubleValue
15.349

@<SCITEGIC>MOL_PROPERTY
Bond
SciTegic.value.DoubleValue
0.421

@<SCITEGIC>MOL_PROPERTY
Angle
SciTegic.value.DoubleValue
4.883

@<SCITEGIC>MOL_PROPERTY
Pdih
SciTegic.value.DoubleValue
13.711

@<SCITEGIC>MOL_PROPERTY
Idih
SciTegic.value.DoubleValue
0.000

@<SCITEGIC>MOL_PROPERTY
Tether
SciTegic.value.DoubleValue
0.000

@<TRIPOS>MOLECULE
guest-s17_confgen4.mol2 : confsearch ligand conformer 704
          25          25           1
SMALL
USER_CHARGES
 
@<TRIPOS>ATOM
       1    C1      20.647919   21.093678   23.705763 C.3        1 MOL1        -0.1684
       2    H1      20.347201   21.906839   24.380541 H          1 MOL1         0.0833
       3    H2      21.729806   21.216452   23.561113 H          1 MOL1         0.0833
       4    C2      19.905357   21.308310   22.366334 C.3        1 MOL1        -0.1684
       5    H3      18.819569   21.307045   22.532638 H          1 MOL1         0.0833
       6    H4      20.148648   22.320251   22.014504 H          1 MOL1         0.0833
       7    C3      20.274784   20.312209   21.242856 C.3        1 MOL1        -0.1684
       8    H5      21.358422   20.134480   21.231950 H          1 MOL1         0.0833
       9    H6      20.049901   20.799858   20.284322 H          1 MOL1         0.0833
      10    C4      19.481040   18.978736   21.284802 C.3        1 MOL1        -0.1760
      11    H7      18.619376   19.048664   21.960415 H          1 MOL1         0.0833
      12    H8      19.055909   18.819306   20.284599 H          1 MOL1         0.0833
      13    C5      20.332434   17.739368   21.641243 C.3        1 MOL1         0.1219
      14    H9      21.331665   17.854522   21.197455 H          1 MOL1         0.0790
      15    C6      20.483332   17.475304   23.155817 C.3        1 MOL1        -0.1760
      16    H10     19.497446   17.296404   23.604829 H          1 MOL1         0.0833
      17    H11     21.040215   16.536548   23.274270 H          1 MOL1         0.0833
      18    C7      21.239100   18.569270   23.948737 C.3        1 MOL1        -0.1684
      19    H12     22.109697   18.921815   23.379699 H          1 MOL1         0.0833
      20    H13     21.653291   18.093471   24.848343 H          1 MOL1         0.0833
      21    C8      20.352103   19.752419   24.417137 C.3        1 MOL1        -0.1684
      22    H14     20.543741   19.902201   25.488605 H          1 MOL1         0.0833
      23    H15     19.284028   19.507791   24.345021 H          1 MOL1         0.0833
      24    O1      19.707839   16.596778   21.068515 O.3        1 MOL1        -0.5508
      25    H16     20.289019   15.831038   21.258792 H          1 MOL1         0.3780
@<TRIPOS>BOND
    1     1     2    1
    2     1     3    1
    3     1     4    1
    4     4     5    1
    5     4     6    1
    6     4     7    1
    7     7     8    1
    8     7     9    1
    9     7    10    1
   10    10    11    1
   11    10    12    1
   12    10    13    1
   13    13    14    1
   14    13    15    1
   15    15    16    1
   16    15    17    1
   17    15    18    1
   18    18    19    1
   19    18    20    1
   20     1    21    1
   21    18    21    1
   22    21    22    1
   23    21    23    1
   24    13    24    1
   25    24    25    1
@<TRIPOS>SUBSTRUCTURE
       1 MOL1            1 RESIDUE      1      MOL     
@<SCITEGIC>MOL_PROPERTY
VConf Rank
SciTegic.value.IntegerValue
704

@<SCITEGIC>MOL_PROPERTY
Conf_Id
SciTegic.value.IntegerValue
30

@<SCITEGIC>MOL_PROPERTY
Delta U+W
SciTegic.value.DoubleValue
0.000

@<SCITEGIC>MOL_PROPERTY
U+W
SciTegic.value.DoubleValue
10.913

@<SCITEGIC>MOL_PROPERTY
Grad RMS
SciTegic.value.DoubleValue
0.000000

@<SCITEGIC>MOL_PROPERTY
U
SciTegic.value.DoubleValue
13.140

@<SCITEGIC>MOL_PROPERTY
W
SciTegic.value.DoubleValue
-2.227

@<SCITEGIC>MOL_PROPERTY
W(PB)
SciTegic.value.DoubleValue
-4.367

@<SCITEGIC>MOL_PROPERTY
W(SA)
SciTegic.value.DoubleValue
2.140

@<SCITEGIC>MOL_PROPERTY
Valence
SciTegic.value.DoubleValue
19.155

@<SCITEGIC>MOL_PROPERTY
Coulomb
SciTegic.value.DoubleValue
-8.157

@<SCITEGIC>MOL_PROPERTY
VdW
SciTegic.value.DoubleValue
2.142

@<SCITEGIC>MOL_PROPERTY
VdW6
SciTegic.value.DoubleValue
-11.576

@<SCITEGIC>MOL_PROPERTY
VdW12
SciTegic.value.DoubleValue
13.718

@<SCITEGIC>MOL_PROPERTY
Bond
SciTegic.value.DoubleValue
0.294

@<SCITEGIC>MOL_PROPERTY
Angle
SciTegic.value.DoubleValue
3.547

@<SCITEGIC>MOL_PROPERTY
Pdih
SciTegic.value.DoubleValue
15.314

@<SCITEGIC>MOL_PROPERTY
Idih
SciTegic.value.DoubleValue
0.000

@<SCITEGIC>MOL_PROPERTY
Tether
SciTegic.value.DoubleValue
0.000

@<TRIPOS>MOLECULE
guest-s17_confgen4.mol2 : confsearch ligand conformer 705
          25          25           1
SMALL
USER_CHARGES
 
@<TRIPOS>ATOM
       1    C1      20.580864   17.792410   21.110306 C.3        1 MOL1        -0.1684
       2    H1      20.813969   16.718951   21.124633 H          1 MOL1         0.0833
       3    H2      20.567064   18.078905   20.049881 H          1 MOL1         0.0833
       4    C2      21.736542   18.555202   21.803588 C.3        1 MOL1        -0.1684
       5    H3      22.684600   18.132421   21.443986 H          1 MOL1         0.0833
       6    H4      21.749505   19.595857   21.459459 H          1 MOL1         0.0833
       7    C3      21.716548   18.479347   23.351376 C.3        1 MOL1        -0.1684
       8    H5      22.680789   18.083088   23.697647 H          1 MOL1         0.0833
       9    H6      20.974001   17.752299   23.700175 H          1 MOL1         0.0833
      10    C4      21.479743   19.843168   24.048134 C.3        1 MOL1        -0.1760
      11    H7      21.294673   19.659977   25.114881 H          1 MOL1         0.0833
      12    H8      22.409835   20.424285   23.999151 H          1 MOL1         0.0833
      13    C5      20.341762   20.729556   23.482898 C.3        1 MOL1         0.1219
      14    H9      20.644991   21.127236   22.505203 H          1 MOL1         0.0790
      15    C6      18.973408   20.022146   23.326450 C.3        1 MOL1        -0.1760
      16    H10     18.852738   19.250252   24.097275 H          1 MOL1         0.0833
      17    H11     18.183673   20.758360   23.527204 H          1 MOL1         0.0833
      18    C7      18.693724   19.441160   21.911536 C.3        1 MOL1        -0.1684
      19    H12     19.095802   20.095409   21.126226 H          1 MOL1         0.0833
      20    H13     17.604028   19.453717   21.771387 H          1 MOL1         0.0833
      21    C8      19.157008   17.978638   21.698938 C.3        1 MOL1        -0.1684
      22    H14     18.457218   17.501652   20.999049 H          1 MOL1         0.0833
      23    H15     19.047710   17.411495   22.632069 H          1 MOL1         0.0833
      24    O1      20.181169   21.826218   24.374952 O.3        1 MOL1        -0.5508
      25    H16     19.517267   22.423553   23.971368 H          1 MOL1         0.3780
@<TRIPOS>BOND
    1     1     2    1
    2     1     3    1
    3     1     4    1
    4     4     5    1
    5     4     6    1
    6     4     7    1
    7     7     8    1
    8     7     9    1
    9     7    10    1
   10    10    11    1
   11    10    12    1
   12    10    13    1
   13    13    14    1
   14    13    15    1
   15    15    16    1
   16    15    17    1
   17    15    18    1
   18    18    19    1
   19    18    20    1
   20     1    21    1
   21    18    21    1
   22    21    22    1
   23    21    23    1
   24    13    24    1
   25    24    25    1
@<TRIPOS>SUBSTRUCTURE
       1 MOL1            1 RESIDUE      1      MOL     
@<SCITEGIC>MOL_PROPERTY
VConf Rank
SciTegic.value.IntegerValue
705

@<SCITEGIC>MOL_PROPERTY
Conf_Id
SciTegic.value.IntegerValue
162

@<SCITEGIC>MOL_PROPERTY
Delta U+W
SciTegic.value.DoubleValue
0.219

@<SCITEGIC>MOL_PROPERTY
U+W
SciTegic.value.DoubleValue
11.132

@<SCITEGIC>MOL_PROPERTY
Grad RMS
SciTegic.value.DoubleValue
0.000000

@<SCITEGIC>MOL_PROPERTY
U
SciTegic.value.DoubleValue
13.296

@<SCITEGIC>MOL_PROPERTY
W
SciTegic.value.DoubleValue
-2.164

@<SCITEGIC>MOL_PROPERTY
W(PB)
SciTegic.value.DoubleValue
-4.311

@<SCITEGIC>MOL_PROPERTY
W(SA)
SciTegic.value.DoubleValue
2.148

@<SCITEGIC>MOL_PROPERTY
Valence
SciTegic.value.DoubleValue
18.607

@<SCITEGIC>MOL_PROPERTY
Coulomb
SciTegic.value.DoubleValue
-8.339

@<SCITEGIC>MOL_PROPERTY
VdW
SciTegic.value.DoubleValue
3.028

@<SCITEGIC>MOL_PROPERTY
VdW6
SciTegic.value.DoubleValue
-12.271

@<SCITEGIC>MOL_PROPERTY
VdW12
SciTegic.value.DoubleValue
15.299

@<SCITEGIC>MOL_PROPERTY
Bond
SciTegic.value.DoubleValue
0.423

@<SCITEGIC>MOL_PROPERTY
Angle
SciTegic.value.DoubleValue
4.488

@<SCITEGIC>MOL_PROPERTY
Pdih
SciTegic.value.DoubleValue
13.696

@<SCITEGIC>MOL_PROPERTY
Idih
SciTegic.value.DoubleValue
0.000

@<SCITEGIC>MOL_PROPERTY
Tether
SciTegic.value.DoubleValue
0.000

@<TRIPOS>MOLECULE
guest-s17_confgen4.mol2 : confsearch ligand conformer 706
          25          25           1
SMALL
USER_CHARGES
 
@<TRIPOS>ATOM
       1    C1      19.691149   17.642701   23.693410 C.3        1 MOL1        -0.1684
       2    H1      18.713007   17.806081   23.223581 H          1 MOL1         0.0833
       3    H2      19.561625   16.736750   24.301228 H          1 MOL1         0.0833
       4    C2      20.755181   17.342340   22.608366 C.3        1 MOL1        -0.1684
       5    H3      21.767241   17.525661   22.993539 H          1 MOL1         0.0833
       6    H4      20.711162   16.262688   22.409490 H          1 MOL1         0.0833
       7    C3      20.533694   18.059913   21.247633 C.3        1 MOL1        -0.1684
       8    H5      19.465361   18.121044   21.000461 H          1 MOL1         0.0833
       9    H6      20.974179   17.415926   20.474079 H          1 MOL1         0.0833
      10    C4      21.211203   19.448558   21.114087 C.3        1 MOL1        -0.1760
      11    H7      22.155156   19.459733   21.672766 H          1 MOL1         0.0833
      12    H8      21.502911   19.579681   20.063883 H          1 MOL1         0.0833
      13    C5      20.342846   20.676576   21.487254 C.3        1 MOL1         0.1219
      14    H9      19.574436   20.794204   20.709564 H          1 MOL1         0.0790
      15    C6      19.612011   20.610361   22.849440 C.3        1 MOL1        -0.1760
      16    H10     19.216010   21.607305   23.082435 H          1 MOL1         0.0833
      17    H11     18.721632   19.981156   22.745022 H          1 MOL1         0.0833
      18    C7      20.490788   20.133317   24.035886 C.3        1 MOL1        -0.1684
      19    H12     20.481787   20.906956   24.815476 H          1 MOL1         0.0833
      20    H13     21.542274   20.051618   23.736197 H          1 MOL1         0.0833
      21    C8      20.028312   18.799715   24.671028 C.3        1 MOL1        -0.1684
      22    H14     19.141523   18.993205   25.289821 H          1 MOL1         0.0833
      23    H15     20.809047   18.461284   25.365743 H          1 MOL1         0.0833
      24    O1      21.185485   21.822879   21.480390 O.3        1 MOL1        -0.5508
      25    H16     20.622692   22.587666   21.720145 H          1 MOL1         0.3780
@<TRIPOS>BOND
    1     1     2    1
    2     1     3    1
    3     1     4    1
    4     4     5    1
    5     4     6    1
    6     4     7    1
    7     7     8    1
    8     7     9    1
    9     7    10    1
   10    10    11    1
   11    10    12    1
   12    10    13    1
   13    13    14    1
   14    13    15    1
   15    15    16    1
   16    15    17    1
   17    15    18    1
   18    18    19    1
   19    18    20    1
   20     1    21    1
   21    18    21    1
   22    21    22    1
   23    21    23    1
   24    13    24    1
   25    24    25    1
@<TRIPOS>SUBSTRUCTURE
       1 MOL1            1 RESIDUE      1      MOL     
@<SCITEGIC>MOL_PROPERTY
VConf Rank
SciTegic.value.IntegerValue
706

@<SCITEGIC>MOL_PROPERTY
Conf_Id
SciTegic.value.IntegerValue
155

@<SCITEGIC>MOL_PROPERTY
Delta U+W
SciTegic.value.DoubleValue
0.339

@<SCITEGIC>MOL_PROPERTY
U+W
SciTegic.value.DoubleValue
11.252

@<SCITEGIC>MOL_PROPERTY
Grad RMS
SciTegic.value.DoubleValue
0.000000

@<SCITEGIC>MOL_PROPERTY
U
SciTegic.value.DoubleValue
13.420

@<SCITEGIC>MOL_PROPERTY
W
SciTegic.value.DoubleValue
-2.167

@<SCITEGIC>MOL_PROPERTY
W(PB)
SciTegic.value.DoubleValue
-4.325

@<SCITEGIC>MOL_PROPERTY
W(SA)
SciTegic.value.DoubleValue
2.157

@<SCITEGIC>MOL_PROPERTY
Valence
SciTegic.value.DoubleValue
18.609

@<SCITEGIC>MOL_PROPERTY
Coulomb
SciTegic.value.DoubleValue
-8.052

@<SCITEGIC>MOL_PROPERTY
VdW
SciTegic.value.DoubleValue
2.863

@<SCITEGIC>MOL_PROPERTY
VdW6
SciTegic.value.DoubleValue
-12.524

@<SCITEGIC>MOL_PROPERTY
VdW12
SciTegic.value.DoubleValue
15.387

@<SCITEGIC>MOL_PROPERTY
Bond
SciTegic.value.DoubleValue
0.430

@<SCITEGIC>MOL_PROPERTY
Angle
SciTegic.value.DoubleValue
4.724

@<SCITEGIC>MOL_PROPERTY
Pdih
SciTegic.value.DoubleValue
13.455

@<SCITEGIC>MOL_PROPERTY
Idih
SciTegic.value.DoubleValue
0.000

@<SCITEGIC>MOL_PROPERTY
Tether
SciTegic.value.DoubleValue
0.000

@<TRIPOS>MOLECULE
guest-s17_confgen4.mol2 : confsearch ligand conformer 707
          25          25           1
SMALL
USER_CHARGES
 
@<TRIPOS>ATOM
       1    C1      21.584849   17.719043   23.176597 C.3        1 MOL1        -0.1684
       2    H1      22.632878   17.875055   22.887398 H          1 MOL1         0.0833
       3    H2      21.563874   16.745713   23.685492 H          1 MOL1         0.0833
       4    C2      21.180469   18.786062   24.227676 C.3        1 MOL1        -0.1684
       5    H3      20.176949   18.561772   24.602886 H          1 MOL1         0.0833
       6    H4      21.821576   18.643981   25.108307 H          1 MOL1         0.0833
       7    C3      21.295541   20.282690   23.815271 C.3        1 MOL1        -0.1684
       8    H5      22.326321   20.602080   24.020296 H          1 MOL1         0.0833
       9    H6      20.663337   20.885206   24.481613 H          1 MOL1         0.0833
      10    C4      20.987446   20.662580   22.341275 C.3        1 MOL1        -0.1760
      11    H7      21.257476   21.718776   22.211532 H          1 MOL1         0.0833
      12    H8      21.689489   20.144196   21.682361 H          1 MOL1         0.0833
      13    C5      19.528749   20.477564   21.829144 C.3        1 MOL1         0.1219
      14    H9      19.567890   20.379925   20.734747 H          1 MOL1         0.0790
      15    C6      18.716906   19.280713   22.385019 C.3        1 MOL1        -0.1760
      16    H10     18.612192   19.392351   23.468112 H          1 MOL1         0.0833
      17    H11     17.688184   19.379228   22.014003 H          1 MOL1         0.0833
      18    C7      19.195080   17.843341   22.019485 C.3        1 MOL1        -0.1684
      19    H12     18.742596   17.582143   21.053115 H          1 MOL1         0.0833
      20    H13     18.770972   17.133543   22.742425 H          1 MOL1         0.0833
      21    C8      20.719792   17.588695   21.888723 C.3        1 MOL1        -0.1684
      22    H14     21.124214   18.209894   21.083408 H          1 MOL1         0.0833
      23    H15     20.853423   16.564808   21.513652 H          1 MOL1         0.0833
      24    O1      18.800438   21.657234   22.151827 O.3        1 MOL1        -0.5508
      25    H16     19.288082   22.408281   21.755124 H          1 MOL1         0.3780
@<TRIPOS>BOND
    1     1     2    1
    2     1     3    1
    3     1     4    1
    4     4     5    1
    5     4     6    1
    6     4     7    1
    7     7     8    1
    8     7     9    1
    9     7    10    1
   10    10    11    1
   11    10    12    1
   12    10    13    1
   13    13    14    1
   14    13    15    1
   15    15    16    1
   16    15    17    1
   17    15    18    1
   18    18    19    1
   19    18    20    1
   20     1    21    1
   21    18    21    1
   22    21    22    1
   23    21    23    1
   24    13    24    1
   25    24    25    1
@<TRIPOS>SUBSTRUCTURE
       1 MOL1            1 RESIDUE      1      MOL     
@<SCITEGIC>MOL_PROPERTY
VConf Rank
SciTegic.value.IntegerValue
707

@<SCITEGIC>MOL_PROPERTY
Conf_Id
SciTegic.value.IntegerValue
146

@<SCITEGIC>MOL_PROPERTY
Delta U+W
SciTegic.value.DoubleValue
2.553

@<SCITEGIC>MOL_PROPERTY
U+W
SciTegic.value.DoubleValue
13.466

@<SCITEGIC>MOL_PROPERTY
Grad RMS
SciTegic.value.DoubleValue
0.000000

@<SCITEGIC>MOL_PROPERTY
U
SciTegic.value.DoubleValue
15.643

@<SCITEGIC>MOL_PROPERTY
W
SciTegic.value.DoubleValue
-2.176

@<SCITEGIC>MOL_PROPERTY
W(PB)
SciTegic.value.DoubleValue
-4.307

@<SCITEGIC>MOL_PROPERTY
W(SA)
SciTegic.value.DoubleValue
2.131

@<SCITEGIC>MOL_PROPERTY
Valence
SciTegic.value.DoubleValue
18.916

@<SCITEGIC>MOL_PROPERTY
Coulomb
SciTegic.value.DoubleValue
-7.506

@<SCITEGIC>MOL_PROPERTY
VdW
SciTegic.value.DoubleValue
4.232

@<SCITEGIC>MOL_PROPERTY
VdW6
SciTegic.value.DoubleValue
-13.632

@<SCITEGIC>MOL_PROPERTY
VdW12
SciTegic.value.DoubleValue
17.864

@<SCITEGIC>MOL_PROPERTY
Bond
SciTegic.value.DoubleValue
0.735

@<SCITEGIC>MOL_PROPERTY
Angle
SciTegic.value.DoubleValue
9.140

@<SCITEGIC>MOL_PROPERTY
Pdih
SciTegic.value.DoubleValue
9.042

@<SCITEGIC>MOL_PROPERTY
Idih
SciTegic.value.DoubleValue
0.000

@<SCITEGIC>MOL_PROPERTY
Tether
SciTegic.value.DoubleValue
0.000

@<TRIPOS>MOLECULE
guest-s17_confgen4.mol2 : confsearch ligand conformer 708
          25          25           1
SMALL
USER_CHARGES
 
@<TRIPOS>ATOM
       1    C1      18.350904   18.650370   22.401670 C.3        1 MOL1        -0.1684
       2    H1      17.641622   18.565505   23.236069 H          1 MOL1         0.0833
       3    H2      17.788309   18.359474   21.504017 H          1 MOL1         0.0833
       4    C2      19.488216   17.615399   22.590075 C.3        1 MOL1        -0.1684
       5    H3      19.025195   16.619201   22.591422 H          1 MOL1         0.0833
       6    H4      20.148477   17.611099   21.715328 H          1 MOL1         0.0833
       7    C3      20.314651   17.739678   23.894660 C.3        1 MOL1        -0.1684
       8    H5      20.994067   16.877469   23.939061 H          1 MOL1         0.0833
       9    H6      19.645649   17.636466   24.759661 H          1 MOL1         0.0833
      10    C4      21.166694   19.024141   24.067519 C.3        1 MOL1        -0.1760
      11    H7      20.544659   19.846638   24.434452 H          1 MOL1         0.0833
      12    H8      21.877093   18.832768   24.883144 H          1 MOL1         0.0833
      13    C5      21.951615   19.468096   22.806218 C.3        1 MOL1         0.1219
      14    H9      22.055181   18.617895   22.118703 H          1 MOL1         0.0790
      15    C6      21.315773   20.663400   22.052085 C.3        1 MOL1        -0.1760
      16    H10     21.183103   21.500605   22.750086 H          1 MOL1         0.0833
      17    H11     22.037390   21.013788   21.302527 H          1 MOL1         0.0833
      18    C7      19.976734   20.394807   21.312871 C.3        1 MOL1        -0.1684
      19    H12     20.091833   19.586571   20.579178 H          1 MOL1         0.0833
      20    H13     19.753418   21.291387   20.718517 H          1 MOL1         0.0833
      21    C8      18.761320   20.136992   22.240657 C.3        1 MOL1        -0.1684
      22    H14     17.894403   20.667186   21.823060 H          1 MOL1         0.0833
      23    H15     18.919120   20.602475   23.220069 H          1 MOL1         0.0833
      24    O1      23.254087   19.870338   23.215016 O.3        1 MOL1        -0.5508
      25    H16     23.751585   20.090149   22.399909 H          1 MOL1         0.3780
@<TRIPOS>BOND
    1     1     2    1
    2     1     3    1
    3     1     4    1
    4     4     5    1
    5     4     6    1
    6     4     7    1
    7     7     8    1
    8     7     9    1
    9     7    10    1
   10    10    11    1
   11    10    12    1
   12    10    13    1
   13    13    14    1
   14    13    15    1
   15    15    16    1
   16    15    17    1
   17    15    18    1
   18    18    19    1
   19    18    20    1
   20     1    21    1
   21    18    21    1
   22    21    22    1
   23    21    23    1
   24    13    24    1
   25    24    25    1
@<TRIPOS>SUBSTRUCTURE
       1 MOL1            1 RESIDUE      1      MOL     
@<SCITEGIC>MOL_PROPERTY
VConf Rank
SciTegic.value.IntegerValue
708

@<SCITEGIC>MOL_PROPERTY
Conf_Id
SciTegic.value.IntegerValue
62

@<SCITEGIC>MOL_PROPERTY
Delta U+W
SciTegic.value.DoubleValue
-1.779

@<SCITEGIC>MOL_PROPERTY
U+W
SciTegic.value.DoubleValue
9.134

@<SCITEGIC>MOL_PROPERTY
Grad RMS
SciTegic.value.DoubleValue
0.000000

@<SCITEGIC>MOL_PROPERTY
U
SciTegic.value.DoubleValue
11.364

@<SCITEGIC>MOL_PROPERTY
W
SciTegic.value.DoubleValue
-2.230

@<SCITEGIC>MOL_PROPERTY
W(PB)
SciTegic.value.DoubleValue
-4.359

@<SCITEGIC>MOL_PROPERTY
W(SA)
SciTegic.value.DoubleValue
2.129

@<SCITEGIC>MOL_PROPERTY
Valence
SciTegic.value.DoubleValue
16.582

@<SCITEGIC>MOL_PROPERTY
Coulomb
SciTegic.value.DoubleValue
-8.150

@<SCITEGIC>MOL_PROPERTY
VdW
SciTegic.value.DoubleValue
2.933

@<SCITEGIC>MOL_PROPERTY
VdW6
SciTegic.value.DoubleValue
-12.531

@<SCITEGIC>MOL_PROPERTY
VdW12
SciTegic.value.DoubleValue
15.464

@<SCITEGIC>MOL_PROPERTY
Bond
SciTegic.value.DoubleValue
0.439

@<SCITEGIC>MOL_PROPERTY
Angle
SciTegic.value.DoubleValue
5.099

@<SCITEGIC>MOL_PROPERTY
Pdih
SciTegic.value.DoubleValue
11.044

@<SCITEGIC>MOL_PROPERTY
Idih
SciTegic.value.DoubleValue
0.000

@<SCITEGIC>MOL_PROPERTY
Tether
SciTegic.value.DoubleValue
0.000

@<TRIPOS>MOLECULE
guest-s17_confgen4.mol2 : confsearch ligand conformer 709
          25          25           1
SMALL
USER_CHARGES
 
@<TRIPOS>ATOM
       1    C1      19.314092   18.721075   21.203221 C.3        1 MOL1        -0.1684
       2    H1      20.042505   17.906534   21.287243 H          1 MOL1         0.0833
       3    H2      18.702650   18.456218   20.329934 H          1 MOL1         0.0833
       4    C2      20.030619   20.054867   20.875742 C.3        1 MOL1        -0.1684
       5    H3      20.558543   19.919005   19.921948 H          1 MOL1         0.0833
       6    H4      19.279288   20.834476   20.690788 H          1 MOL1         0.0833
       7    C3      21.055195   20.579858   21.913696 C.3        1 MOL1        -0.1684
       8    H5      20.545263   21.125933   22.715422 H          1 MOL1         0.0833
       9    H6      21.666186   21.340726   21.408923 H          1 MOL1         0.0833
      10    C4      22.008199   19.507238   22.505795 C.3        1 MOL1        -0.1760
      11    H7      22.109773   18.651699   21.826834 H          1 MOL1         0.0833
      12    H8      23.008913   19.955842   22.557467 H          1 MOL1         0.0833
      13    C5      21.643584   19.027048   23.933334 C.3        1 MOL1         0.1219
      14    H9      21.543473   19.911194   24.579280 H          1 MOL1         0.0790
      15    C6      20.350545   18.184411   24.067201 C.3        1 MOL1        -0.1760
      16    H10     20.406865   17.290508   23.434307 H          1 MOL1         0.0833
      17    H11     20.320554   17.806438   25.097757 H          1 MOL1         0.0833
      18    C7      19.030910   18.963856   23.821032 C.3        1 MOL1        -0.1684
      19    H12     19.176634   20.034132   24.006017 H          1 MOL1         0.0833
      20    H13     18.301219   18.650849   24.580326 H          1 MOL1         0.0833
      21    C8      18.375105   18.734999   22.435223 C.3        1 MOL1        -0.1684
      22    H14     17.589070   19.487197   22.284126 H          1 MOL1         0.0833
      23    H15     17.857493   17.766453   22.464865 H          1 MOL1         0.0833
      24    O1      22.722713   18.233023   24.410231 O.3        1 MOL1        -0.5508
      25    H16     23.522804   18.798152   24.385084 H          1 MOL1         0.3780
@<TRIPOS>BOND
    1     1     2    1
    2     1     3    1
    3     1     4    1
    4     4     5    1
    5     4     6    1
    6     4     7    1
    7     7     8    1
    8     7     9    1
    9     7    10    1
   10    10    11    1
   11    10    12    1
   12    10    13    1
   13    13    14    1
   14    13    15    1
   15    15    16    1
   16    15    17    1
   17    15    18    1
   18    18    19    1
   19    18    20    1
   20     1    21    1
   21    18    21    1
   22    21    22    1
   23    21    23    1
   24    13    24    1
   25    24    25    1
@<TRIPOS>SUBSTRUCTURE
       1 MOL1            1 RESIDUE      1      MOL     
@<SCITEGIC>MOL_PROPERTY
VConf Rank
SciTegic.value.IntegerValue
709

@<SCITEGIC>MOL_PROPERTY
Conf_Id
SciTegic.value.IntegerValue
121

@<SCITEGIC>MOL_PROPERTY
Delta U+W
SciTegic.value.DoubleValue
-1.283

@<SCITEGIC>MOL_PROPERTY
U+W
SciTegic.value.DoubleValue
9.630

@<SCITEGIC>MOL_PROPERTY
Grad RMS
SciTegic.value.DoubleValue
0.000000

@<SCITEGIC>MOL_PROPERTY
U
SciTegic.value.DoubleValue
11.876

@<SCITEGIC>MOL_PROPERTY
W
SciTegic.value.DoubleValue
-2.246

@<SCITEGIC>MOL_PROPERTY
W(PB)
SciTegic.value.DoubleValue
-4.376

@<SCITEGIC>MOL_PROPERTY
W(SA)
SciTegic.value.DoubleValue
2.130

@<SCITEGIC>MOL_PROPERTY
Valence
SciTegic.value.DoubleValue
17.153

@<SCITEGIC>MOL_PROPERTY
Coulomb
SciTegic.value.DoubleValue
-7.966

@<SCITEGIC>MOL_PROPERTY
VdW
SciTegic.value.DoubleValue
2.689

@<SCITEGIC>MOL_PROPERTY
VdW6
SciTegic.value.DoubleValue
-12.458

@<SCITEGIC>MOL_PROPERTY
VdW12
SciTegic.value.DoubleValue
15.147

@<SCITEGIC>MOL_PROPERTY
Bond
SciTegic.value.DoubleValue
0.421

@<SCITEGIC>MOL_PROPERTY
Angle
SciTegic.value.DoubleValue
5.258

@<SCITEGIC>MOL_PROPERTY
Pdih
SciTegic.value.DoubleValue
11.475

@<SCITEGIC>MOL_PROPERTY
Idih
SciTegic.value.DoubleValue
0.000

@<SCITEGIC>MOL_PROPERTY
Tether
SciTegic.value.DoubleValue
0.000

@<TRIPOS>MOLECULE
guest-s17_confgen4.mol2 : confsearch ligand conformer 710
          25          25           1
SMALL
USER_CHARGES
 
@<TRIPOS>ATOM
       1    C1      18.953837   20.237199   23.439473 C.3        1 MOL1        -0.1684
       2    H1      19.297191   19.578863   24.245591 H          1 MOL1         0.0833
       3    H2      18.147334   20.830369   23.891516 H          1 MOL1         0.0833
       4    C2      18.326249   19.405295   22.293266 C.3        1 MOL1        -0.1684
       5    H3      17.477285   18.851020   22.716259 H          1 MOL1         0.0833
       6    H4      17.894509   20.084671   21.545917 H          1 MOL1         0.0833
       7    C3      19.246343   18.385671   21.574435 C.3        1 MOL1        -0.1684
       8    H5      19.838334   18.882329   20.797374 H          1 MOL1         0.0833
       9    H6      18.594767   17.693960   21.023135 H          1 MOL1         0.0833
      10    C4      20.163668   17.548511   22.505699 C.3        1 MOL1        -0.1760
      11    H7      19.747187   17.483490   23.518174 H          1 MOL1         0.0833
      12    H8      20.162315   16.517860   22.126797 H          1 MOL1         0.0833
      13    C5      21.642010   18.008930   22.555033 C.3        1 MOL1         0.1219
      14    H9      22.017427   18.063280   21.523001 H          1 MOL1         0.0790
      15    C6      21.917210   19.369304   23.244260 C.3        1 MOL1        -0.1760
      16    H10     21.548903   19.358068   24.277447 H          1 MOL1         0.0833
      17    H11     23.006429   19.479541   23.326694 H          1 MOL1         0.0833
      18    C7      21.387877   20.609992   22.476271 C.3        1 MOL1        -0.1684
      19    H12     21.285738   20.386503   21.408276 H          1 MOL1         0.0833
      20    H13     22.155939   21.394317   22.520302 H          1 MOL1         0.0833
      21    C8      20.077027   21.223034   23.031760 C.3        1 MOL1        -0.1684
      22    H14     19.681690   21.941271   22.300775 H          1 MOL1         0.0833
      23    H15     20.333666   21.815076   23.920867 H          1 MOL1         0.0833
      24    O1      22.376720   17.013520   23.256307 O.3        1 MOL1        -0.5508
      25    H16     23.318908   17.280500   23.222363 H          1 MOL1         0.3780
@<TRIPOS>BOND
    1     1     2    1
    2     1     3    1
    3     1     4    1
    4     4     5    1
    5     4     6    1
    6     4     7    1
    7     7     8    1
    8     7     9    1
    9     7    10    1
   10    10    11    1
   11    10    12    1
   12    10    13    1
   13    13    14    1
   14    13    15    1
   15    15    16    1
   16    15    17    1
   17    15    18    1
   18    18    19    1
   19    18    20    1
   20     1    21    1
   21    18    21    1
   22    21    22    1
   23    21    23    1
   24    13    24    1
   25    24    25    1
@<TRIPOS>SUBSTRUCTURE
       1 MOL1            1 RESIDUE      1      MOL     
@<SCITEGIC>MOL_PROPERTY
VConf Rank
SciTegic.value.IntegerValue
710

@<SCITEGIC>MOL_PROPERTY
Conf_Id
SciTegic.value.IntegerValue
24

@<SCITEGIC>MOL_PROPERTY
Delta U+W
SciTegic.value.DoubleValue
-1.236

@<SCITEGIC>MOL_PROPERTY
U+W
SciTegic.value.DoubleValue
9.678

@<SCITEGIC>MOL_PROPERTY
Grad RMS
SciTegic.value.DoubleValue
0.000000

@<SCITEGIC>MOL_PROPERTY
U
SciTegic.value.DoubleValue
11.876

@<SCITEGIC>MOL_PROPERTY
W
SciTegic.value.DoubleValue
-2.199

@<SCITEGIC>MOL_PROPERTY
W(PB)
SciTegic.value.DoubleValue
-4.335

@<SCITEGIC>MOL_PROPERTY
W(SA)
SciTegic.value.DoubleValue
2.137

@<SCITEGIC>MOL_PROPERTY
Valence
SciTegic.value.DoubleValue
17.153

@<SCITEGIC>MOL_PROPERTY
Coulomb
SciTegic.value.DoubleValue
-7.966

@<SCITEGIC>MOL_PROPERTY
VdW
SciTegic.value.DoubleValue
2.689

@<SCITEGIC>MOL_PROPERTY
VdW6
SciTegic.value.DoubleValue
-12.458

@<SCITEGIC>MOL_PROPERTY
VdW12
SciTegic.value.DoubleValue
15.147

@<SCITEGIC>MOL_PROPERTY
Bond
SciTegic.value.DoubleValue
0.421

@<SCITEGIC>MOL_PROPERTY
Angle
SciTegic.value.DoubleValue
5.258

@<SCITEGIC>MOL_PROPERTY
Pdih
SciTegic.value.DoubleValue
11.475

@<SCITEGIC>MOL_PROPERTY
Idih
SciTegic.value.DoubleValue
0.000

@<SCITEGIC>MOL_PROPERTY
Tether
SciTegic.value.DoubleValue
0.000

@<TRIPOS>MOLECULE
guest-s17_confgen4.mol2 : confsearch ligand conformer 711
          25          25           1
SMALL
USER_CHARGES
 
@<TRIPOS>ATOM
       1    C1      20.931313   17.171422   22.334274 C.3        1 MOL1        -0.1684
       2    H1      20.316926   16.293079   22.574730 H          1 MOL1         0.0833
       3    H2      21.898078   16.774089   21.996125 H          1 MOL1         0.0833
       4    C2      20.282869   17.926676   21.143765 C.3        1 MOL1        -0.1684
       5    H3      21.010487   18.597028   20.668904 H          1 MOL1         0.0833
       6    H4      20.052993   17.175365   20.375810 H          1 MOL1         0.0833
       7    C3      18.978236   18.699595   21.458707 C.3        1 MOL1        -0.1684
       8    H5      18.384710   18.170617   22.216576 H          1 MOL1         0.0833
       9    H6      18.367802   18.680049   20.545367 H          1 MOL1         0.0833
      10    C4      19.171831   20.194687   21.839694 C.3        1 MOL1        -0.1760
      11    H7      19.989710   20.642410   21.260818 H          1 MOL1         0.0833
      12    H8      18.261928   20.720016   21.518672 H          1 MOL1         0.0833
      13    C5      19.365092   20.464721   23.351914 C.3        1 MOL1         0.1219
      14    H9      18.845583   19.678691   23.915779 H          1 MOL1         0.0790
      15    C6      20.837323   20.548958   23.828621 C.3        1 MOL1        -0.1760
      16    H10     21.283280   21.485994   23.470213 H          1 MOL1         0.0833
      17    H11     20.828362   20.618699   24.924376 H          1 MOL1         0.0833
      18    C7      21.772114   19.382159   23.421943 C.3        1 MOL1        -0.1684
      19    H12     22.692637   19.460195   24.016339 H          1 MOL1         0.0833
      20    H13     22.098026   19.514217   22.383659 H          1 MOL1         0.0833
      21    C8      21.158745   17.975552   23.637787 C.3        1 MOL1        -0.1684
      22    H14     20.220542   18.035977   24.201506 H          1 MOL1         0.0833
      23    H15     21.832548   17.393757   24.281506 H          1 MOL1         0.0833
      24    O1      18.748634   21.706740   23.666679 O.3        1 MOL1        -0.5508
      25    H16     19.213096   22.388231   23.138646 H          1 MOL1         0.3780
@<TRIPOS>BOND
    1     1     2    1
    2     1     3    1
    3     1     4    1
    4     4     5    1
    5     4     6    1
    6     4     7    1
    7     7     8    1
    8     7     9    1
    9     7    10    1
   10    10    11    1
   11    10    12    1
   12    10    13    1
   13    13    14    1
   14    13    15    1
   15    15    16    1
   16    15    17    1
   17    15    18    1
   18    18    19    1
   19    18    20    1
   20     1    21    1
   21    18    21    1
   22    21    22    1
   23    21    23    1
   24    13    24    1
   25    24    25    1
@<TRIPOS>SUBSTRUCTURE
       1 MOL1            1 RESIDUE      1      MOL     
@<SCITEGIC>MOL_PROPERTY
VConf Rank
SciTegic.value.IntegerValue
711

@<SCITEGIC>MOL_PROPERTY
Conf_Id
SciTegic.value.IntegerValue
167

@<SCITEGIC>MOL_PROPERTY
Delta U+W
SciTegic.value.DoubleValue
0.388

@<SCITEGIC>MOL_PROPERTY
U+W
SciTegic.value.DoubleValue
11.301

@<SCITEGIC>MOL_PROPERTY
Grad RMS
SciTegic.value.DoubleValue
0.000000

@<SCITEGIC>MOL_PROPERTY
U
SciTegic.value.DoubleValue
13.202

@<SCITEGIC>MOL_PROPERTY
W
SciTegic.value.DoubleValue
-1.901

@<SCITEGIC>MOL_PROPERTY
W(PB)
SciTegic.value.DoubleValue
-4.065

@<SCITEGIC>MOL_PROPERTY
W(SA)
SciTegic.value.DoubleValue
2.163

@<SCITEGIC>MOL_PROPERTY
Valence
SciTegic.value.DoubleValue
18.957

@<SCITEGIC>MOL_PROPERTY
Coulomb
SciTegic.value.DoubleValue
-8.753

@<SCITEGIC>MOL_PROPERTY
VdW
SciTegic.value.DoubleValue
2.998

@<SCITEGIC>MOL_PROPERTY
VdW6
SciTegic.value.DoubleValue
-12.294

@<SCITEGIC>MOL_PROPERTY
VdW12
SciTegic.value.DoubleValue
15.292

@<SCITEGIC>MOL_PROPERTY
Bond
SciTegic.value.DoubleValue
0.419

@<SCITEGIC>MOL_PROPERTY
Angle
SciTegic.value.DoubleValue
4.543

@<SCITEGIC>MOL_PROPERTY
Pdih
SciTegic.value.DoubleValue
13.996

@<SCITEGIC>MOL_PROPERTY
Idih
SciTegic.value.DoubleValue
0.000

@<SCITEGIC>MOL_PROPERTY
Tether
SciTegic.value.DoubleValue
0.000

@<TRIPOS>MOLECULE
guest-s17_confgen4.mol2 : confsearch ligand conformer 712
          25          25           1
SMALL
USER_CHARGES
 
@<TRIPOS>ATOM
       1    C1      21.954778   18.690346   23.772241 C.3        1 MOL1        -0.1684
       2    H1      22.892513   18.378782   23.292570 H          1 MOL1         0.0833
       3    H2      22.149842   18.656716   24.852860 H          1 MOL1         0.0833
       4    C2      20.857230   17.640529   23.458273 C.3        1 MOL1        -0.1684
       5    H3      20.926691   17.308505   22.416285 H          1 MOL1         0.0833
       6    H4      21.092733   16.742972   24.046459 H          1 MOL1         0.0833
       7    C3      19.406365   18.070929   23.796787 C.3        1 MOL1        -0.1684
       8    H5      19.394689   18.829986   24.589545 H          1 MOL1         0.0833
       9    H6      18.895280   17.198936   24.227281 H          1 MOL1         0.0833
      10    C4      18.562444   18.534221   22.578016 C.3        1 MOL1        -0.1760
      11    H7      18.555520   17.743059   21.816927 H          1 MOL1         0.0833
      12    H8      17.521610   18.630314   22.914496 H          1 MOL1         0.0833
      13    C5      18.967105   19.874817   21.915852 C.3        1 MOL1         0.1219
      14    H9      19.005330   20.658078   22.684745 H          1 MOL1         0.0790
      15    C6      20.315886   19.822173   21.152474 C.3        1 MOL1        -0.1760
      16    H10     20.556041   18.788670   20.883271 H          1 MOL1         0.0833
      17    H11     20.211286   20.336931   20.188096 H          1 MOL1         0.0833
      18    C7      21.512834   20.475023   21.891301 C.3        1 MOL1        -0.1684
      19    H12     21.422385   21.564612   21.783786 H          1 MOL1         0.0833
      20    H13     22.442753   20.201116   21.374794 H          1 MOL1         0.0833
      21    C8      21.656926   20.165252   23.402641 C.3        1 MOL1        -0.1684
      22    H14     20.782395   20.527041   23.955318 H          1 MOL1         0.0833
      23    H15     22.492002   20.770627   23.780782 H          1 MOL1         0.0833
      24    O1      17.943494   20.214523   20.987961 O.3        1 MOL1        -0.5508
      25    H16     18.173879   21.095687   20.626035 H          1 MOL1         0.3780
@<TRIPOS>BOND
    1     1     2    1
    2     1     3    1
    3     1     4    1
    4     4     5    1
    5     4     6    1
    6     4     7    1
    7     7     8    1
    8     7     9    1
    9     7    10    1
   10    10    11    1
   11    10    12    1
   12    10    13    1
   13    13    14    1
   14    13    15    1
   15    15    16    1
   16    15    17    1
   17    15    18    1
   18    18    19    1
   19    18    20    1
   20     1    21    1
   21    18    21    1
   22    21    22    1
   23    21    23    1
   24    13    24    1
   25    24    25    1
@<TRIPOS>SUBSTRUCTURE
       1 MOL1            1 RESIDUE      1      MOL     
@<SCITEGIC>MOL_PROPERTY
VConf Rank
SciTegic.value.IntegerValue
712

@<SCITEGIC>MOL_PROPERTY
Conf_Id
SciTegic.value.IntegerValue
60

@<SCITEGIC>MOL_PROPERTY
Delta U+W
SciTegic.value.DoubleValue
-1.838

@<SCITEGIC>MOL_PROPERTY
U+W
SciTegic.value.DoubleValue
9.075

@<SCITEGIC>MOL_PROPERTY
Grad RMS
SciTegic.value.DoubleValue
0.000000

@<SCITEGIC>MOL_PROPERTY
U
SciTegic.value.DoubleValue
11.150

@<SCITEGIC>MOL_PROPERTY
W
SciTegic.value.DoubleValue
-2.074

@<SCITEGIC>MOL_PROPERTY
W(PB)
SciTegic.value.DoubleValue
-4.196

@<SCITEGIC>MOL_PROPERTY
W(SA)
SciTegic.value.DoubleValue
2.121

@<SCITEGIC>MOL_PROPERTY
Valence
SciTegic.value.DoubleValue
16.582

@<SCITEGIC>MOL_PROPERTY
Coulomb
SciTegic.value.DoubleValue
-8.361

@<SCITEGIC>MOL_PROPERTY
VdW
SciTegic.value.DoubleValue
2.928

@<SCITEGIC>MOL_PROPERTY
VdW6
SciTegic.value.DoubleValue
-12.539

@<SCITEGIC>MOL_PROPERTY
VdW12
SciTegic.value.DoubleValue
15.467

@<SCITEGIC>MOL_PROPERTY
Bond
SciTegic.value.DoubleValue
0.441

@<SCITEGIC>MOL_PROPERTY
Angle
SciTegic.value.DoubleValue
5.093

@<SCITEGIC>MOL_PROPERTY
Pdih
SciTegic.value.DoubleValue
11.049

@<SCITEGIC>MOL_PROPERTY
Idih
SciTegic.value.DoubleValue
0.000

@<SCITEGIC>MOL_PROPERTY
Tether
SciTegic.value.DoubleValue
0.000

@<TRIPOS>MOLECULE
guest-s17_confgen4.mol2 : confsearch ligand conformer 713
          25          25           1
SMALL
USER_CHARGES
 
@<TRIPOS>ATOM
       1    C1      18.498621   19.801874   21.910108 C.3        1 MOL1        -0.1684
       2    H1      18.405074   20.215460   20.896846 H          1 MOL1         0.0833
       3    H2      17.488748   19.842692   22.340700 H          1 MOL1         0.0833
       4    C2      19.400850   20.731247   22.760349 C.3        1 MOL1        -0.1684
       5    H3      18.911266   21.713916   22.798968 H          1 MOL1         0.0833
       6    H4      19.421111   20.392760   23.802540 H          1 MOL1         0.0833
       7    C3      20.840148   20.955893   22.232308 C.3        1 MOL1        -0.1684
       8    H5      21.310789   21.718400   22.867937 H          1 MOL1         0.0833
       9    H6      20.792944   21.394663   21.226423 H          1 MOL1         0.0833
      10    C4      21.775844   19.719732   22.198583 C.3        1 MOL1        -0.1760
      11    H7      21.577662   19.119934   21.304580 H          1 MOL1         0.0833
      12    H8      22.798841   20.092183   22.054709 H          1 MOL1         0.0833
      13    C5      21.724499   18.824418   23.463692 C.3        1 MOL1         0.1219
      14    H9      21.301509   19.391555   24.303685 H          1 MOL1         0.0790
      15    C6      20.917965   17.514864   23.279369 C.3        1 MOL1        -0.1760
      16    H10     21.318424   16.962024   22.419577 H          1 MOL1         0.0833
      17    H11     21.109727   16.880167   24.154681 H          1 MOL1         0.0833
      18    C7      19.378133   17.654227   23.131910 C.3        1 MOL1        -0.1684
      19    H12     18.948786   18.168902   24.001128 H          1 MOL1         0.0833
      20    H13     18.960107   16.638803   23.164688 H          1 MOL1         0.0833
      21    C8      18.907530   18.309371   21.807461 C.3        1 MOL1        -0.1684
      22    H14     18.027385   17.758511   21.448390 H          1 MOL1         0.0833
      23    H15     19.656765   18.167103   21.020562 H          1 MOL1         0.0833
      24    O1      23.056356   18.456994   23.803280 O.3        1 MOL1        -0.5508
      25    H16     23.539632   19.289997   23.985121 H          1 MOL1         0.3780
@<TRIPOS>BOND
    1     1     2    1
    2     1     3    1
    3     1     4    1
    4     4     5    1
    5     4     6    1
    6     4     7    1
    7     7     8    1
    8     7     9    1
    9     7    10    1
   10    10    11    1
   11    10    12    1
   12    10    13    1
   13    13    14    1
   14    13    15    1
   15    15    16    1
   16    15    17    1
   17    15    18    1
   18    18    19    1
   19    18    20    1
   20     1    21    1
   21    18    21    1
   22    21    22    1
   23    21    23    1
   24    13    24    1
   25    24    25    1
@<TRIPOS>SUBSTRUCTURE
       1 MOL1            1 RESIDUE      1      MOL     
@<SCITEGIC>MOL_PROPERTY
VConf Rank
SciTegic.value.IntegerValue
713

@<SCITEGIC>MOL_PROPERTY
Conf_Id
SciTegic.value.IntegerValue
129

@<SCITEGIC>MOL_PROPERTY
Delta U+W
SciTegic.value.DoubleValue
-1.846

@<SCITEGIC>MOL_PROPERTY
U+W
SciTegic.value.DoubleValue
9.067

@<SCITEGIC>MOL_PROPERTY
Grad RMS
SciTegic.value.DoubleValue
0.000000

@<SCITEGIC>MOL_PROPERTY
U
SciTegic.value.DoubleValue
11.150

@<SCITEGIC>MOL_PROPERTY
W
SciTegic.value.DoubleValue
-2.083

@<SCITEGIC>MOL_PROPERTY
W(PB)
SciTegic.value.DoubleValue
-4.217

@<SCITEGIC>MOL_PROPERTY
W(SA)
SciTegic.value.DoubleValue
2.134

@<SCITEGIC>MOL_PROPERTY
Valence
SciTegic.value.DoubleValue
16.583

@<SCITEGIC>MOL_PROPERTY
Coulomb
SciTegic.value.DoubleValue
-8.361

@<SCITEGIC>MOL_PROPERTY
VdW
SciTegic.value.DoubleValue
2.928

@<SCITEGIC>MOL_PROPERTY
VdW6
SciTegic.value.DoubleValue
-12.539

@<SCITEGIC>MOL_PROPERTY
VdW12
SciTegic.value.DoubleValue
15.467

@<SCITEGIC>MOL_PROPERTY
Bond
SciTegic.value.DoubleValue
0.441

@<SCITEGIC>MOL_PROPERTY
Angle
SciTegic.value.DoubleValue
5.093

@<SCITEGIC>MOL_PROPERTY
Pdih
SciTegic.value.DoubleValue
11.049

@<SCITEGIC>MOL_PROPERTY
Idih
SciTegic.value.DoubleValue
0.000

@<SCITEGIC>MOL_PROPERTY
Tether
SciTegic.value.DoubleValue
0.000

@<TRIPOS>MOLECULE
guest-s17_confgen4.mol2 : confsearch ligand conformer 714
          25          25           1
SMALL
USER_CHARGES
 
@<TRIPOS>ATOM
       1    C1      18.566132   19.909641   23.591340 C.3        1 MOL1        -0.1684
       2    H1      17.696679   20.247321   23.011228 H          1 MOL1         0.0833
       3    H2      18.283255   20.030165   24.646031 H          1 MOL1         0.0833
       4    C2      19.760634   20.858763   23.321994 C.3        1 MOL1        -0.1684
       5    H3      19.458441   21.863267   23.648268 H          1 MOL1         0.0833
       6    H4      20.605975   20.601407   23.970351 H          1 MOL1         0.0833
       7    C3      20.221807   20.974258   21.847461 C.3        1 MOL1        -0.1684
       8    H5      20.987467   21.760833   21.801450 H          1 MOL1         0.0833
       9    H6      19.386224   21.335887   21.233032 H          1 MOL1         0.0833
      10    C4      20.812745   19.698281   21.193282 C.3        1 MOL1        -0.1760
      11    H7      20.006615   19.043428   20.847071 H          1 MOL1         0.0833
      12    H8      21.324071   20.017499   20.274990 H          1 MOL1         0.0833
      13    C5      21.805645   18.904884   22.081676 C.3        1 MOL1         0.1219
      14    H9      22.194105   19.556615   22.875538 H          1 MOL1         0.0790
      15    C6      21.207725   17.625092   22.718484 C.3        1 MOL1        -0.1760
      16    H10     20.791026   16.984864   21.930013 H          1 MOL1         0.0833
      17    H11     22.035736   17.054024   23.159521 H          1 MOL1         0.0833
      18    C7      20.140528   17.826997   23.828143 C.3        1 MOL1        -0.1684
      19    H12     20.544426   18.429196   24.652167 H          1 MOL1         0.0833
      20    H13     19.942314   16.839047   24.265902 H          1 MOL1         0.0833
      21    C8      18.786514   18.396869   23.331718 C.3        1 MOL1        -0.1684
      22    H14     17.979747   17.860205   23.849569 H          1 MOL1         0.0833
      23    H15     18.634385   18.160586   22.272554 H          1 MOL1         0.0833
      24    O1      22.901672   18.500418   21.270938 O.3        1 MOL1        -0.5508
      25    H16     22.531502   17.918867   20.575442 H          1 MOL1         0.3780
@<TRIPOS>BOND
    1     1     2    1
    2     1     3    1
    3     1     4    1
    4     4     5    1
    5     4     6    1
    6     4     7    1
    7     7     8    1
    8     7     9    1
    9     7    10    1
   10    10    11    1
   11    10    12    1
   12    10    13    1
   13    13    14    1
   14    13    15    1
   15    15    16    1
   16    15    17    1
   17    15    18    1
   18    18    19    1
   19    18    20    1
   20     1    21    1
   21    18    21    1
   22    21    22    1
   23    21    23    1
   24    13    24    1
   25    24    25    1
@<TRIPOS>SUBSTRUCTURE
       1 MOL1            1 RESIDUE      1      MOL     
@<SCITEGIC>MOL_PROPERTY
VConf Rank
SciTegic.value.IntegerValue
714

@<SCITEGIC>MOL_PROPERTY
Conf_Id
SciTegic.value.IntegerValue
140

@<SCITEGIC>MOL_PROPERTY
Delta U+W
SciTegic.value.DoubleValue
-1.702

@<SCITEGIC>MOL_PROPERTY
U+W
SciTegic.value.DoubleValue
9.211

@<SCITEGIC>MOL_PROPERTY
Grad RMS
SciTegic.value.DoubleValue
0.000000

@<SCITEGIC>MOL_PROPERTY
U
SciTegic.value.DoubleValue
11.181

@<SCITEGIC>MOL_PROPERTY
W
SciTegic.value.DoubleValue
-1.969

@<SCITEGIC>MOL_PROPERTY
W(PB)
SciTegic.value.DoubleValue
-4.093

@<SCITEGIC>MOL_PROPERTY
W(SA)
SciTegic.value.DoubleValue
2.124

@<SCITEGIC>MOL_PROPERTY
Valence
SciTegic.value.DoubleValue
16.954

@<SCITEGIC>MOL_PROPERTY
Coulomb
SciTegic.value.DoubleValue
-8.661

@<SCITEGIC>MOL_PROPERTY
VdW
SciTegic.value.DoubleValue
2.887

@<SCITEGIC>MOL_PROPERTY
VdW6
SciTegic.value.DoubleValue
-12.561

@<SCITEGIC>MOL_PROPERTY
VdW12
SciTegic.value.DoubleValue
15.448

@<SCITEGIC>MOL_PROPERTY
Bond
SciTegic.value.DoubleValue
0.433

@<SCITEGIC>MOL_PROPERTY
Angle
SciTegic.value.DoubleValue
5.120

@<SCITEGIC>MOL_PROPERTY
Pdih
SciTegic.value.DoubleValue
11.401

@<SCITEGIC>MOL_PROPERTY
Idih
SciTegic.value.DoubleValue
0.000

@<SCITEGIC>MOL_PROPERTY
Tether
SciTegic.value.DoubleValue
0.000

@<TRIPOS>MOLECULE
guest-s17_confgen4.mol2 : confsearch ligand conformer 715
          25          25           1
SMALL
USER_CHARGES
 
@<TRIPOS>ATOM
       1    C1      19.308176   20.886433   22.021681 C.3        1 MOL1        -0.1684
       2    H1      19.600260   21.393176   21.091946 H          1 MOL1         0.0833
       3    H2      18.485915   21.483824   22.438732 H          1 MOL1         0.0833
       4    C2      20.491750   20.949615   23.021484 C.3        1 MOL1        -0.1684
       5    H3      21.442475   20.772322   22.506224 H          1 MOL1         0.0833
       6    H4      20.561478   21.988183   23.373004 H          1 MOL1         0.0833
       7    C3      20.364370   20.028389   24.262316 C.3        1 MOL1        -0.1684
       8    H5      19.312230   19.809418   24.485583 H          1 MOL1         0.0833
       9    H6      20.730062   20.592492   25.131237 H          1 MOL1         0.0833
      10    C4      21.196235   18.719321   24.189146 C.3        1 MOL1        -0.1760
      11    H7      22.249323   18.971232   24.008142 H          1 MOL1         0.0833
      12    H8      21.167460   18.256145   25.184574 H          1 MOL1         0.0833
      13    C5      20.736414   17.654717   23.161491 C.3        1 MOL1         0.1219
      14    H9      19.674702   17.427652   23.326056 H          1 MOL1         0.0790
      15    C6      20.961087   18.058915   21.681384 C.3        1 MOL1        -0.1760
      16    H10     21.742720   18.822215   21.610934 H          1 MOL1         0.0833
      17    H11     21.362837   17.199093   21.128285 H          1 MOL1         0.0833
      18    C7      19.688356   18.525350   20.927815 C.3        1 MOL1        -0.1684
      19    H12     19.109641   17.630699   20.659972 H          1 MOL1         0.0833
      20    H13     19.985814   18.983759   19.974989 H          1 MOL1         0.0833
      21    C8      18.736942   19.486593   21.683521 C.3        1 MOL1        -0.1684
      22    H14     18.343469   19.006821   22.586959 H          1 MOL1         0.0833
      23    H15     17.855381   19.639861   21.046212 H          1 MOL1         0.0833
      24    O1      21.482567   16.471457   23.417049 O.3        1 MOL1        -0.5508
      25    H16     22.423077   16.699931   23.268110 H          1 MOL1         0.3780
@<TRIPOS>BOND
    1     1     2    1
    2     1     3    1
    3     1     4    1
    4     4     5    1
    5     4     6    1
    6     4     7    1
    7     7     8    1
    8     7     9    1
    9     7    10    1
   10    10    11    1
   11    10    12    1
   12    10    13    1
   13    13    14    1
   14    13    15    1
   15    15    16    1
   16    15    17    1
   17    15    18    1
   18    18    19    1
   19    18    20    1
   20     1    21    1
   21    18    21    1
   22    21    22    1
   23    21    23    1
   24    13    24    1
   25    24    25    1
@<TRIPOS>SUBSTRUCTURE
       1 MOL1            1 RESIDUE      1      MOL     
@<SCITEGIC>MOL_PROPERTY
VConf Rank
SciTegic.value.IntegerValue
715

@<SCITEGIC>MOL_PROPERTY
Conf_Id
SciTegic.value.IntegerValue
68

@<SCITEGIC>MOL_PROPERTY
Delta U+W
SciTegic.value.DoubleValue
-1.765

@<SCITEGIC>MOL_PROPERTY
U+W
SciTegic.value.DoubleValue
9.148

@<SCITEGIC>MOL_PROPERTY
Grad RMS
SciTegic.value.DoubleValue
0.000000

@<SCITEGIC>MOL_PROPERTY
U
SciTegic.value.DoubleValue
11.181

@<SCITEGIC>MOL_PROPERTY
W
SciTegic.value.DoubleValue
-2.032

@<SCITEGIC>MOL_PROPERTY
W(PB)
SciTegic.value.DoubleValue
-4.147

@<SCITEGIC>MOL_PROPERTY
W(SA)
SciTegic.value.DoubleValue
2.114

@<SCITEGIC>MOL_PROPERTY
Valence
SciTegic.value.DoubleValue
16.955

@<SCITEGIC>MOL_PROPERTY
Coulomb
SciTegic.value.DoubleValue
-8.661

@<SCITEGIC>MOL_PROPERTY
VdW
SciTegic.value.DoubleValue
2.887

@<SCITEGIC>MOL_PROPERTY
VdW6
SciTegic.value.DoubleValue
-12.561

@<SCITEGIC>MOL_PROPERTY
VdW12
SciTegic.value.DoubleValue
15.448

@<SCITEGIC>MOL_PROPERTY
Bond
SciTegic.value.DoubleValue
0.433

@<SCITEGIC>MOL_PROPERTY
Angle
SciTegic.value.DoubleValue
5.121

@<SCITEGIC>MOL_PROPERTY
Pdih
SciTegic.value.DoubleValue
11.402

@<SCITEGIC>MOL_PROPERTY
Idih
SciTegic.value.DoubleValue
0.000

@<SCITEGIC>MOL_PROPERTY
Tether
SciTegic.value.DoubleValue
0.000

@<TRIPOS>MOLECULE
guest-s17_confgen4.mol2 : confsearch ligand conformer 716
          25          25           1
SMALL
USER_CHARGES
 
@<TRIPOS>ATOM
       1    C1      20.473893   20.761919   21.677748 C.3        1 MOL1        -0.1684
       2    H1      20.525273   21.734163   21.168653 H          1 MOL1         0.0833
       3    H2      20.995890   20.074371   21.002700 H          1 MOL1         0.0833
       4    C2      18.980033   20.366853   21.810451 C.3        1 MOL1        -0.1684
       5    H3      18.576946   20.665486   22.786644 H          1 MOL1         0.0833
       6    H4      18.415927   20.957646   21.075763 H          1 MOL1         0.0833
       7    C3      18.673262   18.873847   21.521612 C.3        1 MOL1        -0.1684
       8    H5      19.043821   18.612740   20.520821 H          1 MOL1         0.0833
       9    H6      17.581687   18.761578   21.469715 H          1 MOL1         0.0833
      10    C4      19.205577   17.841445   22.550855 C.3        1 MOL1        -0.1760
      11    H7      18.821474   18.068503   23.552587 H          1 MOL1         0.0833
      12    H8      18.761901   16.872438   22.284794 H          1 MOL1         0.0833
      13    C5      20.748816   17.690037   22.570198 C.3        1 MOL1         0.1219
      14    H9      21.157418   18.074547   21.628529 H          1 MOL1         0.0790
      15    C6      21.454946   18.393859   23.755128 C.3        1 MOL1        -0.1760
      16    H10     21.319154   17.780578   24.655697 H          1 MOL1         0.0833
      17    H11     22.534890   18.403704   23.558387 H          1 MOL1         0.0833
      18    C7      20.992667   19.832773   24.101377 C.3        1 MOL1        -0.1684
      19    H12     21.538632   20.143613   25.002501 H          1 MOL1         0.0833
      20    H13     19.938751   19.834935   24.402317 H          1 MOL1         0.0833
      21    C8      21.244577   20.908658   23.015490 C.3        1 MOL1        -0.1684
      22    H14     22.320708   20.965166   22.802567 H          1 MOL1         0.0833
      23    H15     20.977427   21.881602   23.450242 H          1 MOL1         0.0833
      24    O1      21.067198   16.305892   22.644087 O.3        1 MOL1        -0.5508
      25    H16     20.679730   15.976785   23.481013 H          1 MOL1         0.3780
@<TRIPOS>BOND
    1     1     2    1
    2     1     3    1
    3     1     4    1
    4     4     5    1
    5     4     6    1
    6     4     7    1
    7     7     8    1
    8     7     9    1
    9     7    10    1
   10    10    11    1
   11    10    12    1
   12    10    13    1
   13    13    14    1
   14    13    15    1
   15    15    16    1
   16    15    17    1
   17    15    18    1
   18    18    19    1
   19    18    20    1
   20     1    21    1
   21    18    21    1
   22    21    22    1
   23    21    23    1
   24    13    24    1
   25    24    25    1
@<TRIPOS>SUBSTRUCTURE
       1 MOL1            1 RESIDUE      1      MOL     
@<SCITEGIC>MOL_PROPERTY
VConf Rank
SciTegic.value.IntegerValue
716

@<SCITEGIC>MOL_PROPERTY
Conf_Id
SciTegic.value.IntegerValue
165

@<SCITEGIC>MOL_PROPERTY
Delta U+W
SciTegic.value.DoubleValue
-1.999

@<SCITEGIC>MOL_PROPERTY
U+W
SciTegic.value.DoubleValue
8.915

@<SCITEGIC>MOL_PROPERTY
Grad RMS
SciTegic.value.DoubleValue
0.000000

@<SCITEGIC>MOL_PROPERTY
U
SciTegic.value.DoubleValue
10.935

@<SCITEGIC>MOL_PROPERTY
W
SciTegic.value.DoubleValue
-2.020

@<SCITEGIC>MOL_PROPERTY
W(PB)
SciTegic.value.DoubleValue
-4.135

@<SCITEGIC>MOL_PROPERTY
W(SA)
SciTegic.value.DoubleValue
2.115

@<SCITEGIC>MOL_PROPERTY
Valence
SciTegic.value.DoubleValue
16.757

@<SCITEGIC>MOL_PROPERTY
Coulomb
SciTegic.value.DoubleValue
-8.731

@<SCITEGIC>MOL_PROPERTY
VdW
SciTegic.value.DoubleValue
2.908

@<SCITEGIC>MOL_PROPERTY
VdW6
SciTegic.value.DoubleValue
-12.597

@<SCITEGIC>MOL_PROPERTY
VdW12
SciTegic.value.DoubleValue
15.506

@<SCITEGIC>MOL_PROPERTY
Bond
SciTegic.value.DoubleValue
0.434

@<SCITEGIC>MOL_PROPERTY
Angle
SciTegic.value.DoubleValue
5.069

@<SCITEGIC>MOL_PROPERTY
Pdih
SciTegic.value.DoubleValue
11.254

@<SCITEGIC>MOL_PROPERTY
Idih
SciTegic.value.DoubleValue
0.000

@<SCITEGIC>MOL_PROPERTY
Tether
SciTegic.value.DoubleValue
0.000

@<TRIPOS>MOLECULE
guest-s17_confgen4.mol2 : confsearch ligand conformer 717
          25          25           1
SMALL
USER_CHARGES
 
@<TRIPOS>ATOM
       1    C1      21.045350   20.074296   24.080165 C.3        1 MOL1        -0.1684
       2    H1      21.542581   20.650571   24.872473 H          1 MOL1         0.0833
       3    H2      20.190085   19.606926   24.581054 H          1 MOL1         0.0833
       4    C2      22.054901   18.999698   23.599022 C.3        1 MOL1        -0.1684
       5    H3      23.042816   19.475679   23.532149 H          1 MOL1         0.0833
       6    H4      22.150538   18.227560   24.374409 H          1 MOL1         0.0833
       7    C3      21.775153   18.323515   22.233425 C.3        1 MOL1        -0.1684
       8    H5      22.630628   17.671831   22.009437 H          1 MOL1         0.0833
       9    H6      21.779076   19.069989   21.430895 H          1 MOL1         0.0833
      10    C4      20.496564   17.449985   22.154761 C.3        1 MOL1        -0.1760
      11    H7      20.494829   16.957531   21.172926 H          1 MOL1         0.0833
      12    H8      20.571025   16.644925   22.897089 H          1 MOL1         0.0833
      13    C5      19.137191   18.168613   22.337630 C.3        1 MOL1         0.1219
      14    H9      18.971907   18.364097   23.403616 H          1 MOL1         0.0790
      15    C6      18.999332   19.499700   21.554440 C.3        1 MOL1        -0.1760
      16    H10     19.693712   19.527374   20.706390 H          1 MOL1         0.0833
      17    H11     17.997808   19.535374   21.104763 H          1 MOL1         0.0833
      18    C7      19.150216   20.777435   22.422551 C.3        1 MOL1        -0.1684
      19    H12     18.424717   20.743686   23.246868 H          1 MOL1         0.0833
      20    H13     18.854945   21.637111   21.805666 H          1 MOL1         0.0833
      21    C8      20.563358   21.069270   22.992402 C.3        1 MOL1        -0.1684
      22    H14     20.523782   22.066580   23.451550 H          1 MOL1         0.0833
      23    H15     21.299074   21.157018   22.182691 H          1 MOL1         0.0833
      24    O1      18.120731   17.276338   21.894721 O.3        1 MOL1        -0.5508
      25    H16     18.203222   16.463488   22.435931 H          1 MOL1         0.3780
@<TRIPOS>BOND
    1     1     2    1
    2     1     3    1
    3     1     4    1
    4     4     5    1
    5     4     6    1
    6     4     7    1
    7     7     8    1
    8     7     9    1
    9     7    10    1
   10    10    11    1
   11    10    12    1
   12    10    13    1
   13    13    14    1
   14    13    15    1
   15    15    16    1
   16    15    17    1
   17    15    18    1
   18    18    19    1
   19    18    20    1
   20     1    21    1
   21    18    21    1
   22    21    22    1
   23    21    23    1
   24    13    24    1
   25    24    25    1
@<TRIPOS>SUBSTRUCTURE
       1 MOL1            1 RESIDUE      1      MOL     
@<SCITEGIC>MOL_PROPERTY
VConf Rank
SciTegic.value.IntegerValue
717

@<SCITEGIC>MOL_PROPERTY
Conf_Id
SciTegic.value.IntegerValue
133

@<SCITEGIC>MOL_PROPERTY
Delta U+W
SciTegic.value.DoubleValue
-2.139

@<SCITEGIC>MOL_PROPERTY
U+W
SciTegic.value.DoubleValue
8.774

@<SCITEGIC>MOL_PROPERTY
Grad RMS
SciTegic.value.DoubleValue
0.000000

@<SCITEGIC>MOL_PROPERTY
U
SciTegic.value.DoubleValue
10.905

@<SCITEGIC>MOL_PROPERTY
W
SciTegic.value.DoubleValue
-2.131

@<SCITEGIC>MOL_PROPERTY
W(PB)
SciTegic.value.DoubleValue
-4.281

@<SCITEGIC>MOL_PROPERTY
W(SA)
SciTegic.value.DoubleValue
2.150

@<SCITEGIC>MOL_PROPERTY
Valence
SciTegic.value.DoubleValue
16.378

@<SCITEGIC>MOL_PROPERTY
Coulomb
SciTegic.value.DoubleValue
-8.448

@<SCITEGIC>MOL_PROPERTY
VdW
SciTegic.value.DoubleValue
2.976

@<SCITEGIC>MOL_PROPERTY
VdW6
SciTegic.value.DoubleValue
-12.570

@<SCITEGIC>MOL_PROPERTY
VdW12
SciTegic.value.DoubleValue
15.545

@<SCITEGIC>MOL_PROPERTY
Bond
SciTegic.value.DoubleValue
0.439

@<SCITEGIC>MOL_PROPERTY
Angle
SciTegic.value.DoubleValue
5.049

@<SCITEGIC>MOL_PROPERTY
Pdih
SciTegic.value.DoubleValue
10.889

@<SCITEGIC>MOL_PROPERTY
Idih
SciTegic.value.DoubleValue
0.000

@<SCITEGIC>MOL_PROPERTY
Tether
SciTegic.value.DoubleValue
0.000

@<TRIPOS>MOLECULE
guest-s17_confgen4.mol2 : confsearch ligand conformer 718
          25          25           1
SMALL
USER_CHARGES
 
@<TRIPOS>ATOM
       1    C1      18.658223   18.438981   22.389521 C.3        1 MOL1        -0.1684
       2    H1      17.725812   17.884019   22.217146 H          1 MOL1         0.0833
       3    H2      18.349019   19.490148   22.405098 H          1 MOL1         0.0833
       4    C2      19.607418   18.167375   21.193368 C.3        1 MOL1        -0.1684
       5    H3      20.297992   17.343743   21.415509 H          1 MOL1         0.0833
       6    H4      18.991333   17.806138   20.358528 H          1 MOL1         0.0833
       7    C3      20.380718   19.410433   20.679864 C.3        1 MOL1        -0.1684
       8    H5      19.665359   20.202002   20.417818 H          1 MOL1         0.0833
       9    H6      20.870747   19.132631   19.736746 H          1 MOL1         0.0833
      10    C4      21.467395   19.993269   21.622427 C.3        1 MOL1        -0.1760
      11    H7      22.210671   19.226812   21.871837 H          1 MOL1         0.0833
      12    H8      22.018504   20.748671   21.046078 H          1 MOL1         0.0833
      13    C5      20.914301   20.664355   22.906137 C.3        1 MOL1         0.1219
      14    H9      19.857412   20.911263   22.751608 H          1 MOL1         0.0790
      15    C6      21.057502   19.813702   24.192073 C.3        1 MOL1        -0.1760
      16    H10     22.102792   19.868683   24.525034 H          1 MOL1         0.0833
      17    H11     20.461339   20.277601   24.988380 H          1 MOL1         0.0833
      18    C7      20.680236   18.313035   24.093614 C.3        1 MOL1        -0.1684
      19    H12     20.911167   17.853498   25.064282 H          1 MOL1         0.0833
      20    H13     21.336198   17.799043   23.381702 H          1 MOL1         0.0833
      21    C8      19.195378   18.003526   23.777793 C.3        1 MOL1        -0.1684
      22    H14     18.558704   18.439695   24.559441 H          1 MOL1         0.0833
      23    H15     19.062960   16.916082   23.861087 H          1 MOL1         0.0833
      24    O1      21.620205   21.881545   23.119811 O.3        1 MOL1        -0.5508
      25    H16     21.220985   22.304665   23.908500 H          1 MOL1         0.3780
@<TRIPOS>BOND
    1     1     2    1
    2     1     3    1
    3     1     4    1
    4     4     5    1
    5     4     6    1
    6     4     7    1
    7     7     8    1
    8     7     9    1
    9     7    10    1
   10    10    11    1
   11    10    12    1
   12    10    13    1
   13    13    14    1
   14    13    15    1
   15    15    16    1
   16    15    17    1
   17    15    18    1
   18    18    19    1
   19    18    20    1
   20     1    21    1
   21    18    21    1
   22    21    22    1
   23    21    23    1
   24    13    24    1
   25    24    25    1
@<TRIPOS>SUBSTRUCTURE
       1 MOL1            1 RESIDUE      1      MOL     
@<SCITEGIC>MOL_PROPERTY
VConf Rank
SciTegic.value.IntegerValue
718

@<SCITEGIC>MOL_PROPERTY
Conf_Id
SciTegic.value.IntegerValue
95

@<SCITEGIC>MOL_PROPERTY
Delta U+W
SciTegic.value.DoubleValue
-2.190

@<SCITEGIC>MOL_PROPERTY
U+W
SciTegic.value.DoubleValue
8.723

@<SCITEGIC>MOL_PROPERTY
Grad RMS
SciTegic.value.DoubleValue
0.000000

@<SCITEGIC>MOL_PROPERTY
U
SciTegic.value.DoubleValue
10.905

@<SCITEGIC>MOL_PROPERTY
W
SciTegic.value.DoubleValue
-2.182

@<SCITEGIC>MOL_PROPERTY
W(PB)
SciTegic.value.DoubleValue
-4.296

@<SCITEGIC>MOL_PROPERTY
W(SA)
SciTegic.value.DoubleValue
2.114

@<SCITEGIC>MOL_PROPERTY
Valence
SciTegic.value.DoubleValue
16.377

@<SCITEGIC>MOL_PROPERTY
Coulomb
SciTegic.value.DoubleValue
-8.448

@<SCITEGIC>MOL_PROPERTY
VdW
SciTegic.value.DoubleValue
2.976

@<SCITEGIC>MOL_PROPERTY
VdW6
SciTegic.value.DoubleValue
-12.570

@<SCITEGIC>MOL_PROPERTY
VdW12
SciTegic.value.DoubleValue
15.546

@<SCITEGIC>MOL_PROPERTY
Bond
SciTegic.value.DoubleValue
0.439

@<SCITEGIC>MOL_PROPERTY
Angle
SciTegic.value.DoubleValue
5.049

@<SCITEGIC>MOL_PROPERTY
Pdih
SciTegic.value.DoubleValue
10.889

@<SCITEGIC>MOL_PROPERTY
Idih
SciTegic.value.DoubleValue
0.000

@<SCITEGIC>MOL_PROPERTY
Tether
SciTegic.value.DoubleValue
0.000

@<TRIPOS>MOLECULE
guest-s17_confgen4.mol2 : confsearch ligand conformer 719
          25          25           1
SMALL
USER_CHARGES
 
@<TRIPOS>ATOM
       1    C1      19.233635   18.622371   21.278990 C.3        1 MOL1        -0.1684
       2    H1      18.536965   18.223703   20.528912 H          1 MOL1         0.0833
       3    H2      20.070360   18.991544   20.677461 H          1 MOL1         0.0833
       4    C2      19.674624   17.425693   22.172136 C.3        1 MOL1        -0.1684
       5    H3      18.812203   16.751650   22.266140 H          1 MOL1         0.0833
       6    H4      20.440799   16.846557   21.639174 H          1 MOL1         0.0833
       7    C3      20.169399   17.727893   23.611013 C.3        1 MOL1        -0.1684
       8    H5      20.318909   16.765932   24.120028 H          1 MOL1         0.0833
       9    H6      19.360245   18.195622   24.180686 H          1 MOL1         0.0833
      10    C4      21.492404   18.536576   23.760045 C.3        1 MOL1        -0.1760
      11    H7      21.524962   18.981807   24.763081 H          1 MOL1         0.0833
      12    H8      22.316698   17.812080   23.729934 H          1 MOL1         0.0833
      13    C5      21.805093   19.631969   22.709316 C.3        1 MOL1         0.1219
      14    H9      21.813614   19.161242   21.720802 H          1 MOL1         0.0790
      15    C6      20.868511   20.874088   22.685935 C.3        1 MOL1        -0.1760
      16    H10     21.244996   21.595083   23.424000 H          1 MOL1         0.0833
      17    H11     20.974582   21.367166   21.711301 H          1 MOL1         0.0833
      18    C7      19.358767   20.669358   22.985560 C.3        1 MOL1        -0.1684
      19    H12     18.891528   21.662607   23.028648 H          1 MOL1         0.0833
      20    H13     19.240931   20.287038   24.004392 H          1 MOL1         0.0833
      21    C8      18.533638   19.818868   21.975938 C.3        1 MOL1        -0.1684
      22    H14     18.188919   20.494896   21.181569 H          1 MOL1         0.0833
      23    H15     17.621174   19.463503   22.473502 H          1 MOL1         0.0833
      24    O1      23.123758   20.101649   22.964539 O.3        1 MOL1        -0.5508
      25    H16     23.716368   19.323053   22.912978 H          1 MOL1         0.3780
@<TRIPOS>BOND
    1     1     2    1
    2     1     3    1
    3     1     4    1
    4     4     5    1
    5     4     6    1
    6     4     7    1
    7     7     8    1
    8     7     9    1
    9     7    10    1
   10    10    11    1
   11    10    12    1
   12    10    13    1
   13    13    14    1
   14    13    15    1
   15    15    16    1
   16    15    17    1
   17    15    18    1
   18    18    19    1
   19    18    20    1
   20     1    21    1
   21    18    21    1
   22    21    22    1
   23    21    23    1
   24    13    24    1
   25    24    25    1
@<TRIPOS>SUBSTRUCTURE
       1 MOL1            1 RESIDUE      1      MOL     
@<SCITEGIC>MOL_PROPERTY
VConf Rank
SciTegic.value.IntegerValue
719

@<SCITEGIC>MOL_PROPERTY
Conf_Id
SciTegic.value.IntegerValue
161

@<SCITEGIC>MOL_PROPERTY
Delta U+W
SciTegic.value.DoubleValue
2.120

@<SCITEGIC>MOL_PROPERTY
U+W
SciTegic.value.DoubleValue
13.033

@<SCITEGIC>MOL_PROPERTY
Grad RMS
SciTegic.value.DoubleValue
0.000000

@<SCITEGIC>MOL_PROPERTY
U
SciTegic.value.DoubleValue
15.076

@<SCITEGIC>MOL_PROPERTY
W
SciTegic.value.DoubleValue
-2.043

@<SCITEGIC>MOL_PROPERTY
W(PB)
SciTegic.value.DoubleValue
-4.186

@<SCITEGIC>MOL_PROPERTY
W(SA)
SciTegic.value.DoubleValue
2.143

@<SCITEGIC>MOL_PROPERTY
Valence
SciTegic.value.DoubleValue
18.884

@<SCITEGIC>MOL_PROPERTY
Coulomb
SciTegic.value.DoubleValue
-8.074

@<SCITEGIC>MOL_PROPERTY
VdW
SciTegic.value.DoubleValue
4.266

@<SCITEGIC>MOL_PROPERTY
VdW6
SciTegic.value.DoubleValue
-13.486

@<SCITEGIC>MOL_PROPERTY
VdW12
SciTegic.value.DoubleValue
17.752

@<SCITEGIC>MOL_PROPERTY
Bond
SciTegic.value.DoubleValue
0.713

@<SCITEGIC>MOL_PROPERTY
Angle
SciTegic.value.DoubleValue
8.955

@<SCITEGIC>MOL_PROPERTY
Pdih
SciTegic.value.DoubleValue
9.215

@<SCITEGIC>MOL_PROPERTY
Idih
SciTegic.value.DoubleValue
0.000

@<SCITEGIC>MOL_PROPERTY
Tether
SciTegic.value.DoubleValue
0.000

@<TRIPOS>MOLECULE
guest-s17_confgen4.mol2 : confsearch ligand conformer 720
          25          25           1
SMALL
USER_CHARGES
 
@<TRIPOS>ATOM
       1    C1      20.118388   19.053512   20.671872 C.3        1 MOL1        -0.1684
       2    H1      19.918670   19.220649   19.604555 H          1 MOL1         0.0833
       3    H2      20.293551   17.973604   20.757613 H          1 MOL1         0.0833
       4    C2      18.846626   19.447165   21.463918 C.3        1 MOL1        -0.1684
       5    H3      18.846989   20.521005   21.694253 H          1 MOL1         0.0833
       6    H4      17.992293   19.295239   20.789972 H          1 MOL1         0.0833
       7    C3      18.571348   18.599177   22.736896 C.3        1 MOL1        -0.1684
       8    H5      18.842414   17.546714   22.578368 H          1 MOL1         0.0833
       9    H6      17.483125   18.598813   22.888454 H          1 MOL1         0.0833
      10    C4      19.206021   19.140880   24.043885 C.3        1 MOL1        -0.1760
      11    H7      19.216884   20.237474   24.025677 H          1 MOL1         0.0833
      12    H8      18.536264   18.878446   24.873457 H          1 MOL1         0.0833
      13    C5      20.602742   18.578763   24.411342 C.3        1 MOL1         0.1219
      14    H9      20.476318   17.527229   24.706413 H          1 MOL1         0.0790
      15    C6      21.676259   18.621838   23.299321 C.3        1 MOL1        -0.1760
      16    H10     22.653332   18.414956   23.756063 H          1 MOL1         0.0833
      17    H11     21.512612   17.783157   22.614050 H          1 MOL1         0.0833
      18    C7      21.760440   19.963390   22.523189 C.3        1 MOL1        -0.1684
      19    H12     22.783698   20.354718   22.604028 H          1 MOL1         0.0833
      20    H13     21.128428   20.730195   22.985436 H          1 MOL1         0.0833
      21    C8      21.405996   19.845671   21.021460 C.3        1 MOL1        -0.1684
      22    H14     22.249047   19.376967   20.495730 H          1 MOL1         0.0833
      23    H15     21.322394   20.859699   20.607289 H          1 MOL1         0.0833
      24    O1      21.090456   19.311314   25.526631 O.3        1 MOL1        -0.5508
      25    H16     21.318648   20.199483   25.184733 H          1 MOL1         0.3780
@<TRIPOS>BOND
    1     1     2    1
    2     1     3    1
    3     1     4    1
    4     4     5    1
    5     4     6    1
    6     4     7    1
    7     7     8    1
    8     7     9    1
    9     7    10    1
   10    10    11    1
   11    10    12    1
   12    10    13    1
   13    13    14    1
   14    13    15    1
   15    15    16    1
   16    15    17    1
   17    15    18    1
   18    18    19    1
   19    18    20    1
   20     1    21    1
   21    18    21    1
   22    21    22    1
   23    21    23    1
   24    13    24    1
   25    24    25    1
@<TRIPOS>SUBSTRUCTURE
       1 MOL1            1 RESIDUE      1      MOL     
@<SCITEGIC>MOL_PROPERTY
VConf Rank
SciTegic.value.IntegerValue
720

@<SCITEGIC>MOL_PROPERTY
Conf_Id
SciTegic.value.IntegerValue
164

@<SCITEGIC>MOL_PROPERTY
Delta U+W
SciTegic.value.DoubleValue
0.008

@<SCITEGIC>MOL_PROPERTY
U+W
SciTegic.value.DoubleValue
10.922

@<SCITEGIC>MOL_PROPERTY
Grad RMS
SciTegic.value.DoubleValue
0.000000

@<SCITEGIC>MOL_PROPERTY
U
SciTegic.value.DoubleValue
12.433

@<SCITEGIC>MOL_PROPERTY
W
SciTegic.value.DoubleValue
-1.511

@<SCITEGIC>MOL_PROPERTY
W(PB)
SciTegic.value.DoubleValue
-3.669

@<SCITEGIC>MOL_PROPERTY
W(SA)
SciTegic.value.DoubleValue
2.157

@<SCITEGIC>MOL_PROPERTY
Valence
SciTegic.value.DoubleValue
19.007

@<SCITEGIC>MOL_PROPERTY
Coulomb
SciTegic.value.DoubleValue
-9.373

@<SCITEGIC>MOL_PROPERTY
VdW
SciTegic.value.DoubleValue
2.799

@<SCITEGIC>MOL_PROPERTY
VdW6
SciTegic.value.DoubleValue
-12.597

@<SCITEGIC>MOL_PROPERTY
VdW12
SciTegic.value.DoubleValue
15.396

@<SCITEGIC>MOL_PROPERTY
Bond
SciTegic.value.DoubleValue
0.425

@<SCITEGIC>MOL_PROPERTY
Angle
SciTegic.value.DoubleValue
4.784

@<SCITEGIC>MOL_PROPERTY
Pdih
SciTegic.value.DoubleValue
13.799

@<SCITEGIC>MOL_PROPERTY
Idih
SciTegic.value.DoubleValue
0.000

@<SCITEGIC>MOL_PROPERTY
Tether
SciTegic.value.DoubleValue
0.000

@<TRIPOS>MOLECULE
guest-s17_confgen4.mol2 : confsearch ligand conformer 721
          25          25           1
SMALL
USER_CHARGES
 
@<TRIPOS>ATOM
       1    C1      21.173369   20.193531   21.371359 C.3        1 MOL1        -0.1684
       2    H1      21.082461   19.189679   20.941314 H          1 MOL1         0.0833
       3    H2      21.694074   20.778092   20.600757 H          1 MOL1         0.0833
       4    C2      22.086683   20.165120   22.622266 C.3        1 MOL1        -0.1684
       5    H3      23.072156   19.800481   22.301666 H          1 MOL1         0.0833
       6    H4      22.250746   21.192276   22.975170 H          1 MOL1         0.0833
       7    C3      21.623620   19.291183   23.815819 C.3        1 MOL1        -0.1684
       8    H5      20.903800   19.837067   24.436249 H          1 MOL1         0.0833
       9    H6      22.495183   19.146891   24.468936 H          1 MOL1         0.0833
      10    C4      21.065574   17.893498   23.436559 C.3        1 MOL1        -0.1760
      11    H7      21.462563   17.561407   22.469659 H          1 MOL1         0.0833
      12    H8      21.454753   17.176447   24.171826 H          1 MOL1         0.0833
      13    C5      19.520806   17.778286   23.466407 C.3        1 MOL1         0.1219
      14    H9      19.170399   18.125746   24.448795 H          1 MOL1         0.0790
      15    C6      18.746880   18.558542   22.374291 C.3        1 MOL1        -0.1760
      16    H10     19.067597   18.248315   21.372453 H          1 MOL1         0.0833
      17    H11     17.693979   18.255110   22.448908 H          1 MOL1         0.0833
      18    C7      18.792738   20.103136   22.518883 C.3        1 MOL1        -0.1684
      19    H12     18.989422   20.386151   23.559210 H          1 MOL1         0.0833
      20    H13     17.788112   20.496972   22.312422 H          1 MOL1         0.0833
      21    C8      19.773415   20.828610   21.562469 C.3        1 MOL1        -0.1684
      22    H14     19.889290   21.869588   21.893294 H          1 MOL1         0.0833
      23    H15     19.299040   20.882684   20.573052 H          1 MOL1         0.0833
      24    O1      19.188706   16.403352   23.330531 O.3        1 MOL1        -0.5508
      25    H16     19.513275   16.126640   22.449127 H          1 MOL1         0.3780
@<TRIPOS>BOND
    1     1     2    1
    2     1     3    1
    3     1     4    1
    4     4     5    1
    5     4     6    1
    6     4     7    1
    7     7     8    1
    8     7     9    1
    9     7    10    1
   10    10    11    1
   11    10    12    1
   12    10    13    1
   13    13    14    1
   14    13    15    1
   15    15    16    1
   16    15    17    1
   17    15    18    1
   18    18    19    1
   19    18    20    1
   20     1    21    1
   21    18    21    1
   22    21    22    1
   23    21    23    1
   24    13    24    1
   25    24    25    1
@<TRIPOS>SUBSTRUCTURE
       1 MOL1            1 RESIDUE      1      MOL     
@<SCITEGIC>MOL_PROPERTY
VConf Rank
SciTegic.value.IntegerValue
721

@<SCITEGIC>MOL_PROPERTY
Conf_Id
SciTegic.value.IntegerValue
15

@<SCITEGIC>MOL_PROPERTY
Delta U+W
SciTegic.value.DoubleValue
-1.271

@<SCITEGIC>MOL_PROPERTY
U+W
SciTegic.value.DoubleValue
9.643

@<SCITEGIC>MOL_PROPERTY
Grad RMS
SciTegic.value.DoubleValue
0.000000

@<SCITEGIC>MOL_PROPERTY
U
SciTegic.value.DoubleValue
11.413

@<SCITEGIC>MOL_PROPERTY
W
SciTegic.value.DoubleValue
-1.770

@<SCITEGIC>MOL_PROPERTY
W(PB)
SciTegic.value.DoubleValue
-3.908

@<SCITEGIC>MOL_PROPERTY
W(SA)
SciTegic.value.DoubleValue
2.138

@<SCITEGIC>MOL_PROPERTY
Valence
SciTegic.value.DoubleValue
17.496

@<SCITEGIC>MOL_PROPERTY
Coulomb
SciTegic.value.DoubleValue
-8.736

@<SCITEGIC>MOL_PROPERTY
VdW
SciTegic.value.DoubleValue
2.653

@<SCITEGIC>MOL_PROPERTY
VdW6
SciTegic.value.DoubleValue
-12.485

@<SCITEGIC>MOL_PROPERTY
VdW12
SciTegic.value.DoubleValue
15.138

@<SCITEGIC>MOL_PROPERTY
Bond
SciTegic.value.DoubleValue
0.414

@<SCITEGIC>MOL_PROPERTY
Angle
SciTegic.value.DoubleValue
5.295

@<SCITEGIC>MOL_PROPERTY
Pdih
SciTegic.value.DoubleValue
11.787

@<SCITEGIC>MOL_PROPERTY
Idih
SciTegic.value.DoubleValue
0.000

@<SCITEGIC>MOL_PROPERTY
Tether
SciTegic.value.DoubleValue
0.000

@<TRIPOS>MOLECULE
guest-s17_confgen4.mol2 : confsearch ligand conformer 722
          25          25           1
SMALL
USER_CHARGES
 
@<TRIPOS>ATOM
       1    C1      21.854187   20.255940   22.079105 C.3        1 MOL1        -0.1684
       2    H1      22.636237   20.996470   21.862325 H          1 MOL1         0.0833
       3    H2      21.862696   19.579260   21.215279 H          1 MOL1         0.0833
       4    C2      22.285568   19.505150   23.366370 C.3        1 MOL1        -0.1684
       5    H3      23.187743   18.922579   23.135031 H          1 MOL1         0.0833
       6    H4      22.591534   20.241733   24.121754 H          1 MOL1         0.0833
       7    C3      21.237032   18.562552   24.004658 C.3        1 MOL1        -0.1684
       8    H5      20.509487   19.154152   24.572512 H          1 MOL1         0.0833
       9    H6      21.746496   17.946365   24.758015 H          1 MOL1         0.0833
      10    C4      20.526760   17.626271   22.992559 C.3        1 MOL1        -0.1760
      11    H7      21.004879   17.679782   22.008217 H          1 MOL1         0.0833
      12    H8      20.670737   16.588374   23.320030 H          1 MOL1         0.0833
      13    C5      19.005326   17.865174   22.856795 C.3        1 MOL1         0.1219
      14    H9      18.524458   17.467616   23.762081 H          1 MOL1         0.0790
      15    C6      18.545793   19.338442   22.705832 C.3        1 MOL1        -0.1760
      16    H10     17.477295   19.316490   22.452525 H          1 MOL1         0.0833
      17    H11     18.585908   19.845339   23.677408 H          1 MOL1         0.0833
      18    C7      19.274207   20.196416   21.637032 C.3        1 MOL1        -0.1684
      19    H12     18.544589   20.931681   21.270720 H          1 MOL1         0.0833
      20    H13     19.541776   19.593900   20.759426 H          1 MOL1         0.0833
      21    C8      20.498427   21.000762   22.154807 C.3        1 MOL1        -0.1684
      22    H14     20.320946   21.386704   23.167593 H          1 MOL1         0.0833
      23    H15     20.587532   21.890537   21.516421 H          1 MOL1         0.0833
      24    O1      18.539557   17.130665   21.733424 O.3        1 MOL1        -0.5508
      25    H16     18.915470   17.576192   20.947714 H          1 MOL1         0.3780
@<TRIPOS>BOND
    1     1     2    1
    2     1     3    1
    3     1     4    1
    4     4     5    1
    5     4     6    1
    6     4     7    1
    7     7     8    1
    8     7     9    1
    9     7    10    1
   10    10    11    1
   11    10    12    1
   12    10    13    1
   13    13    14    1
   14    13    15    1
   15    15    16    1
   16    15    17    1
   17    15    18    1
   18    18    19    1
   19    18    20    1
   20     1    21    1
   21    18    21    1
   22    21    22    1
   23    21    23    1
   24    13    24    1
   25    24    25    1
@<TRIPOS>SUBSTRUCTURE
       1 MOL1            1 RESIDUE      1      MOL     
@<SCITEGIC>MOL_PROPERTY
VConf Rank
SciTegic.value.IntegerValue
722

@<SCITEGIC>MOL_PROPERTY
Conf_Id
SciTegic.value.IntegerValue
115

@<SCITEGIC>MOL_PROPERTY
Delta U+W
SciTegic.value.DoubleValue
0.038

@<SCITEGIC>MOL_PROPERTY
U+W
SciTegic.value.DoubleValue
10.952

@<SCITEGIC>MOL_PROPERTY
Grad RMS
SciTegic.value.DoubleValue
0.000000

@<SCITEGIC>MOL_PROPERTY
U
SciTegic.value.DoubleValue
12.526

@<SCITEGIC>MOL_PROPERTY
W
SciTegic.value.DoubleValue
-1.575

@<SCITEGIC>MOL_PROPERTY
W(PB)
SciTegic.value.DoubleValue
-3.698

@<SCITEGIC>MOL_PROPERTY
W(SA)
SciTegic.value.DoubleValue
2.123

@<SCITEGIC>MOL_PROPERTY
Valence
SciTegic.value.DoubleValue
19.016

@<SCITEGIC>MOL_PROPERTY
Coulomb
SciTegic.value.DoubleValue
-9.226

@<SCITEGIC>MOL_PROPERTY
VdW
SciTegic.value.DoubleValue
2.737

@<SCITEGIC>MOL_PROPERTY
VdW6
SciTegic.value.DoubleValue
-12.612

@<SCITEGIC>MOL_PROPERTY
VdW12
SciTegic.value.DoubleValue
15.349

@<SCITEGIC>MOL_PROPERTY
Bond
SciTegic.value.DoubleValue
0.421

@<SCITEGIC>MOL_PROPERTY
Angle
SciTegic.value.DoubleValue
4.883

@<SCITEGIC>MOL_PROPERTY
Pdih
SciTegic.value.DoubleValue
13.711

@<SCITEGIC>MOL_PROPERTY
Idih
SciTegic.value.DoubleValue
0.000

@<SCITEGIC>MOL_PROPERTY
Tether
SciTegic.value.DoubleValue
0.000

@<TRIPOS>MOLECULE
guest-s17_confgen4.mol2 : confsearch ligand conformer 723
          25          25           1
SMALL
USER_CHARGES
 
@<TRIPOS>ATOM
       1    C1      21.582281   20.044886   21.112077 C.3        1 MOL1        -0.1684
       2    H1      21.985890   20.856217   20.490927 H          1 MOL1         0.0833
       3    H2      22.236322   19.181527   20.929546 H          1 MOL1         0.0833
       4    C2      20.152466   19.744466   20.605209 C.3        1 MOL1        -0.1684
       5    H3      19.530186   20.646957   20.675007 H          1 MOL1         0.0833
       6    H4      20.225066   19.518533   19.532511 H          1 MOL1         0.0833
       7    C3      19.446732   18.554376   21.295514 C.3        1 MOL1        -0.1684
       8    H5      20.150607   17.723316   21.436504 H          1 MOL1         0.0833
       9    H6      18.684775   18.176012   20.600227 H          1 MOL1         0.0833
      10    C4      18.727060   18.920154   22.621492 C.3        1 MOL1        -0.1760
      11    H7      18.632564   20.007117   22.737211 H          1 MOL1         0.0833
      12    H8      17.697755   18.543357   22.549960 H          1 MOL1         0.0833
      13    C5      19.369201   18.308165   23.886829 C.3        1 MOL1         0.1219
      14    H9      19.752008   17.306873   23.642815 H          1 MOL1         0.0790
      15    C6      20.512687   19.147177   24.499148 C.3        1 MOL1        -0.1760
      16    H10     20.132771   20.130605   24.805943 H          1 MOL1         0.0833
      17    H11     20.830803   18.648158   25.423915 H          1 MOL1         0.0833
      18    C7      21.765349   19.315361   23.605157 C.3        1 MOL1        -0.1684
      19    H12     22.007967   18.368616   23.104315 H          1 MOL1         0.0833
      20    H13     22.616237   19.518778   24.269868 H          1 MOL1         0.0833
      21    C8      21.679253   20.486203   22.591392 C.3        1 MOL1        -0.1684
      22    H14     22.598632   21.078750   22.695475 H          1 MOL1         0.0833
      23    H15     20.860809   21.174676   22.840354 H          1 MOL1         0.0833
      24    O1      18.355718   18.180301   24.876855 O.3        1 MOL1        -0.5508
      25    H16     18.768703   17.742178   25.650048 H          1 MOL1         0.3780
@<TRIPOS>BOND
    1     1     2    1
    2     1     3    1
    3     1     4    1
    4     4     5    1
    5     4     6    1
    6     4     7    1
    7     7     8    1
    8     7     9    1
    9     7    10    1
   10    10    11    1
   11    10    12    1
   12    10    13    1
   13    13    14    1
   14    13    15    1
   15    15    16    1
   16    15    17    1
   17    15    18    1
   18    18    19    1
   19    18    20    1
   20     1    21    1
   21    18    21    1
   22    21    22    1
   23    21    23    1
   24    13    24    1
   25    24    25    1
@<TRIPOS>SUBSTRUCTURE
       1 MOL1            1 RESIDUE      1      MOL     
@<SCITEGIC>MOL_PROPERTY
VConf Rank
SciTegic.value.IntegerValue
723

@<SCITEGIC>MOL_PROPERTY
Conf_Id
SciTegic.value.IntegerValue
30

@<SCITEGIC>MOL_PROPERTY
Delta U+W
SciTegic.value.DoubleValue
0.000

@<SCITEGIC>MOL_PROPERTY
U+W
SciTegic.value.DoubleValue
10.913

@<SCITEGIC>MOL_PROPERTY
Grad RMS
SciTegic.value.DoubleValue
0.000000

@<SCITEGIC>MOL_PROPERTY
U
SciTegic.value.DoubleValue
13.140

@<SCITEGIC>MOL_PROPERTY
W
SciTegic.value.DoubleValue
-2.227

@<SCITEGIC>MOL_PROPERTY
W(PB)
SciTegic.value.DoubleValue
-4.367

@<SCITEGIC>MOL_PROPERTY
W(SA)
SciTegic.value.DoubleValue
2.140

@<SCITEGIC>MOL_PROPERTY
Valence
SciTegic.value.DoubleValue
19.155

@<SCITEGIC>MOL_PROPERTY
Coulomb
SciTegic.value.DoubleValue
-8.157

@<SCITEGIC>MOL_PROPERTY
VdW
SciTegic.value.DoubleValue
2.142

@<SCITEGIC>MOL_PROPERTY
VdW6
SciTegic.value.DoubleValue
-11.576

@<SCITEGIC>MOL_PROPERTY
VdW12
SciTegic.value.DoubleValue
13.718

@<SCITEGIC>MOL_PROPERTY
Bond
SciTegic.value.DoubleValue
0.294

@<SCITEGIC>MOL_PROPERTY
Angle
SciTegic.value.DoubleValue
3.547

@<SCITEGIC>MOL_PROPERTY
Pdih
SciTegic.value.DoubleValue
15.314

@<SCITEGIC>MOL_PROPERTY
Idih
SciTegic.value.DoubleValue
0.000

@<SCITEGIC>MOL_PROPERTY
Tether
SciTegic.value.DoubleValue
0.000

@<TRIPOS>MOLECULE
guest-s17_confgen4.mol2 : confsearch ligand conformer 724
          25          25           1
SMALL
USER_CHARGES
 
@<TRIPOS>ATOM
       1    C1      22.110950   18.820512   23.703233 C.3        1 MOL1        -0.1684
       2    H1      23.172082   18.952351   23.451295 H          1 MOL1         0.0833
       3    H2      22.098124   18.316700   24.679339 H          1 MOL1         0.0833
       4    C2      21.472607   17.871373   22.659329 C.3        1 MOL1        -0.1684
       5    H3      22.167402   17.037213   22.491083 H          1 MOL1         0.0833
       6    H4      20.577304   17.404053   23.085475 H          1 MOL1         0.0833
       7    C3      21.159294   18.537041   21.295319 C.3        1 MOL1        -0.1684
       8    H5      21.659015   17.966015   20.501031 H          1 MOL1         0.0833
       9    H6      21.597904   19.539960   21.236907 H          1 MOL1         0.0833
      10    C4      19.648301   18.607194   20.958368 C.3        1 MOL1        -0.1760
      11    H7      19.518570   19.253608   20.080258 H          1 MOL1         0.0833
      12    H8      19.314755   17.608110   20.648941 H          1 MOL1         0.0833
      13    C5      18.701608   19.090259   22.085575 C.3        1 MOL1         0.1219
      14    H9      18.632701   18.312548   22.857847 H          1 MOL1         0.0790
      15    C6      19.109188   20.422839   22.760413 C.3        1 MOL1        -0.1760
      16    H10     19.622236   21.073545   22.040750 H          1 MOL1         0.0833
      17    H11     18.192046   20.960760   23.035162 H          1 MOL1         0.0833
      18    C7      19.944654   20.269482   24.062806 C.3        1 MOL1        -0.1684
      19    H12     19.607745   19.406054   24.652218 H          1 MOL1         0.0833
      20    H13     19.729196   21.148912   24.685236 H          1 MOL1         0.0833
      21    C8      21.479285   20.229666   23.857571 C.3        1 MOL1        -0.1684
      22    H14     21.948945   20.695835   24.734596 H          1 MOL1         0.0833
      23    H15     21.761550   20.873743   23.015062 H          1 MOL1         0.0833
      24    O1      17.411538   19.254987   21.508684 O.3        1 MOL1        -0.5508
      25    H16     16.801637   19.482541   22.241278 H          1 MOL1         0.3780
@<TRIPOS>BOND
    1     1     2    1
    2     1     3    1
    3     1     4    1
    4     4     5    1
    5     4     6    1
    6     4     7    1
    7     7     8    1
    8     7     9    1
    9     7    10    1
   10    10    11    1
   11    10    12    1
   12    10    13    1
   13    13    14    1
   14    13    15    1
   15    15    16    1
   16    15    17    1
   17    15    18    1
   18    18    19    1
   19    18    20    1
   20     1    21    1
   21    18    21    1
   22    21    22    1
   23    21    23    1
   24    13    24    1
   25    24    25    1
@<TRIPOS>SUBSTRUCTURE
       1 MOL1            1 RESIDUE      1      MOL     
@<SCITEGIC>MOL_PROPERTY
VConf Rank
SciTegic.value.IntegerValue
724

@<SCITEGIC>MOL_PROPERTY
Conf_Id
SciTegic.value.IntegerValue
162

@<SCITEGIC>MOL_PROPERTY
Delta U+W
SciTegic.value.DoubleValue
0.219

@<SCITEGIC>MOL_PROPERTY
U+W
SciTegic.value.DoubleValue
11.132

@<SCITEGIC>MOL_PROPERTY
Grad RMS
SciTegic.value.DoubleValue
0.000000

@<SCITEGIC>MOL_PROPERTY
U
SciTegic.value.DoubleValue
13.296

@<SCITEGIC>MOL_PROPERTY
W
SciTegic.value.DoubleValue
-2.164

@<SCITEGIC>MOL_PROPERTY
W(PB)
SciTegic.value.DoubleValue
-4.311

@<SCITEGIC>MOL_PROPERTY
W(SA)
SciTegic.value.DoubleValue
2.148

@<SCITEGIC>MOL_PROPERTY
Valence
SciTegic.value.DoubleValue
18.607

@<SCITEGIC>MOL_PROPERTY
Coulomb
SciTegic.value.DoubleValue
-8.339

@<SCITEGIC>MOL_PROPERTY
VdW
SciTegic.value.DoubleValue
3.028

@<SCITEGIC>MOL_PROPERTY
VdW6
SciTegic.value.DoubleValue
-12.271

@<SCITEGIC>MOL_PROPERTY
VdW12
SciTegic.value.DoubleValue
15.299

@<SCITEGIC>MOL_PROPERTY
Bond
SciTegic.value.DoubleValue
0.423

@<SCITEGIC>MOL_PROPERTY
Angle
SciTegic.value.DoubleValue
4.488

@<SCITEGIC>MOL_PROPERTY
Pdih
SciTegic.value.DoubleValue
13.696

@<SCITEGIC>MOL_PROPERTY
Idih
SciTegic.value.DoubleValue
0.000

@<SCITEGIC>MOL_PROPERTY
Tether
SciTegic.value.DoubleValue
0.000

@<TRIPOS>MOLECULE
guest-s17_confgen4.mol2 : confsearch ligand conformer 725
          25          25           1
SMALL
USER_CHARGES
 
@<TRIPOS>ATOM
       1    C1      19.299188   20.731586   23.481488 C.3        1 MOL1        -0.1684
       2    H1      19.484217   21.297652   22.559790 H          1 MOL1         0.0833
       3    H2      18.662519   21.388348   24.089996 H          1 MOL1         0.0833
       4    C2      18.493463   19.447983   23.160749 C.3        1 MOL1        -0.1684
       5    H3      18.600314   18.709167   23.966332 H          1 MOL1         0.0833
       6    H4      17.431469   19.729583   23.163790 H          1 MOL1         0.0833
       7    C3      18.786384   18.812108   21.773153 C.3        1 MOL1        -0.1684
       8    H5      18.960477   19.584070   21.011620 H          1 MOL1         0.0833
       9    H6      17.867692   18.297334   21.459875 H          1 MOL1         0.0833
      10    C4      19.920765   17.754713   21.756246 C.3        1 MOL1        -0.1760
      11    H7      19.932291   17.202981   22.704273 H          1 MOL1         0.0833
      12    H8      19.668339   17.004324   20.995712 H          1 MOL1         0.0833
      13    C5      21.339566   18.273139   21.410469 C.3        1 MOL1         0.1219
      14    H9      21.349505   18.540502   20.343928 H          1 MOL1         0.0790
      15    C6      21.827652   19.511413   22.199457 C.3        1 MOL1        -0.1760
      16    H10     22.902247   19.641072   22.016608 H          1 MOL1         0.0833
      17    H11     21.368337   20.409117   21.771982 H          1 MOL1         0.0833
      18    C7      21.587375   19.442429   23.730791 C.3        1 MOL1        -0.1684
      19    H12     22.551199   19.556432   24.244996 H          1 MOL1         0.0833
      20    H13     21.229273   18.449245   24.026528 H          1 MOL1         0.0833
      21    C8      20.619559   20.523452   24.269776 C.3        1 MOL1        -0.1684
      22    H14     21.150333   21.484524   24.306609 H          1 MOL1         0.0833
      23    H15     20.375597   20.277009   25.312110 H          1 MOL1         0.0833
      24    O1      22.256559   17.207244   21.627477 O.3        1 MOL1        -0.5508
      25    H16     23.146390   17.551892   21.407166 H          1 MOL1         0.3780
@<TRIPOS>BOND
    1     1     2    1
    2     1     3    1
    3     1     4    1
    4     4     5    1
    5     4     6    1
    6     4     7    1
    7     7     8    1
    8     7     9    1
    9     7    10    1
   10    10    11    1
   11    10    12    1
   12    10    13    1
   13    13    14    1
   14    13    15    1
   15    15    16    1
   16    15    17    1
   17    15    18    1
   18    18    19    1
   19    18    20    1
   20     1    21    1
   21    18    21    1
   22    21    22    1
   23    21    23    1
   24    13    24    1
   25    24    25    1
@<TRIPOS>SUBSTRUCTURE
       1 MOL1            1 RESIDUE      1      MOL     
@<SCITEGIC>MOL_PROPERTY
VConf Rank
SciTegic.value.IntegerValue
725

@<SCITEGIC>MOL_PROPERTY
Conf_Id
SciTegic.value.IntegerValue
155

@<SCITEGIC>MOL_PROPERTY
Delta U+W
SciTegic.value.DoubleValue
0.339

@<SCITEGIC>MOL_PROPERTY
U+W
SciTegic.value.DoubleValue
11.252

@<SCITEGIC>MOL_PROPERTY
Grad RMS
SciTegic.value.DoubleValue
0.000000

@<SCITEGIC>MOL_PROPERTY
U
SciTegic.value.DoubleValue
13.420

@<SCITEGIC>MOL_PROPERTY
W
SciTegic.value.DoubleValue
-2.167

@<SCITEGIC>MOL_PROPERTY
W(PB)
SciTegic.value.DoubleValue
-4.325

@<SCITEGIC>MOL_PROPERTY
W(SA)
SciTegic.value.DoubleValue
2.157

@<SCITEGIC>MOL_PROPERTY
Valence
SciTegic.value.DoubleValue
18.609

@<SCITEGIC>MOL_PROPERTY
Coulomb
SciTegic.value.DoubleValue
-8.052

@<SCITEGIC>MOL_PROPERTY
VdW
SciTegic.value.DoubleValue
2.863

@<SCITEGIC>MOL_PROPERTY
VdW6
SciTegic.value.DoubleValue
-12.524

@<SCITEGIC>MOL_PROPERTY
VdW12
SciTegic.value.DoubleValue
15.387

@<SCITEGIC>MOL_PROPERTY
Bond
SciTegic.value.DoubleValue
0.430

@<SCITEGIC>MOL_PROPERTY
Angle
SciTegic.value.DoubleValue
4.724

@<SCITEGIC>MOL_PROPERTY
Pdih
SciTegic.value.DoubleValue
13.455

@<SCITEGIC>MOL_PROPERTY
Idih
SciTegic.value.DoubleValue
0.000

@<SCITEGIC>MOL_PROPERTY
Tether
SciTegic.value.DoubleValue
0.000

@<TRIPOS>MOLECULE
guest-s17_confgen4.mol2 : confsearch ligand conformer 726
          25          25           1
SMALL
USER_CHARGES
 
@<TRIPOS>ATOM
       1    C1      22.073861   18.193961   22.759767 C.3        1 MOL1        -0.1684
       2    H1      22.408791   17.787100   21.796116 H          1 MOL1         0.0833
       3    H2      22.844419   17.899233   23.485135 H          1 MOL1         0.0833
       4    C2      22.087306   19.743839   22.692547 C.3        1 MOL1        -0.1684
       5    H3      21.867400   20.150648   23.684660 H          1 MOL1         0.0833
       6    H4      23.123609   20.059046   22.509690 H          1 MOL1         0.0833
       7    C3      21.204048   20.425063   21.606728 C.3        1 MOL1        -0.1684
       8    H5      21.795421   20.469819   20.682159 H          1 MOL1         0.0833
       9    H6      21.029304   21.470707   21.894503 H          1 MOL1         0.0833
      10    C4      19.846254   19.763473   21.245347 C.3        1 MOL1        -0.1760
      11    H7      19.442215   20.297960   20.375649 H          1 MOL1         0.0833
      12    H8      20.028802   18.758092   20.855941 H          1 MOL1         0.0833
      13    C5      18.738173   19.726404   22.338548 C.3        1 MOL1         0.1219
      14    H9      18.053232   18.902092   22.093321 H          1 MOL1         0.0790
      15    C6      19.185585   19.551227   23.811530 C.3        1 MOL1        -0.1760
      16    H10     19.818816   20.396748   24.095486 H          1 MOL1         0.0833
      17    H11     18.295400   19.670958   24.443084 H          1 MOL1         0.0833
      18    C7      19.849906   18.200767   24.215562 C.3        1 MOL1        -0.1684
      19    H12     19.042857   17.501873   24.474515 H          1 MOL1         0.0833
      20    H13     20.418091   18.348366   25.143841 H          1 MOL1         0.0833
      21    C8      20.750619   17.485983   23.174174 C.3        1 MOL1        -0.1684
      22    H14     20.154042   17.228961   22.293258 H          1 MOL1         0.0833
      23    H15     21.026078   16.507540   23.590890 H          1 MOL1         0.0833
      24    O1      18.015325   20.950638   22.268368 O.3        1 MOL1        -0.5508
      25    H16     17.689170   21.034376   21.348666 H          1 MOL1         0.3780
@<TRIPOS>BOND
    1     1     2    1
    2     1     3    1
    3     1     4    1
    4     4     5    1
    5     4     6    1
    6     4     7    1
    7     7     8    1
    8     7     9    1
    9     7    10    1
   10    10    11    1
   11    10    12    1
   12    10    13    1
   13    13    14    1
   14    13    15    1
   15    15    16    1
   16    15    17    1
   17    15    18    1
   18    18    19    1
   19    18    20    1
   20     1    21    1
   21    18    21    1
   22    21    22    1
   23    21    23    1
   24    13    24    1
   25    24    25    1
@<TRIPOS>SUBSTRUCTURE
       1 MOL1            1 RESIDUE      1      MOL     
@<SCITEGIC>MOL_PROPERTY
VConf Rank
SciTegic.value.IntegerValue
726

@<SCITEGIC>MOL_PROPERTY
Conf_Id
SciTegic.value.IntegerValue
146

@<SCITEGIC>MOL_PROPERTY
Delta U+W
SciTegic.value.DoubleValue
2.553

@<SCITEGIC>MOL_PROPERTY
U+W
SciTegic.value.DoubleValue
13.466

@<SCITEGIC>MOL_PROPERTY
Grad RMS
SciTegic.value.DoubleValue
0.000000

@<SCITEGIC>MOL_PROPERTY
U
SciTegic.value.DoubleValue
15.643

@<SCITEGIC>MOL_PROPERTY
W
SciTegic.value.DoubleValue
-2.176

@<SCITEGIC>MOL_PROPERTY
W(PB)
SciTegic.value.DoubleValue
-4.307

@<SCITEGIC>MOL_PROPERTY
W(SA)
SciTegic.value.DoubleValue
2.131

@<SCITEGIC>MOL_PROPERTY
Valence
SciTegic.value.DoubleValue
18.916

@<SCITEGIC>MOL_PROPERTY
Coulomb
SciTegic.value.DoubleValue
-7.506

@<SCITEGIC>MOL_PROPERTY
VdW
SciTegic.value.DoubleValue
4.232

@<SCITEGIC>MOL_PROPERTY
VdW6
SciTegic.value.DoubleValue
-13.632

@<SCITEGIC>MOL_PROPERTY
VdW12
SciTegic.value.DoubleValue
17.864

@<SCITEGIC>MOL_PROPERTY
Bond
SciTegic.value.DoubleValue
0.735

@<SCITEGIC>MOL_PROPERTY
Angle
SciTegic.value.DoubleValue
9.140

@<SCITEGIC>MOL_PROPERTY
Pdih
SciTegic.value.DoubleValue
9.042

@<SCITEGIC>MOL_PROPERTY
Idih
SciTegic.value.DoubleValue
0.000

@<SCITEGIC>MOL_PROPERTY
Tether
SciTegic.value.DoubleValue
0.000

@<TRIPOS>MOLECULE
guest-s17_confgen4.mol2 : confsearch ligand conformer 727
          25          25           1
SMALL
USER_CHARGES
 
@<TRIPOS>ATOM
       1    C1      22.350881   19.643715   22.738338 C.3        1 MOL1        -0.1684
       2    H1      23.110231   18.854135   22.657994 H          1 MOL1         0.0833
       3    H2      22.910375   20.581608   22.857651 H          1 MOL1         0.0833
       4    C2      21.525743   19.429843   24.031995 C.3        1 MOL1        -0.1684
       5    H3      22.224171   19.491045   24.877722 H          1 MOL1         0.0833
       6    H4      20.833648   20.265704   24.185251 H          1 MOL1         0.0833
       7    C3      20.779401   18.077232   24.149461 C.3        1 MOL1        -0.1684
       8    H5      20.343663   18.026412   25.156700 H          1 MOL1         0.0833
       9    H6      21.506432   17.255530   24.097739 H          1 MOL1         0.0833
      10    C4      19.643718   17.809797   23.127498 C.3        1 MOL1        -0.1760
      11    H7      20.060233   17.448442   22.181979 H          1 MOL1         0.0833
      12    H8      19.057926   16.963140   23.510324 H          1 MOL1         0.0833
      13    C5      18.693606   19.007896   22.870746 C.3        1 MOL1         0.1219
      14    H9      18.764306   19.719238   23.704555 H          1 MOL1         0.0790
      15    C6      18.958108   19.752182   21.537389 C.3        1 MOL1        -0.1760
      16    H10     18.919455   19.032487   20.708978 H          1 MOL1         0.0833
      17    H11     18.125274   20.446678   21.365916 H          1 MOL1         0.0833
      18    C7      20.271773   20.574772   21.441300 C.3        1 MOL1        -0.1684
      19    H12     20.317816   21.330002   22.236477 H          1 MOL1         0.0833
      20    H13     20.223458   21.147435   20.504974 H          1 MOL1         0.0833
      21    C8      21.569395   19.726781   21.401630 C.3        1 MOL1        -0.1684
      22    H14     22.246180   20.172664   20.659883 H          1 MOL1         0.0833
      23    H15     21.361927   18.723636   21.012422 H          1 MOL1         0.0833
      24    O1      17.360521   18.512126   22.821288 O.3        1 MOL1        -0.5508
      25    H16     16.772856   19.289399   22.717764 H          1 MOL1         0.3780
@<TRIPOS>BOND
    1     1     2    1
    2     1     3    1
    3     1     4    1
    4     4     5    1
    5     4     6    1
    6     4     7    1
    7     7     8    1
    8     7     9    1
    9     7    10    1
   10    10    11    1
   11    10    12    1
   12    10    13    1
   13    13    14    1
   14    13    15    1
   15    15    16    1
   16    15    17    1
   17    15    18    1
   18    18    19    1
   19    18    20    1
   20     1    21    1
   21    18    21    1
   22    21    22    1
   23    21    23    1
   24    13    24    1
   25    24    25    1
@<TRIPOS>SUBSTRUCTURE
       1 MOL1            1 RESIDUE      1      MOL     
@<SCITEGIC>MOL_PROPERTY
VConf Rank
SciTegic.value.IntegerValue
727

@<SCITEGIC>MOL_PROPERTY
Conf_Id
SciTegic.value.IntegerValue
62

@<SCITEGIC>MOL_PROPERTY
Delta U+W
SciTegic.value.DoubleValue
-1.779

@<SCITEGIC>MOL_PROPERTY
U+W
SciTegic.value.DoubleValue
9.134

@<SCITEGIC>MOL_PROPERTY
Grad RMS
SciTegic.value.DoubleValue
0.000000

@<SCITEGIC>MOL_PROPERTY
U
SciTegic.value.DoubleValue
11.364

@<SCITEGIC>MOL_PROPERTY
W
SciTegic.value.DoubleValue
-2.230

@<SCITEGIC>MOL_PROPERTY
W(PB)
SciTegic.value.DoubleValue
-4.359

@<SCITEGIC>MOL_PROPERTY
W(SA)
SciTegic.value.DoubleValue
2.129

@<SCITEGIC>MOL_PROPERTY
Valence
SciTegic.value.DoubleValue
16.582

@<SCITEGIC>MOL_PROPERTY
Coulomb
SciTegic.value.DoubleValue
-8.150

@<SCITEGIC>MOL_PROPERTY
VdW
SciTegic.value.DoubleValue
2.933

@<SCITEGIC>MOL_PROPERTY
VdW6
SciTegic.value.DoubleValue
-12.531

@<SCITEGIC>MOL_PROPERTY
VdW12
SciTegic.value.DoubleValue
15.464

@<SCITEGIC>MOL_PROPERTY
Bond
SciTegic.value.DoubleValue
0.439

@<SCITEGIC>MOL_PROPERTY
Angle
SciTegic.value.DoubleValue
5.099

@<SCITEGIC>MOL_PROPERTY
Pdih
SciTegic.value.DoubleValue
11.044

@<SCITEGIC>MOL_PROPERTY
Idih
SciTegic.value.DoubleValue
0.000

@<SCITEGIC>MOL_PROPERTY
Tether
SciTegic.value.DoubleValue
0.000

@<TRIPOS>MOLECULE
guest-s17_confgen4.mol2 : confsearch ligand conformer 728
          25          25           1
SMALL
USER_CHARGES
 
@<TRIPOS>ATOM
       1    C1      19.657931   20.637372   23.623192 C.3        1 MOL1        -0.1684
       2    H1      19.958480   21.072752   22.663381 H          1 MOL1         0.0833
       3    H2      19.256823   21.483696   24.197201 H          1 MOL1         0.0833
       4    C2      20.896872   20.108603   24.388098 C.3        1 MOL1        -0.1684
       5    H3      21.569978   20.961009   24.553078 H          1 MOL1         0.0833
       6    H4      20.590273   19.774452   25.388515 H          1 MOL1         0.0833
       7    C3      21.717313   18.981302   23.710756 C.3        1 MOL1        -0.1684
       8    H5      21.261373   18.003833   23.904831 H          1 MOL1         0.0833
       9    H6      22.689173   18.937023   24.221201 H          1 MOL1         0.0833
      10    C4      21.975524   19.170046   22.191870 C.3        1 MOL1        -0.1760
      11    H7      21.918263   20.228716   21.910463 H          1 MOL1         0.0833
      12    H8      23.015901   18.875916   22.000957 H          1 MOL1         0.0833
      13    C5      21.076321   18.312753   21.265653 C.3        1 MOL1         0.1219
      14    H9      21.155059   17.263261   21.584006 H          1 MOL1         0.0790
      15    C6      19.574648   18.690812   21.221402 C.3        1 MOL1        -0.1760
      16    H10     19.450023   19.735006   20.910088 H          1 MOL1         0.0833
      17    H11     19.118413   18.094736   20.419933 H          1 MOL1         0.0833
      18    C7      18.785030   18.395966   22.524913 C.3        1 MOL1        -0.1684
      19    H12     19.278865   17.606784   23.103070 H          1 MOL1         0.0833
      20    H13     17.813212   17.965512   22.247014 H          1 MOL1         0.0833
      21    C8      18.499558   19.629162   23.419706 C.3        1 MOL1        -0.1684
      22    H14     18.142485   19.283874   24.399379 H          1 MOL1         0.0833
      23    H15     17.659385   20.179409   22.974490 H          1 MOL1         0.0833
      24    O1      21.585457   18.428022   19.942808 O.3        1 MOL1        -0.5508
      25    H16     22.515831   18.121714   19.969793 H          1 MOL1         0.3780
@<TRIPOS>BOND
    1     1     2    1
    2     1     3    1
    3     1     4    1
    4     4     5    1
    5     4     6    1
    6     4     7    1
    7     7     8    1
    8     7     9    1
    9     7    10    1
   10    10    11    1
   11    10    12    1
   12    10    13    1
   13    13    14    1
   14    13    15    1
   15    15    16    1
   16    15    17    1
   17    15    18    1
   18    18    19    1
   19    18    20    1
   20     1    21    1
   21    18    21    1
   22    21    22    1
   23    21    23    1
   24    13    24    1
   25    24    25    1
@<TRIPOS>SUBSTRUCTURE
       1 MOL1            1 RESIDUE      1      MOL     
@<SCITEGIC>MOL_PROPERTY
VConf Rank
SciTegic.value.IntegerValue
728

@<SCITEGIC>MOL_PROPERTY
Conf_Id
SciTegic.value.IntegerValue
121

@<SCITEGIC>MOL_PROPERTY
Delta U+W
SciTegic.value.DoubleValue
-1.283

@<SCITEGIC>MOL_PROPERTY
U+W
SciTegic.value.DoubleValue
9.630

@<SCITEGIC>MOL_PROPERTY
Grad RMS
SciTegic.value.DoubleValue
0.000000

@<SCITEGIC>MOL_PROPERTY
U
SciTegic.value.DoubleValue
11.876

@<SCITEGIC>MOL_PROPERTY
W
SciTegic.value.DoubleValue
-2.246

@<SCITEGIC>MOL_PROPERTY
W(PB)
SciTegic.value.DoubleValue
-4.376

@<SCITEGIC>MOL_PROPERTY
W(SA)
SciTegic.value.DoubleValue
2.130

@<SCITEGIC>MOL_PROPERTY
Valence
SciTegic.value.DoubleValue
17.153

@<SCITEGIC>MOL_PROPERTY
Coulomb
SciTegic.value.DoubleValue
-7.966

@<SCITEGIC>MOL_PROPERTY
VdW
SciTegic.value.DoubleValue
2.689

@<SCITEGIC>MOL_PROPERTY
VdW6
SciTegic.value.DoubleValue
-12.458

@<SCITEGIC>MOL_PROPERTY
VdW12
SciTegic.value.DoubleValue
15.147

@<SCITEGIC>MOL_PROPERTY
Bond
SciTegic.value.DoubleValue
0.421

@<SCITEGIC>MOL_PROPERTY
Angle
SciTegic.value.DoubleValue
5.258

@<SCITEGIC>MOL_PROPERTY
Pdih
SciTegic.value.DoubleValue
11.475

@<SCITEGIC>MOL_PROPERTY
Idih
SciTegic.value.DoubleValue
0.000

@<SCITEGIC>MOL_PROPERTY
Tether
SciTegic.value.DoubleValue
0.000

@<TRIPOS>MOLECULE
guest-s17_confgen4.mol2 : confsearch ligand conformer 729
          25          25           1
SMALL
USER_CHARGES
 
@<TRIPOS>ATOM
       1    C1      19.029089   20.582695   22.667416 C.3        1 MOL1        -0.1684
       2    H1      19.934152   21.102857   23.001205 H          1 MOL1         0.0833
       3    H2      18.254690   21.361462   22.645767 H          1 MOL1         0.0833
       4    C2      18.593453   19.529643   23.716714 C.3        1 MOL1        -0.1684
       5    H3      18.397742   20.063707   24.656584 H          1 MOL1         0.0833
       6    H4      17.630617   19.094636   23.416385 H          1 MOL1         0.0833
       7    C3      19.590276   18.382640   24.022743 C.3        1 MOL1        -0.1684
       8    H5      19.495401   17.581836   23.280681 H          1 MOL1         0.0833
       9    H6      19.272323   17.920646   24.967420 H          1 MOL1         0.0833
      10    C4      21.073839   18.814901   24.170270 C.3        1 MOL1        -0.1760
      11    H7      21.152467   19.870548   24.457003 H          1 MOL1         0.0833
      12    H8      21.495989   18.254607   25.015060 H          1 MOL1         0.0833
      13    C5      21.967876   18.518069   22.940432 C.3        1 MOL1         0.1219
      14    H9      21.856791   17.454098   22.686253 H          1 MOL1         0.0790
      15    C6      21.686235   19.353819   21.666231 C.3        1 MOL1        -0.1760
      16    H10     21.779799   20.425421   21.881096 H          1 MOL1         0.0833
      17    H11     22.485364   19.132268   20.946751 H          1 MOL1         0.0833
      18    C7      20.337765   19.040800   20.964122 C.3        1 MOL1        -0.1684
      19    H12     20.000656   18.028117   21.212766 H          1 MOL1         0.0833
      20    H13     20.513615   19.013071   19.879995 H          1 MOL1         0.0833
      21    C8      19.205373   20.068699   21.216765 C.3        1 MOL1        -0.1684
      22    H14     18.255043   19.646057   20.863579 H          1 MOL1         0.0833
      23    H15     19.396849   20.942635   20.579221 H          1 MOL1         0.0833
      24    O1      23.316162   18.757461   23.324152 O.3        1 MOL1        -0.5508
      25    H16     23.876998   18.501879   22.562384 H          1 MOL1         0.3780
@<TRIPOS>BOND
    1     1     2    1
    2     1     3    1
    3     1     4    1
    4     4     5    1
    5     4     6    1
    6     4     7    1
    7     7     8    1
    8     7     9    1
    9     7    10    1
   10    10    11    1
   11    10    12    1
   12    10    13    1
   13    13    14    1
   14    13    15    1
   15    15    16    1
   16    15    17    1
   17    15    18    1
   18    18    19    1
   19    18    20    1
   20     1    21    1
   21    18    21    1
   22    21    22    1
   23    21    23    1
   24    13    24    1
   25    24    25    1
@<TRIPOS>SUBSTRUCTURE
       1 MOL1            1 RESIDUE      1      MOL     
@<SCITEGIC>MOL_PROPERTY
VConf Rank
SciTegic.value.IntegerValue
729

@<SCITEGIC>MOL_PROPERTY
Conf_Id
SciTegic.value.IntegerValue
24

@<SCITEGIC>MOL_PROPERTY
Delta U+W
SciTegic.value.DoubleValue
-1.236

@<SCITEGIC>MOL_PROPERTY
U+W
SciTegic.value.DoubleValue
9.678

@<SCITEGIC>MOL_PROPERTY
Grad RMS
SciTegic.value.DoubleValue
0.000000

@<SCITEGIC>MOL_PROPERTY
U
SciTegic.value.DoubleValue
11.876

@<SCITEGIC>MOL_PROPERTY
W
SciTegic.value.DoubleValue
-2.199

@<SCITEGIC>MOL_PROPERTY
W(PB)
SciTegic.value.DoubleValue
-4.335

@<SCITEGIC>MOL_PROPERTY
W(SA)
SciTegic.value.DoubleValue
2.137

@<SCITEGIC>MOL_PROPERTY
Valence
SciTegic.value.DoubleValue
17.153

@<SCITEGIC>MOL_PROPERTY
Coulomb
SciTegic.value.DoubleValue
-7.966

@<SCITEGIC>MOL_PROPERTY
VdW
SciTegic.value.DoubleValue
2.689

@<SCITEGIC>MOL_PROPERTY
VdW6
SciTegic.value.DoubleValue
-12.458

@<SCITEGIC>MOL_PROPERTY
VdW12
SciTegic.value.DoubleValue
15.147

@<SCITEGIC>MOL_PROPERTY
Bond
SciTegic.value.DoubleValue
0.421

@<SCITEGIC>MOL_PROPERTY
Angle
SciTegic.value.DoubleValue
5.258

@<SCITEGIC>MOL_PROPERTY
Pdih
SciTegic.value.DoubleValue
11.475

@<SCITEGIC>MOL_PROPERTY
Idih
SciTegic.value.DoubleValue
0.000

@<SCITEGIC>MOL_PROPERTY
Tether
SciTegic.value.DoubleValue
0.000

@<TRIPOS>MOLECULE
guest-s17_confgen4.mol2 : confsearch ligand conformer 730
          25          25           1
SMALL
USER_CHARGES
 
@<TRIPOS>ATOM
       1    C1      19.208275   17.387631   23.158366 C.3        1 MOL1        -0.1684
       2    H1      19.193306   16.499284   22.512307 H          1 MOL1         0.0833
       3    H2      18.551138   17.149599   24.005930 H          1 MOL1         0.0833
       4    C2      20.645812   17.583358   23.709165 C.3        1 MOL1        -0.1684
       5    H3      20.636332   18.237082   24.590555 H          1 MOL1         0.0833
       6    H4      20.978066   16.607486   24.089096 H          1 MOL1         0.0833
       7    C3      21.701498   18.082232   22.691662 C.3        1 MOL1        -0.1684
       8    H5      21.502455   17.674378   21.691415 H          1 MOL1         0.0833
       9    H6      22.665404   17.650982   22.995158 H          1 MOL1         0.0833
      10    C4      21.893378   19.624500   22.641499 C.3        1 MOL1        -0.1760
      11    H7      21.795706   20.062915   23.642863 H          1 MOL1         0.0833
      12    H8      22.935932   19.800832   22.343271 H          1 MOL1         0.0833
      13    C5      20.981398   20.364754   21.632839 C.3        1 MOL1         0.1219
      14    H9      20.745110   19.679422   20.808119 H          1 MOL1         0.0790
      15    C6      19.664343   20.931957   22.220594 C.3        1 MOL1        -0.1760
      16    H10     19.891756   21.800050   22.853103 H          1 MOL1         0.0833
      17    H11     19.065652   21.316409   21.384301 H          1 MOL1         0.0833
      18    C7      18.785657   19.953705   23.040091 C.3        1 MOL1        -0.1684
      19    H12     17.800888   20.418921   23.183487 H          1 MOL1         0.0833
      20    H13     19.194675   19.848160   24.051652 H          1 MOL1         0.0833
      21    C8      18.588917   18.569212   22.372390 C.3        1 MOL1        -0.1684
      22    H14     18.970835   18.568338   21.344872 H          1 MOL1         0.0833
      23    H15     17.511854   18.379435   22.268506 H          1 MOL1         0.0833
      24    O1      21.708654   21.461136   21.093622 O.3        1 MOL1        -0.5508
      25    H16     21.925824   22.047144   21.847547 H          1 MOL1         0.3780
@<TRIPOS>BOND
    1     1     2    1
    2     1     3    1
    3     1     4    1
    4     4     5    1
    5     4     6    1
    6     4     7    1
    7     7     8    1
    8     7     9    1
    9     7    10    1
   10    10    11    1
   11    10    12    1
   12    10    13    1
   13    13    14    1
   14    13    15    1
   15    15    16    1
   16    15    17    1
   17    15    18    1
   18    18    19    1
   19    18    20    1
   20     1    21    1
   21    18    21    1
   22    21    22    1
   23    21    23    1
   24    13    24    1
   25    24    25    1
@<TRIPOS>SUBSTRUCTURE
       1 MOL1            1 RESIDUE      1      MOL     
@<SCITEGIC>MOL_PROPERTY
VConf Rank
SciTegic.value.IntegerValue
730

@<SCITEGIC>MOL_PROPERTY
Conf_Id
SciTegic.value.IntegerValue
167

@<SCITEGIC>MOL_PROPERTY
Delta U+W
SciTegic.value.DoubleValue
0.388

@<SCITEGIC>MOL_PROPERTY
U+W
SciTegic.value.DoubleValue
11.301

@<SCITEGIC>MOL_PROPERTY
Grad RMS
SciTegic.value.DoubleValue
0.000000

@<SCITEGIC>MOL_PROPERTY
U
SciTegic.value.DoubleValue
13.202

@<SCITEGIC>MOL_PROPERTY
W
SciTegic.value.DoubleValue
-1.901

@<SCITEGIC>MOL_PROPERTY
W(PB)
SciTegic.value.DoubleValue
-4.065

@<SCITEGIC>MOL_PROPERTY
W(SA)
SciTegic.value.DoubleValue
2.163

@<SCITEGIC>MOL_PROPERTY
Valence
SciTegic.value.DoubleValue
18.957

@<SCITEGIC>MOL_PROPERTY
Coulomb
SciTegic.value.DoubleValue
-8.753

@<SCITEGIC>MOL_PROPERTY
VdW
SciTegic.value.DoubleValue
2.998

@<SCITEGIC>MOL_PROPERTY
VdW6
SciTegic.value.DoubleValue
-12.294

@<SCITEGIC>MOL_PROPERTY
VdW12
SciTegic.value.DoubleValue
15.292

@<SCITEGIC>MOL_PROPERTY
Bond
SciTegic.value.DoubleValue
0.419

@<SCITEGIC>MOL_PROPERTY
Angle
SciTegic.value.DoubleValue
4.543

@<SCITEGIC>MOL_PROPERTY
Pdih
SciTegic.value.DoubleValue
13.996

@<SCITEGIC>MOL_PROPERTY
Idih
SciTegic.value.DoubleValue
0.000

@<SCITEGIC>MOL_PROPERTY
Tether
SciTegic.value.DoubleValue
0.000

@<TRIPOS>MOLECULE
guest-s17_confgen4.mol2 : confsearch ligand conformer 731
          25          25           1
SMALL
USER_CHARGES
 
@<TRIPOS>ATOM
       1    C1      21.638442   19.127084   21.082158 C.3        1 MOL1        -0.1684
       2    H1      21.337122   18.723541   20.106012 H          1 MOL1         0.0833
       3    H2      22.686957   19.433290   20.964799 H          1 MOL1         0.0833
       4    C2      21.594970   17.986465   22.132112 C.3        1 MOL1        -0.1684
       5    H3      20.712041   17.355306   21.980854 H          1 MOL1         0.0833
       6    H4      22.444143   17.322125   21.920942 H          1 MOL1         0.0833
       7    C3      21.693811   18.438422   23.612251 C.3        1 MOL1        -0.1684
       8    H5      22.212353   19.402129   23.696832 H          1 MOL1         0.0833
       9    H6      22.338974   17.718924   24.134738 H          1 MOL1         0.0833
      10    C4      20.341633   18.471544   24.375643 C.3        1 MOL1        -0.1760
      11    H7      19.861879   17.486187   24.311221 H          1 MOL1         0.0833
      12    H8      20.566854   18.622054   25.439790 H          1 MOL1         0.0833
      13    C5      19.325762   19.561609   23.952356 C.3        1 MOL1         0.1219
      14    H9      19.817302   20.543146   23.985962 H          1 MOL1         0.0790
      15    C6      18.700987   19.334978   22.551278 C.3        1 MOL1        -0.1760
      16    H10     18.778172   18.279667   22.270862 H          1 MOL1         0.0833
      17    H11     17.620492   19.525764   22.596830 H          1 MOL1         0.0833
      18    C7      19.276130   20.231880   21.424539 C.3        1 MOL1        -0.1684
      19    H12     18.833311   21.231779   21.529698 H          1 MOL1         0.0833
      20    H13     18.927767   19.852584   20.454317 H          1 MOL1         0.0833
      21    C8      20.815373   20.404794   21.383285 C.3        1 MOL1        -0.1684
      22    H14     21.174495   20.881064   22.302713 H          1 MOL1         0.0833
      23    H15     21.040149   21.131203   20.590424 H          1 MOL1         0.0833
      24    O1      18.276612   19.558459   24.913313 O.3        1 MOL1        -0.5508
      25    H16     17.676280   20.295845   24.675867 H          1 MOL1         0.3780
@<TRIPOS>BOND
    1     1     2    1
    2     1     3    1
    3     1     4    1
    4     4     5    1
    5     4     6    1
    6     4     7    1
    7     7     8    1
    8     7     9    1
    9     7    10    1
   10    10    11    1
   11    10    12    1
   12    10    13    1
   13    13    14    1
   14    13    15    1
   15    15    16    1
   16    15    17    1
   17    15    18    1
   18    18    19    1
   19    18    20    1
   20     1    21    1
   21    18    21    1
   22    21    22    1
   23    21    23    1
   24    13    24    1
   25    24    25    1
@<TRIPOS>SUBSTRUCTURE
       1 MOL1            1 RESIDUE      1      MOL     
@<SCITEGIC>MOL_PROPERTY
VConf Rank
SciTegic.value.IntegerValue
731

@<SCITEGIC>MOL_PROPERTY
Conf_Id
SciTegic.value.IntegerValue
60

@<SCITEGIC>MOL_PROPERTY
Delta U+W
SciTegic.value.DoubleValue
-1.838

@<SCITEGIC>MOL_PROPERTY
U+W
SciTegic.value.DoubleValue
9.075

@<SCITEGIC>MOL_PROPERTY
Grad RMS
SciTegic.value.DoubleValue
0.000000

@<SCITEGIC>MOL_PROPERTY
U
SciTegic.value.DoubleValue
11.150

@<SCITEGIC>MOL_PROPERTY
W
SciTegic.value.DoubleValue
-2.074

@<SCITEGIC>MOL_PROPERTY
W(PB)
SciTegic.value.DoubleValue
-4.196

@<SCITEGIC>MOL_PROPERTY
W(SA)
SciTegic.value.DoubleValue
2.121

@<SCITEGIC>MOL_PROPERTY
Valence
SciTegic.value.DoubleValue
16.582

@<SCITEGIC>MOL_PROPERTY
Coulomb
SciTegic.value.DoubleValue
-8.361

@<SCITEGIC>MOL_PROPERTY
VdW
SciTegic.value.DoubleValue
2.928

@<SCITEGIC>MOL_PROPERTY
VdW6
SciTegic.value.DoubleValue
-12.539

@<SCITEGIC>MOL_PROPERTY
VdW12
SciTegic.value.DoubleValue
15.467

@<SCITEGIC>MOL_PROPERTY
Bond
SciTegic.value.DoubleValue
0.441

@<SCITEGIC>MOL_PROPERTY
Angle
SciTegic.value.DoubleValue
5.093

@<SCITEGIC>MOL_PROPERTY
Pdih
SciTegic.value.DoubleValue
11.049

@<SCITEGIC>MOL_PROPERTY
Idih
SciTegic.value.DoubleValue
0.000

@<SCITEGIC>MOL_PROPERTY
Tether
SciTegic.value.DoubleValue
0.000

@<TRIPOS>MOLECULE
guest-s17_confgen4.mol2 : confsearch ligand conformer 732
          25          25           1
SMALL
USER_CHARGES
 
@<TRIPOS>ATOM
       1    C1      22.237701   19.946634   22.525050 C.3        1 MOL1        -0.1684
       2    H1      22.995370   19.477901   21.882609 H          1 MOL1         0.0833
       3    H2      22.746670   20.785628   23.018971 H          1 MOL1         0.0833
       4    C2      21.815944   18.946934   23.631117 C.3        1 MOL1        -0.1684
       5    H3      22.714424   18.713084   24.218373 H          1 MOL1         0.0833
       6    H4      21.139432   19.431474   24.344349 H          1 MOL1         0.0833
       7    C3      21.222079   17.600885   23.144964 C.3        1 MOL1        -0.1684
       8    H5      21.083526   16.961978   24.027882 H          1 MOL1         0.0833
       9    H6      21.960609   17.084560   22.516844 H          1 MOL1         0.0833
      10    C4      19.871593   17.663616   22.385350 C.3        1 MOL1        -0.1760
      11    H7      20.039661   17.929458   21.336849 H          1 MOL1         0.0833
      12    H8      19.474702   16.640446   22.346060 H          1 MOL1         0.0833
      13    C5      18.811030   18.606121   23.011139 C.3        1 MOL1         0.1219
      14    H9      19.062263   18.802902   24.062002 H          1 MOL1         0.0790
      15    C6      18.647091   19.955422   22.268227 C.3        1 MOL1        -0.1760
      16    H10     18.428217   19.760905   21.210163 H          1 MOL1         0.0833
      17    H11     17.752324   20.449487   22.669569 H          1 MOL1         0.0833
      18    C7      19.824433   20.962722   22.375285 C.3        1 MOL1        -0.1684
      19    H12     20.035590   21.204658   23.424880 H          1 MOL1         0.0833
      20    H13     19.481180   21.905269   21.927303 H          1 MOL1         0.0833
      21    C8      21.116098   20.536074   21.630693 C.3        1 MOL1        -0.1684
      22    H14     21.532839   21.423488   21.134851 H          1 MOL1         0.0833
      23    H15     20.877873   19.852089   20.808369 H          1 MOL1         0.0833
      24    O1      17.551215   17.946142   22.972968 O.3        1 MOL1        -0.5508
      25    H16     17.646850   17.127812   23.503727 H          1 MOL1         0.3780
@<TRIPOS>BOND
    1     1     2    1
    2     1     3    1
    3     1     4    1
    4     4     5    1
    5     4     6    1
    6     4     7    1
    7     7     8    1
    8     7     9    1
    9     7    10    1
   10    10    11    1
   11    10    12    1
   12    10    13    1
   13    13    14    1
   14    13    15    1
   15    15    16    1
   16    15    17    1
   17    15    18    1
   18    18    19    1
   19    18    20    1
   20     1    21    1
   21    18    21    1
   22    21    22    1
   23    21    23    1
   24    13    24    1
   25    24    25    1
@<TRIPOS>SUBSTRUCTURE
       1 MOL1            1 RESIDUE      1      MOL     
@<SCITEGIC>MOL_PROPERTY
VConf Rank
SciTegic.value.IntegerValue
732

@<SCITEGIC>MOL_PROPERTY
Conf_Id
SciTegic.value.IntegerValue
129

@<SCITEGIC>MOL_PROPERTY
Delta U+W
SciTegic.value.DoubleValue
-1.846

@<SCITEGIC>MOL_PROPERTY
U+W
SciTegic.value.DoubleValue
9.067

@<SCITEGIC>MOL_PROPERTY
Grad RMS
SciTegic.value.DoubleValue
0.000000

@<SCITEGIC>MOL_PROPERTY
U
SciTegic.value.DoubleValue
11.150

@<SCITEGIC>MOL_PROPERTY
W
SciTegic.value.DoubleValue
-2.083

@<SCITEGIC>MOL_PROPERTY
W(PB)
SciTegic.value.DoubleValue
-4.217

@<SCITEGIC>MOL_PROPERTY
W(SA)
SciTegic.value.DoubleValue
2.134

@<SCITEGIC>MOL_PROPERTY
Valence
SciTegic.value.DoubleValue
16.583

@<SCITEGIC>MOL_PROPERTY
Coulomb
SciTegic.value.DoubleValue
-8.361

@<SCITEGIC>MOL_PROPERTY
VdW
SciTegic.value.DoubleValue
2.928

@<SCITEGIC>MOL_PROPERTY
VdW6
SciTegic.value.DoubleValue
-12.539

@<SCITEGIC>MOL_PROPERTY
VdW12
SciTegic.value.DoubleValue
15.467

@<SCITEGIC>MOL_PROPERTY
Bond
SciTegic.value.DoubleValue
0.441

@<SCITEGIC>MOL_PROPERTY
Angle
SciTegic.value.DoubleValue
5.093

@<SCITEGIC>MOL_PROPERTY
Pdih
SciTegic.value.DoubleValue
11.049

@<SCITEGIC>MOL_PROPERTY
Idih
SciTegic.value.DoubleValue
0.000

@<SCITEGIC>MOL_PROPERTY
Tether
SciTegic.value.DoubleValue
0.000

@<TRIPOS>MOLECULE
guest-s17_confgen4.mol2 : confsearch ligand conformer 733
          25          25           1
SMALL
USER_CHARGES
 
@<TRIPOS>ATOM
       1    C1      20.486655   17.305750   23.393880 C.3        1 MOL1        -0.1684
       2    H1      20.711121   17.137580   24.455878 H          1 MOL1         0.0833
       3    H2      20.420814   16.305981   22.943273 H          1 MOL1         0.0833
       4    C2      21.680436   18.034945   22.728015 C.3        1 MOL1        -0.1684
       5    H3      22.557833   17.381454   22.827662 H          1 MOL1         0.0833
       6    H4      21.521081   18.118932   21.646926 H          1 MOL1         0.0833
       7    C3      22.061785   19.410662   23.329882 C.3        1 MOL1        -0.1684
       8    H5      22.985083   19.742924   22.835742 H          1 MOL1         0.0833
       9    H6      22.320421   19.284046   24.389868 H          1 MOL1         0.0833
      10    C4      21.017373   20.549653   23.198819 C.3        1 MOL1        -0.1760
      11    H7      20.261171   20.460983   23.985479 H          1 MOL1         0.0833
      12    H8      21.540092   21.489712   23.421690 H          1 MOL1         0.0833
      13    C5      20.337365   20.659965   21.809576 C.3        1 MOL1         0.1219
      14    H9      20.953433   20.153489   21.054717 H          1 MOL1         0.0790
      15    C6      18.896990   20.091084   21.758663 C.3        1 MOL1        -0.1760
      16    H10     18.285825   20.573608   22.532526 H          1 MOL1         0.0833
      17    H11     18.453975   20.390499   20.799329 H          1 MOL1         0.0833
      18    C7      18.747135   18.550208   21.878096 C.3        1 MOL1        -0.1684
      19    H12     19.314495   18.041220   21.088269 H          1 MOL1         0.0833
      20    H13     17.694251   18.313564   21.672180 H          1 MOL1         0.0833
      21    C8      19.090639   17.970089   23.274525 C.3        1 MOL1        -0.1684
      22    H14     18.345543   17.199980   23.517042 H          1 MOL1         0.0833
      23    H15     18.957610   18.731579   24.051207 H          1 MOL1         0.0833
      24    O1      20.260108   22.036394   21.460811 O.3        1 MOL1        -0.5508
      25    H16     19.704135   22.464113   22.144106 H          1 MOL1         0.3780
@<TRIPOS>BOND
    1     1     2    1
    2     1     3    1
    3     1     4    1
    4     4     5    1
    5     4     6    1
    6     4     7    1
    7     7     8    1
    8     7     9    1
    9     7    10    1
   10    10    11    1
   11    10    12    1
   12    10    13    1
   13    13    14    1
   14    13    15    1
   15    15    16    1
   16    15    17    1
   17    15    18    1
   18    18    19    1
   19    18    20    1
   20     1    21    1
   21    18    21    1
   22    21    22    1
   23    21    23    1
   24    13    24    1
   25    24    25    1
@<TRIPOS>SUBSTRUCTURE
       1 MOL1            1 RESIDUE      1      MOL     
@<SCITEGIC>MOL_PROPERTY
VConf Rank
SciTegic.value.IntegerValue
733

@<SCITEGIC>MOL_PROPERTY
Conf_Id
SciTegic.value.IntegerValue
140

@<SCITEGIC>MOL_PROPERTY
Delta U+W
SciTegic.value.DoubleValue
-1.702

@<SCITEGIC>MOL_PROPERTY
U+W
SciTegic.value.DoubleValue
9.211

@<SCITEGIC>MOL_PROPERTY
Grad RMS
SciTegic.value.DoubleValue
0.000000

@<SCITEGIC>MOL_PROPERTY
U
SciTegic.value.DoubleValue
11.181

@<SCITEGIC>MOL_PROPERTY
W
SciTegic.value.DoubleValue
-1.969

@<SCITEGIC>MOL_PROPERTY
W(PB)
SciTegic.value.DoubleValue
-4.093

@<SCITEGIC>MOL_PROPERTY
W(SA)
SciTegic.value.DoubleValue
2.124

@<SCITEGIC>MOL_PROPERTY
Valence
SciTegic.value.DoubleValue
16.954

@<SCITEGIC>MOL_PROPERTY
Coulomb
SciTegic.value.DoubleValue
-8.661

@<SCITEGIC>MOL_PROPERTY
VdW
SciTegic.value.DoubleValue
2.887

@<SCITEGIC>MOL_PROPERTY
VdW6
SciTegic.value.DoubleValue
-12.561

@<SCITEGIC>MOL_PROPERTY
VdW12
SciTegic.value.DoubleValue
15.448

@<SCITEGIC>MOL_PROPERTY
Bond
SciTegic.value.DoubleValue
0.433

@<SCITEGIC>MOL_PROPERTY
Angle
SciTegic.value.DoubleValue
5.120

@<SCITEGIC>MOL_PROPERTY
Pdih
SciTegic.value.DoubleValue
11.401

@<SCITEGIC>MOL_PROPERTY
Idih
SciTegic.value.DoubleValue
0.000

@<SCITEGIC>MOL_PROPERTY
Tether
SciTegic.value.DoubleValue
0.000

@<TRIPOS>MOLECULE
guest-s17_confgen4.mol2 : confsearch ligand conformer 734
          25          25           1
SMALL
USER_CHARGES
 
@<TRIPOS>ATOM
       1    C1      21.800948   18.742808   21.323327 C.3        1 MOL1        -0.1684
       2    H1      22.686284   19.388676   21.248883 H          1 MOL1         0.0833
       3    H2      21.956660   17.941163   20.588454 H          1 MOL1         0.0833
       4    C2      20.551945   19.549847   20.883862 C.3        1 MOL1        -0.1684
       5    H3      20.593379   20.571151   21.278862 H          1 MOL1         0.0833
       6    H4      20.616710   19.675862   19.794377 H          1 MOL1         0.0833
       7    C3      19.186120   18.893398   21.212715 C.3        1 MOL1        -0.1684
       8    H5      19.281609   17.803129   21.296324 H          1 MOL1         0.0833
       9    H6      18.524857   19.057653   20.350905 H          1 MOL1         0.0833
      10    C4      18.464456   19.480376   22.455966 C.3        1 MOL1        -0.1760
      11    H7      18.344785   20.563773   22.325027 H          1 MOL1         0.0833
      12    H8      17.446753   19.067674   22.469931 H          1 MOL1         0.0833
      13    C5      19.106606   19.195414   23.837028 C.3        1 MOL1         0.1219
      14    H9      19.252747   18.113132   23.951840 H          1 MOL1         0.0790
      15    C6      20.448973   19.932706   24.079970 C.3        1 MOL1        -0.1760
      16    H10     20.522148   20.811377   23.431030 H          1 MOL1         0.0833
      17    H11     20.458807   20.340071   25.100055 H          1 MOL1         0.0833
      18    C7      21.717345   19.052337   23.933499 C.3        1 MOL1        -0.1684
      19    H12     21.813620   18.447401   24.845548 H          1 MOL1         0.0833
      20    H13     22.602415   19.702504   23.912717 H          1 MOL1         0.0833
      21    C8      21.764862   18.083989   22.725064 C.3        1 MOL1        -0.1684
      22    H14     20.947808   17.355818   22.783310 H          1 MOL1         0.0833
      23    H15     22.678438   17.482282   22.825717 H          1 MOL1         0.0833
      24    O1      18.180468   19.620440   24.828885 O.3        1 MOL1        -0.5508
      25    H16     18.064001   20.584633   24.703550 H          1 MOL1         0.3780
@<TRIPOS>BOND
    1     1     2    1
    2     1     3    1
    3     1     4    1
    4     4     5    1
    5     4     6    1
    6     4     7    1
    7     7     8    1
    8     7     9    1
    9     7    10    1
   10    10    11    1
   11    10    12    1
   12    10    13    1
   13    13    14    1
   14    13    15    1
   15    15    16    1
   16    15    17    1
   17    15    18    1
   18    18    19    1
   19    18    20    1
   20     1    21    1
   21    18    21    1
   22    21    22    1
   23    21    23    1
   24    13    24    1
   25    24    25    1
@<TRIPOS>SUBSTRUCTURE
       1 MOL1            1 RESIDUE      1      MOL     
@<SCITEGIC>MOL_PROPERTY
VConf Rank
SciTegic.value.IntegerValue
734

@<SCITEGIC>MOL_PROPERTY
Conf_Id
SciTegic.value.IntegerValue
68

@<SCITEGIC>MOL_PROPERTY
Delta U+W
SciTegic.value.DoubleValue
-1.765

@<SCITEGIC>MOL_PROPERTY
U+W
SciTegic.value.DoubleValue
9.148

@<SCITEGIC>MOL_PROPERTY
Grad RMS
SciTegic.value.DoubleValue
0.000000

@<SCITEGIC>MOL_PROPERTY
U
SciTegic.value.DoubleValue
11.181

@<SCITEGIC>MOL_PROPERTY
W
SciTegic.value.DoubleValue
-2.032

@<SCITEGIC>MOL_PROPERTY
W(PB)
SciTegic.value.DoubleValue
-4.147

@<SCITEGIC>MOL_PROPERTY
W(SA)
SciTegic.value.DoubleValue
2.114

@<SCITEGIC>MOL_PROPERTY
Valence
SciTegic.value.DoubleValue
16.955

@<SCITEGIC>MOL_PROPERTY
Coulomb
SciTegic.value.DoubleValue
-8.661

@<SCITEGIC>MOL_PROPERTY
VdW
SciTegic.value.DoubleValue
2.887

@<SCITEGIC>MOL_PROPERTY
VdW6
SciTegic.value.DoubleValue
-12.561

@<SCITEGIC>MOL_PROPERTY
VdW12
SciTegic.value.DoubleValue
15.448

@<SCITEGIC>MOL_PROPERTY
Bond
SciTegic.value.DoubleValue
0.433

@<SCITEGIC>MOL_PROPERTY
Angle
SciTegic.value.DoubleValue
5.121

@<SCITEGIC>MOL_PROPERTY
Pdih
SciTegic.value.DoubleValue
11.402

@<SCITEGIC>MOL_PROPERTY
Idih
SciTegic.value.DoubleValue
0.000

@<SCITEGIC>MOL_PROPERTY
Tether
SciTegic.value.DoubleValue
0.000

@<TRIPOS>MOLECULE
guest-s17_confgen4.mol2 : confsearch ligand conformer 735
          25          25           1
SMALL
USER_CHARGES
 
@<TRIPOS>ATOM
       1    C1      18.440621   18.760321   22.898317 C.3        1 MOL1        -0.1684
       2    H1      17.391240   18.437799   22.941387 H          1 MOL1         0.0833
       3    H2      18.482919   19.634645   23.557606 H          1 MOL1         0.0833
       4    C2      18.759959   19.164324   21.435406 C.3        1 MOL1        -0.1684
       5    H3      19.210577   18.329372   20.883669 H          1 MOL1         0.0833
       6    H4      17.803697   19.357442   20.930148 H          1 MOL1         0.0833
       7    C3      19.617279   20.448683   21.286990 C.3        1 MOL1        -0.1684
       8    H5      19.121414   21.279845   21.806952 H          1 MOL1         0.0833
       9    H6      19.620526   20.726603   20.224171 H          1 MOL1         0.0833
      10    C4      21.093961   20.358678   21.755884 C.3        1 MOL1        -0.1760
      11    H7      21.614374   19.552480   21.225063 H          1 MOL1         0.0833
      12    H8      21.586453   21.284326   21.428408 H          1 MOL1         0.0833
      13    C5      21.274011   20.218798   23.289802 C.3        1 MOL1         0.1219
      14    H9      20.358048   20.555125   23.789243 H          1 MOL1         0.0790
      15    C6      21.621337   18.789680   23.774601 C.3        1 MOL1        -0.1760
      16    H10     22.682897   18.600019   23.567974 H          1 MOL1         0.0833
      17    H11     21.517908   18.759816   24.867072 H          1 MOL1         0.0833
      18    C7      20.813826   17.617529   23.159743 C.3        1 MOL1        -0.1684
      19    H12     21.239128   16.684886   23.554736 H          1 MOL1         0.0833
      20    H13     20.982191   17.561696   22.078149 H          1 MOL1         0.0833
      21    C8      19.296042   17.599865   23.469838 C.3        1 MOL1        -0.1684
      22    H14     19.147759   17.549643   24.557071 H          1 MOL1         0.0833
      23    H15     18.891457   16.659016   23.072203 H          1 MOL1         0.0833
      24    O1      22.329433   21.078287   23.702169 O.3        1 MOL1        -0.5508
      25    H16     23.133543   20.774256   23.233274 H          1 MOL1         0.3780
@<TRIPOS>BOND
    1     1     2    1
    2     1     3    1
    3     1     4    1
    4     4     5    1
    5     4     6    1
    6     4     7    1
    7     7     8    1
    8     7     9    1
    9     7    10    1
   10    10    11    1
   11    10    12    1
   12    10    13    1
   13    13    14    1
   14    13    15    1
   15    15    16    1
   16    15    17    1
   17    15    18    1
   18    18    19    1
   19    18    20    1
   20     1    21    1
   21    18    21    1
   22    21    22    1
   23    21    23    1
   24    13    24    1
   25    24    25    1
@<TRIPOS>SUBSTRUCTURE
       1 MOL1            1 RESIDUE      1      MOL     
@<SCITEGIC>MOL_PROPERTY
VConf Rank
SciTegic.value.IntegerValue
735

@<SCITEGIC>MOL_PROPERTY
Conf_Id
SciTegic.value.IntegerValue
165

@<SCITEGIC>MOL_PROPERTY
Delta U+W
SciTegic.value.DoubleValue
-1.999

@<SCITEGIC>MOL_PROPERTY
U+W
SciTegic.value.DoubleValue
8.915

@<SCITEGIC>MOL_PROPERTY
Grad RMS
SciTegic.value.DoubleValue
0.000000

@<SCITEGIC>MOL_PROPERTY
U
SciTegic.value.DoubleValue
10.935

@<SCITEGIC>MOL_PROPERTY
W
SciTegic.value.DoubleValue
-2.020

@<SCITEGIC>MOL_PROPERTY
W(PB)
SciTegic.value.DoubleValue
-4.135

@<SCITEGIC>MOL_PROPERTY
W(SA)
SciTegic.value.DoubleValue
2.115

@<SCITEGIC>MOL_PROPERTY
Valence
SciTegic.value.DoubleValue
16.757

@<SCITEGIC>MOL_PROPERTY
Coulomb
SciTegic.value.DoubleValue
-8.731

@<SCITEGIC>MOL_PROPERTY
VdW
SciTegic.value.DoubleValue
2.908

@<SCITEGIC>MOL_PROPERTY
VdW6
SciTegic.value.DoubleValue
-12.597

@<SCITEGIC>MOL_PROPERTY
VdW12
SciTegic.value.DoubleValue
15.506

@<SCITEGIC>MOL_PROPERTY
Bond
SciTegic.value.DoubleValue
0.434

@<SCITEGIC>MOL_PROPERTY
Angle
SciTegic.value.DoubleValue
5.069

@<SCITEGIC>MOL_PROPERTY
Pdih
SciTegic.value.DoubleValue
11.254

@<SCITEGIC>MOL_PROPERTY
Idih
SciTegic.value.DoubleValue
0.000

@<SCITEGIC>MOL_PROPERTY
Tether
SciTegic.value.DoubleValue
0.000

@<TRIPOS>MOLECULE
guest-s17_confgen4.mol2 : confsearch ligand conformer 736
          25          25           1
SMALL
USER_CHARGES
 
@<TRIPOS>ATOM
       1    C1      19.440539   17.770066   23.454132 C.3        1 MOL1        -0.1684
       2    H1      18.927233   16.883704   23.851579 H          1 MOL1         0.0833
       3    H2      19.603017   18.405511   24.331977 H          1 MOL1         0.0833
       4    C2      18.466331   18.449401   22.456699 C.3        1 MOL1        -0.1684
       5    H3      17.988119   17.657012   21.864721 H          1 MOL1         0.0833
       6    H4      17.654399   18.927875   23.020965 H          1 MOL1         0.0833
       7    C3      19.068993   19.470452   21.459406 C.3        1 MOL1        -0.1684
       8    H5      18.264980   19.773110   20.774817 H          1 MOL1         0.0833
       9    H6      19.810307   18.982573   20.816195 H          1 MOL1         0.0833
      10    C4      19.657548   20.763545   22.080328 C.3        1 MOL1        -0.1760
      11    H7      19.941716   21.426215   21.251696 H          1 MOL1         0.0833
      12    H8      18.863384   21.287106   22.627965 H          1 MOL1         0.0833
      13    C5      20.882272   20.605071   23.014510 C.3        1 MOL1         0.1219
      14    H9      20.544996   20.253522   23.996608 H          1 MOL1         0.0790
      15    C6      21.978723   19.644850   22.485402 C.3        1 MOL1        -0.1760
      16    H10     21.915771   19.543144   21.395534 H          1 MOL1         0.0833
      17    H11     22.959846   20.101564   22.673395 H          1 MOL1         0.0833
      18    C7      21.993921   18.247980   23.161800 C.3        1 MOL1        -0.1684
      19    H12     22.089149   18.372505   24.249188 H          1 MOL1         0.0833
      20    H13     22.910269   17.732612   22.843248 H          1 MOL1         0.0833
      21    C8      20.795422   17.312172   22.854014 C.3        1 MOL1        -0.1684
      22    H14     21.034600   16.332000   23.288833 H          1 MOL1         0.0833
      23    H15     20.709325   17.132115   21.774767 H          1 MOL1         0.0833
      24    O1      21.456615   21.895831   23.186511 O.3        1 MOL1        -0.5508
      25    H16     20.756063   22.468654   23.562731 H          1 MOL1         0.3780
@<TRIPOS>BOND
    1     1     2    1
    2     1     3    1
    3     1     4    1
    4     4     5    1
    5     4     6    1
    6     4     7    1
    7     7     8    1
    8     7     9    1
    9     7    10    1
   10    10    11    1
   11    10    12    1
   12    10    13    1
   13    13    14    1
   14    13    15    1
   15    15    16    1
   16    15    17    1
   17    15    18    1
   18    18    19    1
   19    18    20    1
   20     1    21    1
   21    18    21    1
   22    21    22    1
   23    21    23    1
   24    13    24    1
   25    24    25    1
@<TRIPOS>SUBSTRUCTURE
       1 MOL1            1 RESIDUE      1      MOL     
@<SCITEGIC>MOL_PROPERTY
VConf Rank
SciTegic.value.IntegerValue
736

@<SCITEGIC>MOL_PROPERTY
Conf_Id
SciTegic.value.IntegerValue
133

@<SCITEGIC>MOL_PROPERTY
Delta U+W
SciTegic.value.DoubleValue
-2.139

@<SCITEGIC>MOL_PROPERTY
U+W
SciTegic.value.DoubleValue
8.774

@<SCITEGIC>MOL_PROPERTY
Grad RMS
SciTegic.value.DoubleValue
0.000000

@<SCITEGIC>MOL_PROPERTY
U
SciTegic.value.DoubleValue
10.905

@<SCITEGIC>MOL_PROPERTY
W
SciTegic.value.DoubleValue
-2.131

@<SCITEGIC>MOL_PROPERTY
W(PB)
SciTegic.value.DoubleValue
-4.281

@<SCITEGIC>MOL_PROPERTY
W(SA)
SciTegic.value.DoubleValue
2.150

@<SCITEGIC>MOL_PROPERTY
Valence
SciTegic.value.DoubleValue
16.378

@<SCITEGIC>MOL_PROPERTY
Coulomb
SciTegic.value.DoubleValue
-8.448

@<SCITEGIC>MOL_PROPERTY
VdW
SciTegic.value.DoubleValue
2.976

@<SCITEGIC>MOL_PROPERTY
VdW6
SciTegic.value.DoubleValue
-12.570

@<SCITEGIC>MOL_PROPERTY
VdW12
SciTegic.value.DoubleValue
15.545

@<SCITEGIC>MOL_PROPERTY
Bond
SciTegic.value.DoubleValue
0.439

@<SCITEGIC>MOL_PROPERTY
Angle
SciTegic.value.DoubleValue
5.049

@<SCITEGIC>MOL_PROPERTY
Pdih
SciTegic.value.DoubleValue
10.889

@<SCITEGIC>MOL_PROPERTY
Idih
SciTegic.value.DoubleValue
0.000

@<SCITEGIC>MOL_PROPERTY
Tether
SciTegic.value.DoubleValue
0.000

@<TRIPOS>MOLECULE
guest-s17_confgen4.mol2 : confsearch ligand conformer 737
          25          25           1
SMALL
USER_CHARGES
 
@<TRIPOS>ATOM
       1    C1      20.344240   17.735110   23.713806 C.3        1 MOL1        -0.1684
       2    H1      20.374969   16.787798   24.269452 H          1 MOL1         0.0833
       3    H2      20.216970   18.499650   24.488457 H          1 MOL1         0.0833
       4    C2      19.111353   17.701023   22.773408 C.3        1 MOL1        -0.1684
       5    H3      19.389678   17.358295   21.768579 H          1 MOL1         0.0833
       6    H4      18.424873   16.933732   23.156842 H          1 MOL1         0.0833
       7    C3      18.310889   19.027956   22.700068 C.3        1 MOL1        -0.1684
       8    H5      18.001721   19.323436   23.712043 H          1 MOL1         0.0833
       9    H6      17.378862   18.825888   22.154845 H          1 MOL1         0.0833
      10    C4      19.012033   20.227175   22.007780 C.3        1 MOL1        -0.1760
      11    H7      19.301421   19.963771   20.983576 H          1 MOL1         0.0833
      12    H8      18.257623   21.017822   21.896989 H          1 MOL1         0.0833
      13    C5      20.218237   20.807621   22.790299 C.3        1 MOL1         0.1219
      14    H9      20.145085   20.496631   23.839008 H          1 MOL1         0.0790
      15    C6      21.604743   20.402134   22.232688 C.3        1 MOL1        -0.1760
      16    H10     21.802908   21.003902   21.335402 H          1 MOL1         0.0833
      17    H11     22.373627   20.685311   22.962993 H          1 MOL1         0.0833
      18    C7      21.804654   18.913826   21.846682 C.3        1 MOL1        -0.1684
      19    H12     22.806462   18.822228   21.405445 H          1 MOL1         0.0833
      20    H13     21.120081   18.632455   21.038300 H          1 MOL1         0.0833
      21    C8      21.716121   17.891514   23.007451 C.3        1 MOL1        -0.1684
      22    H14     22.479931   18.128964   23.760299 H          1 MOL1         0.0833
      23    H15     21.996405   16.910025   22.601095 H          1 MOL1         0.0833
      24    O1      20.141751   22.228195   22.749908 O.3        1 MOL1        -0.5508
      25    H16     20.887732   22.566452   23.287990 H          1 MOL1         0.3780
@<TRIPOS>BOND
    1     1     2    1
    2     1     3    1
    3     1     4    1
    4     4     5    1
    5     4     6    1
    6     4     7    1
    7     7     8    1
    8     7     9    1
    9     7    10    1
   10    10    11    1
   11    10    12    1
   12    10    13    1
   13    13    14    1
   14    13    15    1
   15    15    16    1
   16    15    17    1
   17    15    18    1
   18    18    19    1
   19    18    20    1
   20     1    21    1
   21    18    21    1
   22    21    22    1
   23    21    23    1
   24    13    24    1
   25    24    25    1
@<TRIPOS>SUBSTRUCTURE
       1 MOL1            1 RESIDUE      1      MOL     
@<SCITEGIC>MOL_PROPERTY
VConf Rank
SciTegic.value.IntegerValue
737

@<SCITEGIC>MOL_PROPERTY
Conf_Id
SciTegic.value.IntegerValue
95

@<SCITEGIC>MOL_PROPERTY
Delta U+W
SciTegic.value.DoubleValue
-2.190

@<SCITEGIC>MOL_PROPERTY
U+W
SciTegic.value.DoubleValue
8.723

@<SCITEGIC>MOL_PROPERTY
Grad RMS
SciTegic.value.DoubleValue
0.000000

@<SCITEGIC>MOL_PROPERTY
U
SciTegic.value.DoubleValue
10.905

@<SCITEGIC>MOL_PROPERTY
W
SciTegic.value.DoubleValue
-2.182

@<SCITEGIC>MOL_PROPERTY
W(PB)
SciTegic.value.DoubleValue
-4.296

@<SCITEGIC>MOL_PROPERTY
W(SA)
SciTegic.value.DoubleValue
2.114

@<SCITEGIC>MOL_PROPERTY
Valence
SciTegic.value.DoubleValue
16.377

@<SCITEGIC>MOL_PROPERTY
Coulomb
SciTegic.value.DoubleValue
-8.448

@<SCITEGIC>MOL_PROPERTY
VdW
SciTegic.value.DoubleValue
2.976

@<SCITEGIC>MOL_PROPERTY
VdW6
SciTegic.value.DoubleValue
-12.570

@<SCITEGIC>MOL_PROPERTY
VdW12
SciTegic.value.DoubleValue
15.546

@<SCITEGIC>MOL_PROPERTY
Bond
SciTegic.value.DoubleValue
0.439

@<SCITEGIC>MOL_PROPERTY
Angle
SciTegic.value.DoubleValue
5.049

@<SCITEGIC>MOL_PROPERTY
Pdih
SciTegic.value.DoubleValue
10.889

@<SCITEGIC>MOL_PROPERTY
Idih
SciTegic.value.DoubleValue
0.000

@<SCITEGIC>MOL_PROPERTY
Tether
SciTegic.value.DoubleValue
0.000

@<TRIPOS>MOLECULE
guest-s17_confgen4.mol2 : confsearch ligand conformer 738
          25          25           1
SMALL
USER_CHARGES
 
@<TRIPOS>ATOM
       1    C1      21.816759   18.664770   21.791415 C.3        1 MOL1        -0.1684
       2    H1      22.757994   18.476396   21.257099 H          1 MOL1         0.0833
       3    H2      21.269942   17.722801   21.682237 H          1 MOL1         0.0833
       4    C2      21.091178   19.820496   21.041716 C.3        1 MOL1        -0.1684
       5    H3      21.864768   20.505039   20.667685 H          1 MOL1         0.0833
       6    H4      20.603853   19.413323   20.145504 H          1 MOL1         0.0833
       7    C3      20.071731   20.681510   21.832842 C.3        1 MOL1        -0.1684
       8    H5      19.758268   21.508289   21.180926 H          1 MOL1         0.0833
       9    H6      20.586939   21.186227   22.656158 H          1 MOL1         0.0833
      10    C4      18.776542   19.977995   22.336899 C.3        1 MOL1        -0.1760
      11    H7      18.348645   20.568366   23.157714 H          1 MOL1         0.0833
      12    H8      18.044324   20.030183   21.520568 H          1 MOL1         0.0833
      13    C5      18.870529   18.494570   22.775429 C.3        1 MOL1         0.1219
      14    H9      19.255502   17.914721   21.930215 H          1 MOL1         0.0790
      15    C6      19.715505   18.187100   24.045102 C.3        1 MOL1        -0.1760
      16    H10     19.066956   18.316273   24.922036 H          1 MOL1         0.0833
      17    H11     19.983856   17.123110   24.030933 H          1 MOL1         0.0833
      18    C7      20.995916   19.026434   24.304105 C.3        1 MOL1        -0.1684
      19    H12     21.388008   18.737965   25.288870 H          1 MOL1         0.0833
      20    H13     20.718862   20.076979   24.437029 H          1 MOL1         0.0833
      21    C8      22.165977   18.886650   23.286792 C.3        1 MOL1        -0.1684
      22    H14     22.776116   18.029738   23.603497 H          1 MOL1         0.0833
      23    H15     22.822530   19.762449   23.378210 H          1 MOL1         0.0833
      24    O1      17.545761   18.041732   23.029476 O.3        1 MOL1        -0.5508
      25    H16     17.036621   18.178830   22.203619 H          1 MOL1         0.3780
@<TRIPOS>BOND
    1     1     2    1
    2     1     3    1
    3     1     4    1
    4     4     5    1
    5     4     6    1
    6     4     7    1
    7     7     8    1
    8     7     9    1
    9     7    10    1
   10    10    11    1
   11    10    12    1
   12    10    13    1
   13    13    14    1
   14    13    15    1
   15    15    16    1
   16    15    17    1
   17    15    18    1
   18    18    19    1
   19    18    20    1
   20     1    21    1
   21    18    21    1
   22    21    22    1
   23    21    23    1
   24    13    24    1
   25    24    25    1
@<TRIPOS>SUBSTRUCTURE
       1 MOL1            1 RESIDUE      1      MOL     
@<SCITEGIC>MOL_PROPERTY
VConf Rank
SciTegic.value.IntegerValue
738

@<SCITEGIC>MOL_PROPERTY
Conf_Id
SciTegic.value.IntegerValue
161

@<SCITEGIC>MOL_PROPERTY
Delta U+W
SciTegic.value.DoubleValue
2.120

@<SCITEGIC>MOL_PROPERTY
U+W
SciTegic.value.DoubleValue
13.033

@<SCITEGIC>MOL_PROPERTY
Grad RMS
SciTegic.value.DoubleValue
0.000000

@<SCITEGIC>MOL_PROPERTY
U
SciTegic.value.DoubleValue
15.076

@<SCITEGIC>MOL_PROPERTY
W
SciTegic.value.DoubleValue
-2.043

@<SCITEGIC>MOL_PROPERTY
W(PB)
SciTegic.value.DoubleValue
-4.186

@<SCITEGIC>MOL_PROPERTY
W(SA)
SciTegic.value.DoubleValue
2.143

@<SCITEGIC>MOL_PROPERTY
Valence
SciTegic.value.DoubleValue
18.884

@<SCITEGIC>MOL_PROPERTY
Coulomb
SciTegic.value.DoubleValue
-8.074

@<SCITEGIC>MOL_PROPERTY
VdW
SciTegic.value.DoubleValue
4.266

@<SCITEGIC>MOL_PROPERTY
VdW6
SciTegic.value.DoubleValue
-13.486

@<SCITEGIC>MOL_PROPERTY
VdW12
SciTegic.value.DoubleValue
17.752

@<SCITEGIC>MOL_PROPERTY
Bond
SciTegic.value.DoubleValue
0.713

@<SCITEGIC>MOL_PROPERTY
Angle
SciTegic.value.DoubleValue
8.955

@<SCITEGIC>MOL_PROPERTY
Pdih
SciTegic.value.DoubleValue
9.215

@<SCITEGIC>MOL_PROPERTY
Idih
SciTegic.value.DoubleValue
0.000

@<SCITEGIC>MOL_PROPERTY
Tether
SciTegic.value.DoubleValue
0.000

@<TRIPOS>MOLECULE
guest-s17_confgen4.mol2 : confsearch ligand conformer 739
          25          25           1
SMALL
USER_CHARGES
 
@<TRIPOS>ATOM
       1    C1      18.433129   19.715074   22.298692 C.3        1 MOL1        -0.1684
       2    H1      17.397222   19.793927   21.941387 H          1 MOL1         0.0833
       3    H2      18.609231   20.645817   22.852714 H          1 MOL1         0.0833
       4    C2      19.362642   19.652797   21.061032 C.3        1 MOL1        -0.1684
       5    H3      19.470695   18.619267   20.705608 H          1 MOL1         0.0833
       6    H4      18.848492   20.186374   20.249788 H          1 MOL1         0.0833
       7    C3      20.748214   20.333714   21.239571 C.3        1 MOL1        -0.1684
       8    H5      20.666714   21.244965   21.847243 H          1 MOL1         0.0833
       9    H6      21.063934   20.675945   20.244383 H          1 MOL1         0.0833
      10    C4      21.874851   19.412870   21.775489 C.3        1 MOL1        -0.1760
      11    H7      21.734712   18.393565   21.395560 H          1 MOL1         0.0833
      12    H8      22.821067   19.751837   21.333438 H          1 MOL1         0.0833
      13    C5      22.083381   19.408219   23.311173 C.3        1 MOL1         0.1219
      14    H9      22.508172   20.381179   23.596958 H          1 MOL1         0.0790
      15    C6      20.822007   19.181533   24.176294 C.3        1 MOL1        -0.1760
      16    H10     21.143493   18.973960   25.205683 H          1 MOL1         0.0833
      17    H11     20.266364   20.122687   24.248773 H          1 MOL1         0.0833
      18    C7      19.899379   18.028664   23.697879 C.3        1 MOL1        -0.1684
      19    H12     19.778848   17.308778   24.518832 H          1 MOL1         0.0833
      20    H13     20.365896   17.456476   22.887902 H          1 MOL1         0.0833
      21    C8      18.491910   18.492039   23.251789 C.3        1 MOL1        -0.1684
      22    H14     17.897912   18.726386   24.145689 H          1 MOL1         0.0833
      23    H15     17.986484   17.643108   22.771538 H          1 MOL1         0.0833
      24    O1      23.023304   18.389483   23.622761 O.3        1 MOL1        -0.5508
      25    H16     22.554890   17.541390   23.484429 H          1 MOL1         0.3780
@<TRIPOS>BOND
    1     1     2    1
    2     1     3    1
    3     1     4    1
    4     4     5    1
    5     4     6    1
    6     4     7    1
    7     7     8    1
    8     7     9    1
    9     7    10    1
   10    10    11    1
   11    10    12    1
   12    10    13    1
   13    13    14    1
   14    13    15    1
   15    15    16    1
   16    15    17    1
   17    15    18    1
   18    18    19    1
   19    18    20    1
   20     1    21    1
   21    18    21    1
   22    21    22    1
   23    21    23    1
   24    13    24    1
   25    24    25    1
@<TRIPOS>SUBSTRUCTURE
       1 MOL1            1 RESIDUE      1      MOL     
@<SCITEGIC>MOL_PROPERTY
VConf Rank
SciTegic.value.IntegerValue
739

@<SCITEGIC>MOL_PROPERTY
Conf_Id
SciTegic.value.IntegerValue
164

@<SCITEGIC>MOL_PROPERTY
Delta U+W
SciTegic.value.DoubleValue
0.008

@<SCITEGIC>MOL_PROPERTY
U+W
SciTegic.value.DoubleValue
10.922

@<SCITEGIC>MOL_PROPERTY
Grad RMS
SciTegic.value.DoubleValue
0.000000

@<SCITEGIC>MOL_PROPERTY
U
SciTegic.value.DoubleValue
12.433

@<SCITEGIC>MOL_PROPERTY
W
SciTegic.value.DoubleValue
-1.511

@<SCITEGIC>MOL_PROPERTY
W(PB)
SciTegic.value.DoubleValue
-3.669

@<SCITEGIC>MOL_PROPERTY
W(SA)
SciTegic.value.DoubleValue
2.157

@<SCITEGIC>MOL_PROPERTY
Valence
SciTegic.value.DoubleValue
19.007

@<SCITEGIC>MOL_PROPERTY
Coulomb
SciTegic.value.DoubleValue
-9.373

@<SCITEGIC>MOL_PROPERTY
VdW
SciTegic.value.DoubleValue
2.799

@<SCITEGIC>MOL_PROPERTY
VdW6
SciTegic.value.DoubleValue
-12.597

@<SCITEGIC>MOL_PROPERTY
VdW12
SciTegic.value.DoubleValue
15.396

@<SCITEGIC>MOL_PROPERTY
Bond
SciTegic.value.DoubleValue
0.425

@<SCITEGIC>MOL_PROPERTY
Angle
SciTegic.value.DoubleValue
4.784

@<SCITEGIC>MOL_PROPERTY
Pdih
SciTegic.value.DoubleValue
13.799

@<SCITEGIC>MOL_PROPERTY
Idih
SciTegic.value.DoubleValue
0.000

@<SCITEGIC>MOL_PROPERTY
Tether
SciTegic.value.DoubleValue
0.000

@<TRIPOS>MOLECULE
guest-s17_confgen4.mol2 : confsearch ligand conformer 740
          25          25           1
SMALL
USER_CHARGES
 
@<TRIPOS>ATOM
       1    C1      20.354680   17.639157   21.723860 C.3        1 MOL1        -0.1684
       2    H1      19.927372   17.390311   22.701820 H          1 MOL1         0.0833
       3    H2      20.376276   16.684535   21.180811 H          1 MOL1         0.0833
       4    C2      21.821358   18.112835   21.879432 C.3        1 MOL1        -0.1684
       5    H3      22.385383   17.290395   22.340270 H          1 MOL1         0.0833
       6    H4      22.264142   18.255316   20.884370 H          1 MOL1         0.0833
       7    C3      22.066285   19.387907   22.726168 C.3        1 MOL1        -0.1684
       8    H5      21.910159   20.287980   22.120728 H          1 MOL1         0.0833
       9    H6      23.135354   19.408736   22.978481 H          1 MOL1         0.0833
      10    C4      21.255006   19.472538   24.046563 C.3        1 MOL1        -0.1760
      11    H7      20.969601   18.473185   24.396731 H          1 MOL1         0.0833
      12    H8      21.928403   19.869127   24.818244 H          1 MOL1         0.0833
      13    C5      20.023117   20.410805   23.995782 C.3        1 MOL1         0.1219
      14    H9      20.356527   21.394564   23.635704 H          1 MOL1         0.0790
      15    C6      18.837320   19.949717   23.111608 C.3        1 MOL1        -0.1760
      16    H10     18.472389   18.966065   23.431034 H          1 MOL1         0.0833
      17    H11     18.007081   20.643090   23.301803 H          1 MOL1         0.0833
      18    C7      19.114534   19.970477   21.584682 C.3        1 MOL1        -0.1684
      19    H12     19.914052   20.681950   21.348797 H          1 MOL1         0.0833
      20    H13     18.227296   20.377389   21.080465 H          1 MOL1         0.0833
      21    C8      19.409322   18.588885   20.946662 C.3        1 MOL1        -0.1684
      22    H14     19.801861   18.741280   19.932169 H          1 MOL1         0.0833
      23    H15     18.451167   18.066865   20.818852 H          1 MOL1         0.0833
      24    O1      19.538707   20.557944   25.323523 O.3        1 MOL1        -0.5508
      25    H16     19.251249   19.667754   25.612861 H          1 MOL1         0.3780
@<TRIPOS>BOND
    1     1     2    1
    2     1     3    1
    3     1     4    1
    4     4     5    1
    5     4     6    1
    6     4     7    1
    7     7     8    1
    8     7     9    1
    9     7    10    1
   10    10    11    1
   11    10    12    1
   12    10    13    1
   13    13    14    1
   14    13    15    1
   15    15    16    1
   16    15    17    1
   17    15    18    1
   18    18    19    1
   19    18    20    1
   20     1    21    1
   21    18    21    1
   22    21    22    1
   23    21    23    1
   24    13    24    1
   25    24    25    1
@<TRIPOS>SUBSTRUCTURE
       1 MOL1            1 RESIDUE      1      MOL     
@<SCITEGIC>MOL_PROPERTY
VConf Rank
SciTegic.value.IntegerValue
740

@<SCITEGIC>MOL_PROPERTY
Conf_Id
SciTegic.value.IntegerValue
15

@<SCITEGIC>MOL_PROPERTY
Delta U+W
SciTegic.value.DoubleValue
-1.271

@<SCITEGIC>MOL_PROPERTY
U+W
SciTegic.value.DoubleValue
9.643

@<SCITEGIC>MOL_PROPERTY
Grad RMS
SciTegic.value.DoubleValue
0.000000

@<SCITEGIC>MOL_PROPERTY
U
SciTegic.value.DoubleValue
11.413

@<SCITEGIC>MOL_PROPERTY
W
SciTegic.value.DoubleValue
-1.770

@<SCITEGIC>MOL_PROPERTY
W(PB)
SciTegic.value.DoubleValue
-3.908

@<SCITEGIC>MOL_PROPERTY
W(SA)
SciTegic.value.DoubleValue
2.138

@<SCITEGIC>MOL_PROPERTY
Valence
SciTegic.value.DoubleValue
17.496

@<SCITEGIC>MOL_PROPERTY
Coulomb
SciTegic.value.DoubleValue
-8.736

@<SCITEGIC>MOL_PROPERTY
VdW
SciTegic.value.DoubleValue
2.653

@<SCITEGIC>MOL_PROPERTY
VdW6
SciTegic.value.DoubleValue
-12.485

@<SCITEGIC>MOL_PROPERTY
VdW12
SciTegic.value.DoubleValue
15.138

@<SCITEGIC>MOL_PROPERTY
Bond
SciTegic.value.DoubleValue
0.414

@<SCITEGIC>MOL_PROPERTY
Angle
SciTegic.value.DoubleValue
5.295

@<SCITEGIC>MOL_PROPERTY
Pdih
SciTegic.value.DoubleValue
11.787

@<SCITEGIC>MOL_PROPERTY
Idih
SciTegic.value.DoubleValue
0.000

@<SCITEGIC>MOL_PROPERTY
Tether
SciTegic.value.DoubleValue
0.000

@<TRIPOS>MOLECULE
guest-s17_confgen4.mol2 : confsearch ligand conformer 741
          25          25           1
SMALL
USER_CHARGES
 
@<TRIPOS>ATOM
       1    C1      21.462113   18.148102   21.520562 C.3        1 MOL1        -0.1684
       2    H1      22.231326   17.531163   21.036125 H          1 MOL1         0.0833
       3    H2      20.965752   18.674829   20.695730 H          1 MOL1         0.0833
       4    C2      20.476393   17.175999   22.220703 C.3        1 MOL1        -0.1684
       5    H3      19.950539   16.605262   21.443167 H          1 MOL1         0.0833
       6    H4      21.052828   16.437585   22.794499 H          1 MOL1         0.0833
       7    C3      19.426987   17.811653   23.164114 C.3        1 MOL1        -0.1684
       8    H5      19.896616   18.054861   24.124358 H          1 MOL1         0.0833
       9    H6      18.676896   17.045991   23.404762 H          1 MOL1         0.0833
      10    C4      18.704048   19.047321   22.567510 C.3        1 MOL1        -0.1760
      11    H7      18.947812   19.168406   21.506233 H          1 MOL1         0.0833
      12    H8      17.622486   18.860343   22.588955 H          1 MOL1         0.0833
      13    C5      18.963367   20.369675   23.325403 C.3        1 MOL1         0.1219
      14    H9      18.397409   20.329401   24.267156 H          1 MOL1         0.0790
      15    C6      20.437535   20.680734   23.692215 C.3        1 MOL1        -0.1760
      16    H10     20.464145   21.713976   24.063748 H          1 MOL1         0.0833
      17    H11     20.746489   20.073391   24.551397 H          1 MOL1         0.0833
      18    C7      21.487098   20.552808   22.555951 C.3        1 MOL1        -0.1684
      19    H12     22.278772   21.283076   22.772981 H          1 MOL1         0.0833
      20    H13     21.066398   20.862069   21.590456 H          1 MOL1         0.0833
      21    C8      22.176904   19.165197   22.444232 C.3        1 MOL1        -0.1684
      22    H14     22.359012   18.730802   23.436363 H          1 MOL1         0.0833
      23    H15     23.173643   19.339008   22.015888 H          1 MOL1         0.0833
      24    O1      18.460165   21.438889   22.536748 O.3        1 MOL1        -0.5508
      25    H16     19.049905   21.498004   21.758380 H          1 MOL1         0.3780
@<TRIPOS>BOND
    1     1     2    1
    2     1     3    1
    3     1     4    1
    4     4     5    1
    5     4     6    1
    6     4     7    1
    7     7     8    1
    8     7     9    1
    9     7    10    1
   10    10    11    1
   11    10    12    1
   12    10    13    1
   13    13    14    1
   14    13    15    1
   15    15    16    1
   16    15    17    1
   17    15    18    1
   18    18    19    1
   19    18    20    1
   20     1    21    1
   21    18    21    1
   22    21    22    1
   23    21    23    1
   24    13    24    1
   25    24    25    1
@<TRIPOS>SUBSTRUCTURE
       1 MOL1            1 RESIDUE      1      MOL     
@<SCITEGIC>MOL_PROPERTY
VConf Rank
SciTegic.value.IntegerValue
741

@<SCITEGIC>MOL_PROPERTY
Conf_Id
SciTegic.value.IntegerValue
115

@<SCITEGIC>MOL_PROPERTY
Delta U+W
SciTegic.value.DoubleValue
0.038

@<SCITEGIC>MOL_PROPERTY
U+W
SciTegic.value.DoubleValue
10.952

@<SCITEGIC>MOL_PROPERTY
Grad RMS
SciTegic.value.DoubleValue
0.000000

@<SCITEGIC>MOL_PROPERTY
U
SciTegic.value.DoubleValue
12.526

@<SCITEGIC>MOL_PROPERTY
W
SciTegic.value.DoubleValue
-1.575

@<SCITEGIC>MOL_PROPERTY
W(PB)
SciTegic.value.DoubleValue
-3.698

@<SCITEGIC>MOL_PROPERTY
W(SA)
SciTegic.value.DoubleValue
2.123

@<SCITEGIC>MOL_PROPERTY
Valence
SciTegic.value.DoubleValue
19.016

@<SCITEGIC>MOL_PROPERTY
Coulomb
SciTegic.value.DoubleValue
-9.226

@<SCITEGIC>MOL_PROPERTY
VdW
SciTegic.value.DoubleValue
2.737

@<SCITEGIC>MOL_PROPERTY
VdW6
SciTegic.value.DoubleValue
-12.612

@<SCITEGIC>MOL_PROPERTY
VdW12
SciTegic.value.DoubleValue
15.349

@<SCITEGIC>MOL_PROPERTY
Bond
SciTegic.value.DoubleValue
0.421

@<SCITEGIC>MOL_PROPERTY
Angle
SciTegic.value.DoubleValue
4.883

@<SCITEGIC>MOL_PROPERTY
Pdih
SciTegic.value.DoubleValue
13.711

@<SCITEGIC>MOL_PROPERTY
Idih
SciTegic.value.DoubleValue
0.000

@<SCITEGIC>MOL_PROPERTY
Tether
SciTegic.value.DoubleValue
0.000

@<TRIPOS>MOLECULE
guest-s17_confgen4.mol2 : confsearch ligand conformer 742
          25          25           1
SMALL
USER_CHARGES
 
@<TRIPOS>ATOM
       1    C1      21.999272   20.596057   22.653834 C.3        1 MOL1        -0.1684
       2    H1      22.989236   20.935459   22.319522 H          1 MOL1         0.0833
       3    H2      21.567930   21.443588   23.203481 H          1 MOL1         0.0833
       4    C2      22.220759   19.400703   23.609663 C.3        1 MOL1        -0.1684
       5    H3      22.762779   18.598398   23.090900 H          1 MOL1         0.0833
       6    H4      22.892126   19.740423   24.410197 H          1 MOL1         0.0833
       7    C3      20.939461   18.840001   24.269045 C.3        1 MOL1        -0.1684
       8    H5      20.281054   19.661239   24.582169 H          1 MOL1         0.0833
       9    H6      21.241046   18.337831   25.198579 H          1 MOL1         0.0833
      10    C4      20.178052   17.800221   23.403567 C.3        1 MOL1        -0.1760
      11    H7      20.793586   17.452547   22.564490 H          1 MOL1         0.0833
      12    H8      20.009927   16.913514   24.029702 H          1 MOL1         0.0833
      13    C5      18.804209   18.282902   22.886336 C.3        1 MOL1         0.1219
      14    H9      18.336148   18.913896   23.655385 H          1 MOL1         0.0790
      15    C6      18.855795   19.067426   21.556563 C.3        1 MOL1        -0.1760
      16    H10     19.264345   18.430044   20.761314 H          1 MOL1         0.0833
      17    H11     17.821335   19.287001   21.261450 H          1 MOL1         0.0833
      18    C7      19.621653   20.411861   21.607810 C.3        1 MOL1        -0.1684
      19    H12     19.387648   20.950449   22.535816 H          1 MOL1         0.0833
      20    H13     19.228643   21.042828   20.798704 H          1 MOL1         0.0833
      21    C8      21.153258   20.287809   21.396146 C.3        1 MOL1        -0.1684
      22    H14     21.438072   21.016506   20.624728 H          1 MOL1         0.0833
      23    H15     21.424248   19.307192   20.982888 H          1 MOL1         0.0833
      24    O1      17.986302   17.138235   22.675593 O.3        1 MOL1        -0.5508
      25    H16     17.104957   17.466629   22.400415 H          1 MOL1         0.3780
@<TRIPOS>BOND
    1     1     2    1
    2     1     3    1
    3     1     4    1
    4     4     5    1
    5     4     6    1
    6     4     7    1
    7     7     8    1
    8     7     9    1
    9     7    10    1
   10    10    11    1
   11    10    12    1
   12    10    13    1
   13    13    14    1
   14    13    15    1
   15    15    16    1
   16    15    17    1
   17    15    18    1
   18    18    19    1
   19    18    20    1
   20     1    21    1
   21    18    21    1
   22    21    22    1
   23    21    23    1
   24    13    24    1
   25    24    25    1
@<TRIPOS>SUBSTRUCTURE
       1 MOL1            1 RESIDUE      1      MOL     
@<SCITEGIC>MOL_PROPERTY
VConf Rank
SciTegic.value.IntegerValue
742

@<SCITEGIC>MOL_PROPERTY
Conf_Id
SciTegic.value.IntegerValue
30

@<SCITEGIC>MOL_PROPERTY
Delta U+W
SciTegic.value.DoubleValue
0.000

@<SCITEGIC>MOL_PROPERTY
U+W
SciTegic.value.DoubleValue
10.913

@<SCITEGIC>MOL_PROPERTY
Grad RMS
SciTegic.value.DoubleValue
0.000000

@<SCITEGIC>MOL_PROPERTY
U
SciTegic.value.DoubleValue
13.140

@<SCITEGIC>MOL_PROPERTY
W
SciTegic.value.DoubleValue
-2.227

@<SCITEGIC>MOL_PROPERTY
W(PB)
SciTegic.value.DoubleValue
-4.367

@<SCITEGIC>MOL_PROPERTY
W(SA)
SciTegic.value.DoubleValue
2.140

@<SCITEGIC>MOL_PROPERTY
Valence
SciTegic.value.DoubleValue
19.155

@<SCITEGIC>MOL_PROPERTY
Coulomb
SciTegic.value.DoubleValue
-8.157

@<SCITEGIC>MOL_PROPERTY
VdW
SciTegic.value.DoubleValue
2.142

@<SCITEGIC>MOL_PROPERTY
VdW6
SciTegic.value.DoubleValue
-11.576

@<SCITEGIC>MOL_PROPERTY
VdW12
SciTegic.value.DoubleValue
13.718

@<SCITEGIC>MOL_PROPERTY
Bond
SciTegic.value.DoubleValue
0.294

@<SCITEGIC>MOL_PROPERTY
Angle
SciTegic.value.DoubleValue
3.547

@<SCITEGIC>MOL_PROPERTY
Pdih
SciTegic.value.DoubleValue
15.314

@<SCITEGIC>MOL_PROPERTY
Idih
SciTegic.value.DoubleValue
0.000

@<SCITEGIC>MOL_PROPERTY
Tether
SciTegic.value.DoubleValue
0.000

@<TRIPOS>MOLECULE
guest-s17_confgen4.mol2 : confsearch ligand conformer 743
          25          25           1
SMALL
USER_CHARGES
 
@<TRIPOS>ATOM
       1    C1      18.792269   19.105940   21.141019 C.3        1 MOL1        -0.1684
       2    H1      17.821021   19.600042   21.001745 H          1 MOL1         0.0833
       3    H2      18.878919   18.384381   20.317236 H          1 MOL1         0.0833
       4    C2      18.755860   18.318146   22.473737 C.3        1 MOL1        -0.1684
       5    H3      17.791781   17.794555   22.530963 H          1 MOL1         0.0833
       6    H4      19.504354   17.517713   22.448887 H          1 MOL1         0.0833
       7    C3      18.918462   19.195234   23.741049 C.3        1 MOL1        -0.1684
       8    H5      18.059964   19.020310   24.403672 H          1 MOL1         0.0833
       9    H6      18.866132   20.261287   23.491190 H          1 MOL1         0.0833
      10    C4      20.211931   18.910065   24.545519 C.3        1 MOL1        -0.1760
      11    H7      20.329474   19.696254   25.303048 H          1 MOL1         0.0833
      12    H8      20.075498   17.973572   25.101876 H          1 MOL1         0.0833
      13    C5      21.527090   18.788036   23.735800 C.3        1 MOL1         0.1219
      14    H9      21.513595   17.850907   23.163442 H          1 MOL1         0.0790
      15    C6      21.810830   19.958199   22.762400 C.3        1 MOL1        -0.1760
      16    H10     21.394201   20.893217   23.158268 H          1 MOL1         0.0833
      17    H11     22.896907   20.116843   22.726834 H          1 MOL1         0.0833
      18    C7      21.345636   19.720223   21.297916 C.3        1 MOL1        -0.1684
      19    H12     21.494596   18.674084   20.998205 H          1 MOL1         0.0833
      20    H13     22.013859   20.306209   20.651902 H          1 MOL1         0.0833
      21    C8      19.900498   20.181115   20.984938 C.3        1 MOL1        -0.1684
      22    H14     19.873129   20.518538   19.939728 H          1 MOL1         0.0833
      23    H15     19.656668   21.075155   21.572788 H          1 MOL1         0.0833
      24    O1      22.593377   18.716310   24.675003 O.3        1 MOL1        -0.5508
      25    H16     23.412581   18.558964   24.160610 H          1 MOL1         0.3780
@<TRIPOS>BOND
    1     1     2    1
    2     1     3    1
    3     1     4    1
    4     4     5    1
    5     4     6    1
    6     4     7    1
    7     7     8    1
    8     7     9    1
    9     7    10    1
   10    10    11    1
   11    10    12    1
   12    10    13    1
   13    13    14    1
   14    13    15    1
   15    15    16    1
   16    15    17    1
   17    15    18    1
   18    18    19    1
   19    18    20    1
   20     1    21    1
   21    18    21    1
   22    21    22    1
   23    21    23    1
   24    13    24    1
   25    24    25    1
@<TRIPOS>SUBSTRUCTURE
       1 MOL1            1 RESIDUE      1      MOL     
@<SCITEGIC>MOL_PROPERTY
VConf Rank
SciTegic.value.IntegerValue
743

@<SCITEGIC>MOL_PROPERTY
Conf_Id
SciTegic.value.IntegerValue
162

@<SCITEGIC>MOL_PROPERTY
Delta U+W
SciTegic.value.DoubleValue
0.219

@<SCITEGIC>MOL_PROPERTY
U+W
SciTegic.value.DoubleValue
11.132

@<SCITEGIC>MOL_PROPERTY
Grad RMS
SciTegic.value.DoubleValue
0.000000

@<SCITEGIC>MOL_PROPERTY
U
SciTegic.value.DoubleValue
13.296

@<SCITEGIC>MOL_PROPERTY
W
SciTegic.value.DoubleValue
-2.164

@<SCITEGIC>MOL_PROPERTY
W(PB)
SciTegic.value.DoubleValue
-4.311

@<SCITEGIC>MOL_PROPERTY
W(SA)
SciTegic.value.DoubleValue
2.148

@<SCITEGIC>MOL_PROPERTY
Valence
SciTegic.value.DoubleValue
18.607

@<SCITEGIC>MOL_PROPERTY
Coulomb
SciTegic.value.DoubleValue
-8.339

@<SCITEGIC>MOL_PROPERTY
VdW
SciTegic.value.DoubleValue
3.028

@<SCITEGIC>MOL_PROPERTY
VdW6
SciTegic.value.DoubleValue
-12.271

@<SCITEGIC>MOL_PROPERTY
VdW12
SciTegic.value.DoubleValue
15.299

@<SCITEGIC>MOL_PROPERTY
Bond
SciTegic.value.DoubleValue
0.423

@<SCITEGIC>MOL_PROPERTY
Angle
SciTegic.value.DoubleValue
4.488

@<SCITEGIC>MOL_PROPERTY
Pdih
SciTegic.value.DoubleValue
13.696

@<SCITEGIC>MOL_PROPERTY
Idih
SciTegic.value.DoubleValue
0.000

@<SCITEGIC>MOL_PROPERTY
Tether
SciTegic.value.DoubleValue
0.000

@<TRIPOS>MOLECULE
guest-s17_confgen4.mol2 : confsearch ligand conformer 744
          25          25           1
SMALL
USER_CHARGES
 
@<TRIPOS>ATOM
       1    C1      20.789379   17.292263   22.441616 C.3        1 MOL1        -0.1684
       2    H1      20.914084   17.239233   23.530574 H          1 MOL1         0.0833
       3    H2      20.950176   16.263489   22.091281 H          1 MOL1         0.0833
       4    C2      19.333741   17.693251   22.095163 C.3        1 MOL1        -0.1684
       5    H3      19.271972   18.092648   21.073939 H          1 MOL1         0.0833
       6    H4      18.743079   16.766937   22.081055 H          1 MOL1         0.0833
       7    C3      18.649871   18.647496   23.113642 C.3        1 MOL1        -0.1684
       8    H5      18.948376   18.408889   24.143267 H          1 MOL1         0.0833
       9    H6      17.571934   18.439792   23.068440 H          1 MOL1         0.0833
      10    C4      18.827329   20.160785   22.824412 C.3        1 MOL1        -0.1760
      11    H7      18.861332   20.333421   21.741667 H          1 MOL1         0.0833
      12    H8      17.919320   20.675815   23.164234 H          1 MOL1         0.0833
      13    C5      20.019482   20.860089   23.525174 C.3        1 MOL1         0.1219
      14    H9      19.788193   20.924846   24.598209 H          1 MOL1         0.0790
      15    C6      21.395565   20.165204   23.392564 C.3        1 MOL1        -0.1760
      16    H10     22.172049   20.857935   23.742129 H          1 MOL1         0.0833
      17    H11     21.440383   19.327805   24.097072 H          1 MOL1         0.0833
      18    C7      21.752807   19.699758   21.956175 C.3        1 MOL1        -0.1684
      19    H12     22.700238   20.168819   21.658324 H          1 MOL1         0.0833
      20    H13     21.018434   20.069479   21.230839 H          1 MOL1         0.0833
      21    C8      21.902597   18.166562   21.805656 C.3        1 MOL1        -0.1684
      22    H14     22.865038   17.862491   22.239230 H          1 MOL1         0.0833
      23    H15     21.970094   17.931633   20.734691 H          1 MOL1         0.0833
      24    O1      20.123639   22.176370   22.995403 O.3        1 MOL1        -0.5508
      25    H16     20.881599   22.602310   23.446168 H          1 MOL1         0.3780
@<TRIPOS>BOND
    1     1     2    1
    2     1     3    1
    3     1     4    1
    4     4     5    1
    5     4     6    1
    6     4     7    1
    7     7     8    1
    8     7     9    1
    9     7    10    1
   10    10    11    1
   11    10    12    1
   12    10    13    1
   13    13    14    1
   14    13    15    1
   15    15    16    1
   16    15    17    1
   17    15    18    1
   18    18    19    1
   19    18    20    1
   20     1    21    1
   21    18    21    1
   22    21    22    1
   23    21    23    1
   24    13    24    1
   25    24    25    1
@<TRIPOS>SUBSTRUCTURE
       1 MOL1            1 RESIDUE      1      MOL     
@<SCITEGIC>MOL_PROPERTY
VConf Rank
SciTegic.value.IntegerValue
744

@<SCITEGIC>MOL_PROPERTY
Conf_Id
SciTegic.value.IntegerValue
155

@<SCITEGIC>MOL_PROPERTY
Delta U+W
SciTegic.value.DoubleValue
0.339

@<SCITEGIC>MOL_PROPERTY
U+W
SciTegic.value.DoubleValue
11.252

@<SCITEGIC>MOL_PROPERTY
Grad RMS
SciTegic.value.DoubleValue
0.000000

@<SCITEGIC>MOL_PROPERTY
U
SciTegic.value.DoubleValue
13.420

@<SCITEGIC>MOL_PROPERTY
W
SciTegic.value.DoubleValue
-2.167

@<SCITEGIC>MOL_PROPERTY
W(PB)
SciTegic.value.DoubleValue
-4.325

@<SCITEGIC>MOL_PROPERTY
W(SA)
SciTegic.value.DoubleValue
2.157

@<SCITEGIC>MOL_PROPERTY
Valence
SciTegic.value.DoubleValue
18.609

@<SCITEGIC>MOL_PROPERTY
Coulomb
SciTegic.value.DoubleValue
-8.052

@<SCITEGIC>MOL_PROPERTY
VdW
SciTegic.value.DoubleValue
2.863

@<SCITEGIC>MOL_PROPERTY
VdW6
SciTegic.value.DoubleValue
-12.524

@<SCITEGIC>MOL_PROPERTY
VdW12
SciTegic.value.DoubleValue
15.387

@<SCITEGIC>MOL_PROPERTY
Bond
SciTegic.value.DoubleValue
0.430

@<SCITEGIC>MOL_PROPERTY
Angle
SciTegic.value.DoubleValue
4.724

@<SCITEGIC>MOL_PROPERTY
Pdih
SciTegic.value.DoubleValue
13.455

@<SCITEGIC>MOL_PROPERTY
Idih
SciTegic.value.DoubleValue
0.000

@<SCITEGIC>MOL_PROPERTY
Tether
SciTegic.value.DoubleValue
0.000

@<TRIPOS>MOLECULE
guest-s17_confgen4.mol2 : confsearch ligand conformer 745
          25          25           1
SMALL
USER_CHARGES
 
@<TRIPOS>ATOM
       1    C1      21.841438   20.038929   21.607694 C.3        1 MOL1        -0.1684
       2    H1      21.741813   21.120045   21.441557 H          1 MOL1         0.0833
       3    H2      22.783536   19.753858   21.119873 H          1 MOL1         0.0833
       4    C2      22.019920   19.769356   23.125025 C.3        1 MOL1        -0.1684
       5    H3      22.235962   18.707633   23.280618 H          1 MOL1         0.0833
       6    H4      22.944639   20.269042   23.444279 H          1 MOL1         0.0833
       7    C3      20.887943   20.249579   24.079609 C.3        1 MOL1        -0.1684
       8    H5      21.094511   21.298109   24.333510 H          1 MOL1         0.0833
       9    H6      20.962845   19.697844   25.026550 H          1 MOL1         0.0833
      10    C4      19.422619   20.186529   23.568968 C.3        1 MOL1        -0.1760
      11    H7      18.793819   20.691905   24.313619 H          1 MOL1         0.0833
      12    H8      19.322136   20.823576   22.685889 H          1 MOL1         0.0833
      13    C5      18.804053   18.783889   23.296418 C.3        1 MOL1         0.1219
      14    H9      17.981035   18.914441   22.579224 H          1 MOL1         0.0790
      15    C6      19.741008   17.677771   22.749464 C.3        1 MOL1        -0.1760
      16    H10     20.533428   17.487803   23.479192 H          1 MOL1         0.0833
      17    H11     19.170942   16.739435   22.736245 H          1 MOL1         0.0833
      18    C7      20.335907   17.867079   21.321682 C.3        1 MOL1        -0.1684
      19    H12     19.603125   17.471614   20.605110 H          1 MOL1         0.0833
      20    H13     21.221605   17.225859   21.218253 H          1 MOL1         0.0833
      21    C8      20.690174   19.304975   20.859470 C.3        1 MOL1        -0.1684
      22    H14     19.782439   19.916379   20.846074 H          1 MOL1         0.0833
      23    H15     20.977759   19.250874   19.800581 H          1 MOL1         0.0833
      24    O1      18.263659   18.300208   24.521249 O.3        1 MOL1        -0.5508
      25    H16     17.632411   18.978138   24.839333 H          1 MOL1         0.3780
@<TRIPOS>BOND
    1     1     2    1
    2     1     3    1
    3     1     4    1
    4     4     5    1
    5     4     6    1
    6     4     7    1
    7     7     8    1
    8     7     9    1
    9     7    10    1
   10    10    11    1
   11    10    12    1
   12    10    13    1
   13    13    14    1
   14    13    15    1
   15    15    16    1
   16    15    17    1
   17    15    18    1
   18    18    19    1
   19    18    20    1
   20     1    21    1
   21    18    21    1
   22    21    22    1
   23    21    23    1
   24    13    24    1
   25    24    25    1
@<TRIPOS>SUBSTRUCTURE
       1 MOL1            1 RESIDUE      1      MOL     
@<SCITEGIC>MOL_PROPERTY
VConf Rank
SciTegic.value.IntegerValue
745

@<SCITEGIC>MOL_PROPERTY
Conf_Id
SciTegic.value.IntegerValue
146

@<SCITEGIC>MOL_PROPERTY
Delta U+W
SciTegic.value.DoubleValue
2.553

@<SCITEGIC>MOL_PROPERTY
U+W
SciTegic.value.DoubleValue
13.466

@<SCITEGIC>MOL_PROPERTY
Grad RMS
SciTegic.value.DoubleValue
0.000000

@<SCITEGIC>MOL_PROPERTY
U
SciTegic.value.DoubleValue
15.643

@<SCITEGIC>MOL_PROPERTY
W
SciTegic.value.DoubleValue
-2.176

@<SCITEGIC>MOL_PROPERTY
W(PB)
SciTegic.value.DoubleValue
-4.307

@<SCITEGIC>MOL_PROPERTY
W(SA)
SciTegic.value.DoubleValue
2.131

@<SCITEGIC>MOL_PROPERTY
Valence
SciTegic.value.DoubleValue
18.916

@<SCITEGIC>MOL_PROPERTY
Coulomb
SciTegic.value.DoubleValue
-7.506

@<SCITEGIC>MOL_PROPERTY
VdW
SciTegic.value.DoubleValue
4.232

@<SCITEGIC>MOL_PROPERTY
VdW6
SciTegic.value.DoubleValue
-13.632

@<SCITEGIC>MOL_PROPERTY
VdW12
SciTegic.value.DoubleValue
17.864

@<SCITEGIC>MOL_PROPERTY
Bond
SciTegic.value.DoubleValue
0.735

@<SCITEGIC>MOL_PROPERTY
Angle
SciTegic.value.DoubleValue
9.140

@<SCITEGIC>MOL_PROPERTY
Pdih
SciTegic.value.DoubleValue
9.042

@<SCITEGIC>MOL_PROPERTY
Idih
SciTegic.value.DoubleValue
0.000

@<SCITEGIC>MOL_PROPERTY
Tether
SciTegic.value.DoubleValue
0.000

@<TRIPOS>MOLECULE
guest-s17_confgen4.mol2 : confsearch ligand conformer 746
          25          25           1
SMALL
USER_CHARGES
 
@<TRIPOS>ATOM
       1    C1      21.326967   19.035716   20.865166 C.3        1 MOL1        -0.1684
       2    H1      21.955964   19.829447   20.439890 H          1 MOL1         0.0833
       3    H2      21.379793   18.201863   20.151857 H          1 MOL1         0.0833
       4    C2      19.854823   19.516616   20.906007 C.3        1 MOL1        -0.1684
       5    H3      19.551142   19.724359   19.870912 H          1 MOL1         0.0833
       6    H4      19.196413   18.701771   21.227985 H          1 MOL1         0.0833
       7    C3      19.578244   20.797935   21.731905 C.3        1 MOL1        -0.1684
       8    H5      18.527653   21.075397   21.569870 H          1 MOL1         0.0833
       9    H6      20.171582   21.627714   21.324647 H          1 MOL1         0.0833
      10    C4      19.815559   20.712847   23.262312 C.3        1 MOL1        -0.1760
      11    H7      20.877605   20.847153   23.490541 H          1 MOL1         0.0833
      12    H8      19.325602   21.586109   23.713855 H          1 MOL1         0.0833
      13    C5      19.280909   19.425247   23.940774 C.3        1 MOL1         0.1219
      14    H9      18.521112   18.959171   23.299116 H          1 MOL1         0.0790
      15    C6      20.378003   18.383490   24.276766 C.3        1 MOL1        -0.1760
      16    H10     21.152859   18.861259   24.890814 H          1 MOL1         0.0833
      17    H11     19.928275   17.611440   24.914751 H          1 MOL1         0.0833
      18    C7      21.048144   17.658405   23.078114 C.3        1 MOL1        -0.1684
      19    H12     20.298104   17.138358   22.468367 H          1 MOL1         0.0833
      20    H13     21.678590   16.862192   23.497118 H          1 MOL1         0.0833
      21    C8      21.956201   18.556768   22.198989 C.3        1 MOL1        -0.1684
      22    H14     22.857853   17.983819   21.942490 H          1 MOL1         0.0833
      23    H15     22.330589   19.408839   22.777464 H          1 MOL1         0.0833
      24    O1      18.660445   19.796538   25.166546 O.3        1 MOL1        -0.5508
      25    H16     18.278665   18.979442   25.549717 H          1 MOL1         0.3780
@<TRIPOS>BOND
    1     1     2    1
    2     1     3    1
    3     1     4    1
    4     4     5    1
    5     4     6    1
    6     4     7    1
    7     7     8    1
    8     7     9    1
    9     7    10    1
   10    10    11    1
   11    10    12    1
   12    10    13    1
   13    13    14    1
   14    13    15    1
   15    15    16    1
   16    15    17    1
   17    15    18    1
   18    18    19    1
   19    18    20    1
   20     1    21    1
   21    18    21    1
   22    21    22    1
   23    21    23    1
   24    13    24    1
   25    24    25    1
@<TRIPOS>SUBSTRUCTURE
       1 MOL1            1 RESIDUE      1      MOL     
@<SCITEGIC>MOL_PROPERTY
VConf Rank
SciTegic.value.IntegerValue
746

@<SCITEGIC>MOL_PROPERTY
Conf_Id
SciTegic.value.IntegerValue
62

@<SCITEGIC>MOL_PROPERTY
Delta U+W
SciTegic.value.DoubleValue
-1.779

@<SCITEGIC>MOL_PROPERTY
U+W
SciTegic.value.DoubleValue
9.134

@<SCITEGIC>MOL_PROPERTY
Grad RMS
SciTegic.value.DoubleValue
0.000000

@<SCITEGIC>MOL_PROPERTY
U
SciTegic.value.DoubleValue
11.364

@<SCITEGIC>MOL_PROPERTY
W
SciTegic.value.DoubleValue
-2.230

@<SCITEGIC>MOL_PROPERTY
W(PB)
SciTegic.value.DoubleValue
-4.359

@<SCITEGIC>MOL_PROPERTY
W(SA)
SciTegic.value.DoubleValue
2.129

@<SCITEGIC>MOL_PROPERTY
Valence
SciTegic.value.DoubleValue
16.582

@<SCITEGIC>MOL_PROPERTY
Coulomb
SciTegic.value.DoubleValue
-8.150

@<SCITEGIC>MOL_PROPERTY
VdW
SciTegic.value.DoubleValue
2.933

@<SCITEGIC>MOL_PROPERTY
VdW6
SciTegic.value.DoubleValue
-12.531

@<SCITEGIC>MOL_PROPERTY
VdW12
SciTegic.value.DoubleValue
15.464

@<SCITEGIC>MOL_PROPERTY
Bond
SciTegic.value.DoubleValue
0.439

@<SCITEGIC>MOL_PROPERTY
Angle
SciTegic.value.DoubleValue
5.099

@<SCITEGIC>MOL_PROPERTY
Pdih
SciTegic.value.DoubleValue
11.044

@<SCITEGIC>MOL_PROPERTY
Idih
SciTegic.value.DoubleValue
0.000

@<SCITEGIC>MOL_PROPERTY
Tether
SciTegic.value.DoubleValue
0.000

@<TRIPOS>MOLECULE
guest-s17_confgen4.mol2 : confsearch ligand conformer 747
          25          25           1
SMALL
USER_CHARGES
 
@<TRIPOS>ATOM
       1    C1      22.094708   19.857451   22.419641 C.3        1 MOL1        -0.1684
       2    H1      21.517601   20.731289   22.742871 H          1 MOL1         0.0833
       3    H2      23.109711   20.242811   22.252587 H          1 MOL1         0.0833
       4    C2      21.570206   19.337206   21.058062 C.3        1 MOL1        -0.1684
       5    H3      21.678748   20.153052   20.330394 H          1 MOL1         0.0833
       6    H4      22.225598   18.531463   20.700663 H          1 MOL1         0.0833
       7    C3      20.099759   18.849450   21.007054 C.3        1 MOL1        -0.1684
       8    H5      20.025563   17.813783   21.357599 H          1 MOL1         0.0833
       9    H6      19.811135   18.802090   19.948055 H          1 MOL1         0.0833
      10    C4      19.076196   19.750270   21.748777 C.3        1 MOL1        -0.1760
      11    H7      19.445758   20.779507   21.834482 H          1 MOL1         0.0833
      12    H8      18.182570   19.815743   21.114355 H          1 MOL1         0.0833
      13    C5      18.622067   19.219600   23.132089 C.3        1 MOL1         0.1219
      14    H9      18.267237   18.186630   23.005403 H          1 MOL1         0.0790
      15    C6      19.687631   19.227875   24.256550 C.3        1 MOL1        -0.1760
      16    H10     20.072160   20.242761   24.414449 H          1 MOL1         0.0833
      17    H11     19.170061   18.967435   25.189343 H          1 MOL1         0.0833
      18    C7      20.846153   18.211659   24.070263 C.3        1 MOL1        -0.1684
      19    H12     20.529556   17.381453   23.428804 H          1 MOL1         0.0833
      20    H13     21.051708   17.744141   25.042951 H          1 MOL1         0.0833
      21    C8      22.180692   18.814507   23.561830 C.3        1 MOL1        -0.1684
      22    H14     22.848208   17.997015   23.257506 H          1 MOL1         0.0833
      23    H15     22.675518   19.300335   24.413886 H          1 MOL1         0.0833
      24    O1      17.534493   20.025763   23.567648 O.3        1 MOL1        -0.5508
      25    H16     16.839157   19.958443   22.880536 H          1 MOL1         0.3780
@<TRIPOS>BOND
    1     1     2    1
    2     1     3    1
    3     1     4    1
    4     4     5    1
    5     4     6    1
    6     4     7    1
    7     7     8    1
    8     7     9    1
    9     7    10    1
   10    10    11    1
   11    10    12    1
   12    10    13    1
   13    13    14    1
   14    13    15    1
   15    15    16    1
   16    15    17    1
   17    15    18    1
   18    18    19    1
   19    18    20    1
   20     1    21    1
   21    18    21    1
   22    21    22    1
   23    21    23    1
   24    13    24    1
   25    24    25    1
@<TRIPOS>SUBSTRUCTURE
       1 MOL1            1 RESIDUE      1      MOL     
@<SCITEGIC>MOL_PROPERTY
VConf Rank
SciTegic.value.IntegerValue
747

@<SCITEGIC>MOL_PROPERTY
Conf_Id
SciTegic.value.IntegerValue
121

@<SCITEGIC>MOL_PROPERTY
Delta U+W
SciTegic.value.DoubleValue
-1.283

@<SCITEGIC>MOL_PROPERTY
U+W
SciTegic.value.DoubleValue
9.630

@<SCITEGIC>MOL_PROPERTY
Grad RMS
SciTegic.value.DoubleValue
0.000000

@<SCITEGIC>MOL_PROPERTY
U
SciTegic.value.DoubleValue
11.876

@<SCITEGIC>MOL_PROPERTY
W
SciTegic.value.DoubleValue
-2.246

@<SCITEGIC>MOL_PROPERTY
W(PB)
SciTegic.value.DoubleValue
-4.376

@<SCITEGIC>MOL_PROPERTY
W(SA)
SciTegic.value.DoubleValue
2.130

@<SCITEGIC>MOL_PROPERTY
Valence
SciTegic.value.DoubleValue
17.153

@<SCITEGIC>MOL_PROPERTY
Coulomb
SciTegic.value.DoubleValue
-7.966

@<SCITEGIC>MOL_PROPERTY
VdW
SciTegic.value.DoubleValue
2.689

@<SCITEGIC>MOL_PROPERTY
VdW6
SciTegic.value.DoubleValue
-12.458

@<SCITEGIC>MOL_PROPERTY
VdW12
SciTegic.value.DoubleValue
15.147

@<SCITEGIC>MOL_PROPERTY
Bond
SciTegic.value.DoubleValue
0.421

@<SCITEGIC>MOL_PROPERTY
Angle
SciTegic.value.DoubleValue
5.258

@<SCITEGIC>MOL_PROPERTY
Pdih
SciTegic.value.DoubleValue
11.475

@<SCITEGIC>MOL_PROPERTY
Idih
SciTegic.value.DoubleValue
0.000

@<SCITEGIC>MOL_PROPERTY
Tether
SciTegic.value.DoubleValue
0.000

@<TRIPOS>MOLECULE
guest-s17_confgen4.mol2 : confsearch ligand conformer 748
          25          25           1
SMALL
USER_CHARGES
 
@<TRIPOS>ATOM
       1    C1      21.784140   20.404198   22.360074 C.3        1 MOL1        -0.1684
       2    H1      21.701323   20.365649   23.452219 H          1 MOL1         0.0833
       3    H2      22.642483   21.063078   22.170963 H          1 MOL1         0.0833
       4    C2      20.535949   21.087360   21.747676 C.3        1 MOL1        -0.1684
       5    H3      20.483090   22.104661   22.158999 H          1 MOL1         0.0833
       6    H4      20.683899   21.211630   20.666403 H          1 MOL1         0.0833
       7    C3      19.165487   20.405766   21.993008 C.3        1 MOL1        -0.1684
       8    H5      18.998628   19.603625   21.265222 H          1 MOL1         0.0833
       9    H6      18.388879   21.148790   21.765538 H          1 MOL1         0.0833
      10    C4      18.931589   19.887430   23.437374 C.3        1 MOL1        -0.1760
      11    H7      19.552375   20.431793   24.159234 H          1 MOL1         0.0833
      12    H8      17.895297   20.129093   23.708495 H          1 MOL1         0.0833
      13    C5      19.100638   18.358367   23.619868 C.3        1 MOL1         0.1219
      14    H9      18.465873   17.853547   22.877432 H          1 MOL1         0.0790
      15    C6      20.541239   17.803574   23.484746 C.3        1 MOL1        -0.1760
      16    H10     21.209453   18.289688   24.206158 H          1 MOL1         0.0833
      17    H11     20.513897   16.747113   23.782213 H          1 MOL1         0.0833
      18    C7      21.131721   17.860632   22.050388 C.3        1 MOL1        -0.1684
      19    H12     20.329020   17.883386   21.304635 H          1 MOL1         0.0833
      20    H13     21.658229   16.915722   21.858143 H          1 MOL1         0.0833
      21    C8      22.143578   19.006982   21.795939 C.3        1 MOL1        -0.1684
      22    H14     22.326398   19.087826   20.715876 H          1 MOL1         0.0833
      23    H15     23.104548   18.710951   22.238421 H          1 MOL1         0.0833
      24    O1      18.631597   18.028600   24.921283 O.3        1 MOL1        -0.5508
      25    H16     18.679233   17.053113   25.000686 H          1 MOL1         0.3780
@<TRIPOS>BOND
    1     1     2    1
    2     1     3    1
    3     1     4    1
    4     4     5    1
    5     4     6    1
    6     4     7    1
    7     7     8    1
    8     7     9    1
    9     7    10    1
   10    10    11    1
   11    10    12    1
   12    10    13    1
   13    13    14    1
   14    13    15    1
   15    15    16    1
   16    15    17    1
   17    15    18    1
   18    18    19    1
   19    18    20    1
   20     1    21    1
   21    18    21    1
   22    21    22    1
   23    21    23    1
   24    13    24    1
   25    24    25    1
@<TRIPOS>SUBSTRUCTURE
       1 MOL1            1 RESIDUE      1      MOL     
@<SCITEGIC>MOL_PROPERTY
VConf Rank
SciTegic.value.IntegerValue
748

@<SCITEGIC>MOL_PROPERTY
Conf_Id
SciTegic.value.IntegerValue
24

@<SCITEGIC>MOL_PROPERTY
Delta U+W
SciTegic.value.DoubleValue
-1.236

@<SCITEGIC>MOL_PROPERTY
U+W
SciTegic.value.DoubleValue
9.678

@<SCITEGIC>MOL_PROPERTY
Grad RMS
SciTegic.value.DoubleValue
0.000000

@<SCITEGIC>MOL_PROPERTY
U
SciTegic.value.DoubleValue
11.876

@<SCITEGIC>MOL_PROPERTY
W
SciTegic.value.DoubleValue
-2.199

@<SCITEGIC>MOL_PROPERTY
W(PB)
SciTegic.value.DoubleValue
-4.335

@<SCITEGIC>MOL_PROPERTY
W(SA)
SciTegic.value.DoubleValue
2.137

@<SCITEGIC>MOL_PROPERTY
Valence
SciTegic.value.DoubleValue
17.153

@<SCITEGIC>MOL_PROPERTY
Coulomb
SciTegic.value.DoubleValue
-7.966

@<SCITEGIC>MOL_PROPERTY
VdW
SciTegic.value.DoubleValue
2.689

@<SCITEGIC>MOL_PROPERTY
VdW6
SciTegic.value.DoubleValue
-12.458

@<SCITEGIC>MOL_PROPERTY
VdW12
SciTegic.value.DoubleValue
15.147

@<SCITEGIC>MOL_PROPERTY
Bond
SciTegic.value.DoubleValue
0.421

@<SCITEGIC>MOL_PROPERTY
Angle
SciTegic.value.DoubleValue
5.258

@<SCITEGIC>MOL_PROPERTY
Pdih
SciTegic.value.DoubleValue
11.475

@<SCITEGIC>MOL_PROPERTY
Idih
SciTegic.value.DoubleValue
0.000

@<SCITEGIC>MOL_PROPERTY
Tether
SciTegic.value.DoubleValue
0.000

@<TRIPOS>MOLECULE
guest-s17_confgen4.mol2 : confsearch ligand conformer 749
          25          25           1
SMALL
USER_CHARGES
 
@<TRIPOS>ATOM
       1    C1      20.337712   21.265266   22.106971 C.3        1 MOL1        -0.1684
       2    H1      21.261432   21.766947   21.787858 H          1 MOL1         0.0833
       3    H2      19.569135   22.049609   22.137754 H          1 MOL1         0.0833
       4    C2      19.925472   20.235301   21.021876 C.3        1 MOL1        -0.1684
       5    H3      18.869505   19.958169   21.133345 H          1 MOL1         0.0833
       6    H4      19.977534   20.752645   20.054037 H          1 MOL1         0.0833
       7    C3      20.799987   18.960552   20.927549 C.3        1 MOL1        -0.1684
       8    H5      21.849571   19.189729   21.156256 H          1 MOL1         0.0833
       9    H6      20.793494   18.646771   19.874599 H          1 MOL1         0.0833
      10    C4      20.294679   17.749637   21.761981 C.3        1 MOL1        -0.1760
      11    H7      19.198063   17.705918   21.762114 H          1 MOL1         0.0833
      12    H8      20.625359   16.845172   21.233263 H          1 MOL1         0.0833
      13    C5      20.841578   17.678226   23.208660 C.3        1 MOL1         0.1219
      14    H9      21.828439   18.159065   23.232615 H          1 MOL1         0.0790
      15    C6      19.935581   18.314321   24.293262 C.3        1 MOL1        -0.1760
      16    H10     19.056669   17.676284   24.453864 H          1 MOL1         0.0833
      17    H11     20.492724   18.304352   25.239367 H          1 MOL1         0.0833
      18    C7      19.442434   19.759909   24.033031 C.3        1 MOL1        -0.1684
      19    H12     19.022345   20.150319   24.969974 H          1 MOL1         0.0833
      20    H13     18.597979   19.742297   23.334262 H          1 MOL1         0.0833
      21    C8      20.549490   20.727406   23.543408 C.3        1 MOL1        -0.1684
      22    H14     21.540551   20.265442   23.621150 H          1 MOL1         0.0833
      23    H15     20.590058   21.588134   24.224857 H          1 MOL1         0.0833
      24    O1      21.015007   16.309894   23.554059 O.3        1 MOL1        -0.5508
      25    H16     20.128063   15.897557   23.506301 H          1 MOL1         0.3780
@<TRIPOS>BOND
    1     1     2    1
    2     1     3    1
    3     1     4    1
    4     4     5    1
    5     4     6    1
    6     4     7    1
    7     7     8    1
    8     7     9    1
    9     7    10    1
   10    10    11    1
   11    10    12    1
   12    10    13    1
   13    13    14    1
   14    13    15    1
   15    15    16    1
   16    15    17    1
   17    15    18    1
   18    18    19    1
   19    18    20    1
   20     1    21    1
   21    18    21    1
   22    21    22    1
   23    21    23    1
   24    13    24    1
   25    24    25    1
@<TRIPOS>SUBSTRUCTURE
       1 MOL1            1 RESIDUE      1      MOL     
@<SCITEGIC>MOL_PROPERTY
VConf Rank
SciTegic.value.IntegerValue
749

@<SCITEGIC>MOL_PROPERTY
Conf_Id
SciTegic.value.IntegerValue
167

@<SCITEGIC>MOL_PROPERTY
Delta U+W
SciTegic.value.DoubleValue
0.388

@<SCITEGIC>MOL_PROPERTY
U+W
SciTegic.value.DoubleValue
11.301

@<SCITEGIC>MOL_PROPERTY
Grad RMS
SciTegic.value.DoubleValue
0.000000

@<SCITEGIC>MOL_PROPERTY
U
SciTegic.value.DoubleValue
13.202

@<SCITEGIC>MOL_PROPERTY
W
SciTegic.value.DoubleValue
-1.901

@<SCITEGIC>MOL_PROPERTY
W(PB)
SciTegic.value.DoubleValue
-4.065

@<SCITEGIC>MOL_PROPERTY
W(SA)
SciTegic.value.DoubleValue
2.163

@<SCITEGIC>MOL_PROPERTY
Valence
SciTegic.value.DoubleValue
18.957

@<SCITEGIC>MOL_PROPERTY
Coulomb
SciTegic.value.DoubleValue
-8.753

@<SCITEGIC>MOL_PROPERTY
VdW
SciTegic.value.DoubleValue
2.998

@<SCITEGIC>MOL_PROPERTY
VdW6
SciTegic.value.DoubleValue
-12.294

@<SCITEGIC>MOL_PROPERTY
VdW12
SciTegic.value.DoubleValue
15.292

@<SCITEGIC>MOL_PROPERTY
Bond
SciTegic.value.DoubleValue
0.419

@<SCITEGIC>MOL_PROPERTY
Angle
SciTegic.value.DoubleValue
4.543

@<SCITEGIC>MOL_PROPERTY
Pdih
SciTegic.value.DoubleValue
13.996

@<SCITEGIC>MOL_PROPERTY
Idih
SciTegic.value.DoubleValue
0.000

@<SCITEGIC>MOL_PROPERTY
Tether
SciTegic.value.DoubleValue
0.000

@<TRIPOS>MOLECULE
guest-s17_confgen4.mol2 : confsearch ligand conformer 750
          25          25           1
SMALL
USER_CHARGES
 
@<TRIPOS>ATOM
       1    C1      21.844446   18.083376   23.408222 C.3        1 MOL1        -0.1684
       2    H1      22.452486   17.444175   22.753843 H          1 MOL1         0.0833
       3    H2      22.264876   17.960278   24.415696 H          1 MOL1         0.0833
       4    C2      20.392397   17.539114   23.433453 C.3        1 MOL1        -0.1684
       5    H3      20.080791   17.222561   22.431704 H          1 MOL1         0.0833
       6    H4      20.406930   16.610486   24.020371 H          1 MOL1         0.0833
       7    C3      19.335731   18.486853   24.058025 C.3        1 MOL1        -0.1684
       8    H5      19.799820   19.179689   24.771726 H          1 MOL1         0.0833
       9    H6      18.653611   17.870290   24.659247 H          1 MOL1         0.0833
      10    C4      18.462554   19.257508   23.030454 C.3        1 MOL1        -0.1760
      11    H7      17.977329   18.541634   22.354198 H          1 MOL1         0.0833
      12    H8      17.647054   19.739476   23.585840 H          1 MOL1         0.0833
      13    C5      19.169919   20.351355   22.192277 C.3        1 MOL1         0.1219
      14    H9      19.682074   21.047818   22.869619 H          1 MOL1         0.0790
      15    C6      20.175415   19.798429   21.149215 C.3        1 MOL1        -0.1760
      16    H10     19.938065   18.756209   20.913169 H          1 MOL1         0.0833
      17    H11     20.044428   20.329396   20.196924 H          1 MOL1         0.0833
      18    C7      21.669017   19.931162   21.544561 C.3        1 MOL1        -0.1684
      19    H12     21.971405   20.973892   21.376573 H          1 MOL1         0.0833
      20    H13     22.275390   19.330327   20.853286 H          1 MOL1         0.0833
      21    C8      22.043113   19.565626   23.003089 C.3        1 MOL1        -0.1684
      22    H14     21.527983   20.225840   23.710130 H          1 MOL1         0.0833
      23    H15     23.108603   19.798885   23.134021 H          1 MOL1         0.0833
      24    O1      18.158988   21.072015   21.497418 O.3        1 MOL1        -0.5508
      25    H16     18.609587   21.803448   21.025738 H          1 MOL1         0.3780
@<TRIPOS>BOND
    1     1     2    1
    2     1     3    1
    3     1     4    1
    4     4     5    1
    5     4     6    1
    6     4     7    1
    7     7     8    1
    8     7     9    1
    9     7    10    1
   10    10    11    1
   11    10    12    1
   12    10    13    1
   13    13    14    1
   14    13    15    1
   15    15    16    1
   16    15    17    1
   17    15    18    1
   18    18    19    1
   19    18    20    1
   20     1    21    1
   21    18    21    1
   22    21    22    1
   23    21    23    1
   24    13    24    1
   25    24    25    1
@<TRIPOS>SUBSTRUCTURE
       1 MOL1            1 RESIDUE      1      MOL     
@<SCITEGIC>MOL_PROPERTY
VConf Rank
SciTegic.value.IntegerValue
750

@<SCITEGIC>MOL_PROPERTY
Conf_Id
SciTegic.value.IntegerValue
60

@<SCITEGIC>MOL_PROPERTY
Delta U+W
SciTegic.value.DoubleValue
-1.838

@<SCITEGIC>MOL_PROPERTY
U+W
SciTegic.value.DoubleValue
9.075

@<SCITEGIC>MOL_PROPERTY
Grad RMS
SciTegic.value.DoubleValue
0.000000

@<SCITEGIC>MOL_PROPERTY
U
SciTegic.value.DoubleValue
11.150

@<SCITEGIC>MOL_PROPERTY
W
SciTegic.value.DoubleValue
-2.074

@<SCITEGIC>MOL_PROPERTY
W(PB)
SciTegic.value.DoubleValue
-4.196

@<SCITEGIC>MOL_PROPERTY
W(SA)
SciTegic.value.DoubleValue
2.121

@<SCITEGIC>MOL_PROPERTY
Valence
SciTegic.value.DoubleValue
16.582

@<SCITEGIC>MOL_PROPERTY
Coulomb
SciTegic.value.DoubleValue
-8.361

@<SCITEGIC>MOL_PROPERTY
VdW
SciTegic.value.DoubleValue
2.928

@<SCITEGIC>MOL_PROPERTY
VdW6
SciTegic.value.DoubleValue
-12.539

@<SCITEGIC>MOL_PROPERTY
VdW12
SciTegic.value.DoubleValue
15.467

@<SCITEGIC>MOL_PROPERTY
Bond
SciTegic.value.DoubleValue
0.441

@<SCITEGIC>MOL_PROPERTY
Angle
SciTegic.value.DoubleValue
5.093

@<SCITEGIC>MOL_PROPERTY
Pdih
SciTegic.value.DoubleValue
11.049

@<SCITEGIC>MOL_PROPERTY
Idih
SciTegic.value.DoubleValue
0.000

@<SCITEGIC>MOL_PROPERTY
Tether
SciTegic.value.DoubleValue
0.000

@<TRIPOS>MOLECULE
guest-s17_confgen4.mol2 : confsearch ligand conformer 751
          25          25           1
SMALL
USER_CHARGES
 
@<TRIPOS>ATOM
       1    C1      19.552217   18.399290   24.399168 C.3        1 MOL1        -0.1684
       2    H1      18.576641   17.894835   24.415940 H          1 MOL1         0.0833
       3    H2      19.911701   18.382749   25.437155 H          1 MOL1         0.0833
       4    C2      19.353302   19.883976   24.003181 C.3        1 MOL1        -0.1684
       5    H3      18.706982   20.340370   24.765281 H          1 MOL1         0.0833
       6    H4      20.300502   20.429472   24.083147 H          1 MOL1         0.0833
       7    C3      18.691144   20.140841   22.626070 C.3        1 MOL1        -0.1684
       8    H5      18.512921   21.221539   22.540787 H          1 MOL1         0.0833
       9    H6      17.697481   19.672995   22.608652 H          1 MOL1         0.0833
      10    C4      19.482575   19.687840   21.371802 C.3        1 MOL1        -0.1760
      11    H7      19.340761   18.615741   21.202195 H          1 MOL1         0.0833
      12    H8      19.011546   20.165219   20.502214 H          1 MOL1         0.0833
      13    C5      20.995155   20.028983   21.392947 C.3        1 MOL1         0.1219
      14    H9      21.185989   20.827975   22.121882 H          1 MOL1         0.0790
      15    C6      21.911317   18.821702   21.713143 C.3        1 MOL1        -0.1760
      16    H10     21.698907   18.009481   21.005739 H          1 MOL1         0.0833
      17    H11     22.946565   19.127000   21.511055 H          1 MOL1         0.0833
      18    C7      21.862122   18.269074   23.163809 C.3        1 MOL1        -0.1684
      19    H12     22.111716   19.054822   23.888427 H          1 MOL1         0.0833
      20    H13     22.670190   17.530118   23.252546 H          1 MOL1         0.0833
      21    C8      20.537357   17.559029   23.545489 C.3        1 MOL1        -0.1684
      22    H14     20.786841   16.663174   24.130498 H          1 MOL1         0.0833
      23    H15     20.038391   17.169247   22.651114 H          1 MOL1         0.0833
      24    O1      21.361387   20.508206   20.104388 O.3        1 MOL1        -0.5508
      25    H16     20.825004   21.312011   19.940967 H          1 MOL1         0.3780
@<TRIPOS>BOND
    1     1     2    1
    2     1     3    1
    3     1     4    1
    4     4     5    1
    5     4     6    1
    6     4     7    1
    7     7     8    1
    8     7     9    1
    9     7    10    1
   10    10    11    1
   11    10    12    1
   12    10    13    1
   13    13    14    1
   14    13    15    1
   15    15    16    1
   16    15    17    1
   17    15    18    1
   18    18    19    1
   19    18    20    1
   20     1    21    1
   21    18    21    1
   22    21    22    1
   23    21    23    1
   24    13    24    1
   25    24    25    1
@<TRIPOS>SUBSTRUCTURE
       1 MOL1            1 RESIDUE      1      MOL     
@<SCITEGIC>MOL_PROPERTY
VConf Rank
SciTegic.value.IntegerValue
751

@<SCITEGIC>MOL_PROPERTY
Conf_Id
SciTegic.value.IntegerValue
129

@<SCITEGIC>MOL_PROPERTY
Delta U+W
SciTegic.value.DoubleValue
-1.846

@<SCITEGIC>MOL_PROPERTY
U+W
SciTegic.value.DoubleValue
9.067

@<SCITEGIC>MOL_PROPERTY
Grad RMS
SciTegic.value.DoubleValue
0.000000

@<SCITEGIC>MOL_PROPERTY
U
SciTegic.value.DoubleValue
11.150

@<SCITEGIC>MOL_PROPERTY
W
SciTegic.value.DoubleValue
-2.083

@<SCITEGIC>MOL_PROPERTY
W(PB)
SciTegic.value.DoubleValue
-4.217

@<SCITEGIC>MOL_PROPERTY
W(SA)
SciTegic.value.DoubleValue
2.134

@<SCITEGIC>MOL_PROPERTY
Valence
SciTegic.value.DoubleValue
16.583

@<SCITEGIC>MOL_PROPERTY
Coulomb
SciTegic.value.DoubleValue
-8.361

@<SCITEGIC>MOL_PROPERTY
VdW
SciTegic.value.DoubleValue
2.928

@<SCITEGIC>MOL_PROPERTY
VdW6
SciTegic.value.DoubleValue
-12.539

@<SCITEGIC>MOL_PROPERTY
VdW12
SciTegic.value.DoubleValue
15.467

@<SCITEGIC>MOL_PROPERTY
Bond
SciTegic.value.DoubleValue
0.441

@<SCITEGIC>MOL_PROPERTY
Angle
SciTegic.value.DoubleValue
5.093

@<SCITEGIC>MOL_PROPERTY
Pdih
SciTegic.value.DoubleValue
11.049

@<SCITEGIC>MOL_PROPERTY
Idih
SciTegic.value.DoubleValue
0.000

@<SCITEGIC>MOL_PROPERTY
Tether
SciTegic.value.DoubleValue
0.000

@<TRIPOS>MOLECULE
guest-s17_confgen4.mol2 : confsearch ligand conformer 752
          25          25           1
SMALL
USER_CHARGES
 
@<TRIPOS>ATOM
       1    C1      19.248636   17.737876   23.667080 C.3        1 MOL1        -0.1684
       2    H1      19.518941   17.476714   24.699183 H          1 MOL1         0.0833
       3    H2      18.407094   17.081570   23.406330 H          1 MOL1         0.0833
       4    C2      20.424131   17.378689   22.723994 C.3        1 MOL1        -0.1684
       5    H3      20.588763   16.295700   22.806673 H          1 MOL1         0.0833
       6    H4      20.135310   17.534203   21.678242 H          1 MOL1         0.0833
       7    C3      21.776372   18.072917   23.023591 C.3        1 MOL1        -0.1684
       8    H5      22.528558   17.634061   22.353760 H          1 MOL1         0.0833
       9    H6      22.098511   17.816152   24.041822 H          1 MOL1         0.0833
      10    C4      21.829456   19.613363   22.851892 C.3        1 MOL1        -0.1760
      11    H7      21.425666   20.106687   23.741906 H          1 MOL1         0.0833
      12    H8      22.890626   19.896677   22.835501 H          1 MOL1         0.0833
      13    C5      21.135905   20.155792   21.575439 C.3        1 MOL1         0.1219
      14    H9      21.036159   19.348996   20.837197 H          1 MOL1         0.0790
      15    C6      19.745766   20.792067   21.827562 C.3        1 MOL1        -0.1760
      16    H10     19.836349   21.578968   22.587692 H          1 MOL1         0.0833
      17    H11     19.440616   21.303068   20.904525 H          1 MOL1         0.0833
      18    C7      18.595491   19.828280   22.226312 C.3        1 MOL1        -0.1684
      19    H12     18.453057   19.054118   21.461342 H          1 MOL1         0.0833
      20    H13     17.667032   20.415493   22.215753 H          1 MOL1         0.0833
      21    C8      18.733563   19.200156   23.637319 C.3        1 MOL1        -0.1684
      22    H14     17.742022   19.202190   24.110492 H          1 MOL1         0.0833
      23    H15     19.345342   19.838390   24.284764 H          1 MOL1         0.0833
      24    O1      21.966000   21.164301   21.013286 O.3        1 MOL1        -0.5508
      25    H16     22.036005   21.871986   21.686504 H          1 MOL1         0.3780
@<TRIPOS>BOND
    1     1     2    1
    2     1     3    1
    3     1     4    1
    4     4     5    1
    5     4     6    1
    6     4     7    1
    7     7     8    1
    8     7     9    1
    9     7    10    1
   10    10    11    1
   11    10    12    1
   12    10    13    1
   13    13    14    1
   14    13    15    1
   15    15    16    1
   16    15    17    1
   17    15    18    1
   18    18    19    1
   19    18    20    1
   20     1    21    1
   21    18    21    1
   22    21    22    1
   23    21    23    1
   24    13    24    1
   25    24    25    1
@<TRIPOS>SUBSTRUCTURE
       1 MOL1            1 RESIDUE      1      MOL     
@<SCITEGIC>MOL_PROPERTY
VConf Rank
SciTegic.value.IntegerValue
752

@<SCITEGIC>MOL_PROPERTY
Conf_Id
SciTegic.value.IntegerValue
140

@<SCITEGIC>MOL_PROPERTY
Delta U+W
SciTegic.value.DoubleValue
-1.702

@<SCITEGIC>MOL_PROPERTY
U+W
SciTegic.value.DoubleValue
9.211

@<SCITEGIC>MOL_PROPERTY
Grad RMS
SciTegic.value.DoubleValue
0.000000

@<SCITEGIC>MOL_PROPERTY
U
SciTegic.value.DoubleValue
11.181

@<SCITEGIC>MOL_PROPERTY
W
SciTegic.value.DoubleValue
-1.969

@<SCITEGIC>MOL_PROPERTY
W(PB)
SciTegic.value.DoubleValue
-4.093

@<SCITEGIC>MOL_PROPERTY
W(SA)
SciTegic.value.DoubleValue
2.124

@<SCITEGIC>MOL_PROPERTY
Valence
SciTegic.value.DoubleValue
16.954

@<SCITEGIC>MOL_PROPERTY
Coulomb
SciTegic.value.DoubleValue
-8.661

@<SCITEGIC>MOL_PROPERTY
VdW
SciTegic.value.DoubleValue
2.887

@<SCITEGIC>MOL_PROPERTY
VdW6
SciTegic.value.DoubleValue
-12.561

@<SCITEGIC>MOL_PROPERTY
VdW12
SciTegic.value.DoubleValue
15.448

@<SCITEGIC>MOL_PROPERTY
Bond
SciTegic.value.DoubleValue
0.433

@<SCITEGIC>MOL_PROPERTY
Angle
SciTegic.value.DoubleValue
5.120

@<SCITEGIC>MOL_PROPERTY
Pdih
SciTegic.value.DoubleValue
11.401

@<SCITEGIC>MOL_PROPERTY
Idih
SciTegic.value.DoubleValue
0.000

@<SCITEGIC>MOL_PROPERTY
Tether
SciTegic.value.DoubleValue
0.000

@<TRIPOS>MOLECULE
guest-s17_confgen4.mol2 : confsearch ligand conformer 753
          25          25           1
SMALL
USER_CHARGES
 
@<TRIPOS>ATOM
       1    C1      22.179489   19.299019   23.443751 C.3        1 MOL1        -0.1684
       2    H1      22.958119   18.579277   23.157019 H          1 MOL1         0.0833
       3    H2      22.653350   19.974516   24.169065 H          1 MOL1         0.0833
       4    C2      21.041524   18.542625   24.176793 C.3        1 MOL1        -0.1684
       5    H3      20.832731   17.586746   23.683331 H          1 MOL1         0.0833
       6    H4      21.427302   18.260437   25.166034 H          1 MOL1         0.0833
       7    C3      19.732061   19.347496   24.381824 C.3        1 MOL1        -0.1684
       8    H5      19.928852   20.427323   24.388394 H          1 MOL1         0.0833
       9    H6      19.358062   19.118479   25.389118 H          1 MOL1         0.0833
      10    C4      18.592445   19.001036   23.385706 C.3        1 MOL1        -0.1760
      11    H7      18.388485   17.923328   23.432203 H          1 MOL1         0.0833
      12    H8      17.679557   19.492979   23.747457 H          1 MOL1         0.0833
      13    C5      18.801050   19.423436   21.909578 C.3        1 MOL1         0.1219
      14    H9      19.034847   20.495633   21.869508 H          1 MOL1         0.0790
      15    C6      19.900048   18.620769   21.166275 C.3        1 MOL1        -0.1760
      16    H10     20.064454   17.656869   21.658623 H          1 MOL1         0.0833
      17    H11     19.541191   18.360832   20.161153 H          1 MOL1         0.0833
      18    C7      21.248124   19.365898   20.985321 C.3        1 MOL1        -0.1684
      19    H12     21.127856   20.082746   20.161479 H          1 MOL1         0.0833
      20    H13     22.009226   18.649450   20.647794 H          1 MOL1         0.0833
      21    C8      21.788210   20.148375   22.208557 C.3        1 MOL1        -0.1684
      22    H14     21.089006   20.941515   22.497077 H          1 MOL1         0.0833
      23    H15     22.690888   20.681969   21.881056 H          1 MOL1         0.0833
      24    O1      17.567012   19.218208   21.233419 O.3        1 MOL1        -0.5508
      25    H16     17.378854   18.258655   21.286312 H          1 MOL1         0.3780
@<TRIPOS>BOND
    1     1     2    1
    2     1     3    1
    3     1     4    1
    4     4     5    1
    5     4     6    1
    6     4     7    1
    7     7     8    1
    8     7     9    1
    9     7    10    1
   10    10    11    1
   11    10    12    1
   12    10    13    1
   13    13    14    1
   14    13    15    1
   15    15    16    1
   16    15    17    1
   17    15    18    1
   18    18    19    1
   19    18    20    1
   20     1    21    1
   21    18    21    1
   22    21    22    1
   23    21    23    1
   24    13    24    1
   25    24    25    1
@<TRIPOS>SUBSTRUCTURE
       1 MOL1            1 RESIDUE      1      MOL     
@<SCITEGIC>MOL_PROPERTY
VConf Rank
SciTegic.value.IntegerValue
753

@<SCITEGIC>MOL_PROPERTY
Conf_Id
SciTegic.value.IntegerValue
68

@<SCITEGIC>MOL_PROPERTY
Delta U+W
SciTegic.value.DoubleValue
-1.765

@<SCITEGIC>MOL_PROPERTY
U+W
SciTegic.value.DoubleValue
9.148

@<SCITEGIC>MOL_PROPERTY
Grad RMS
SciTegic.value.DoubleValue
0.000000

@<SCITEGIC>MOL_PROPERTY
U
SciTegic.value.DoubleValue
11.181

@<SCITEGIC>MOL_PROPERTY
W
SciTegic.value.DoubleValue
-2.032

@<SCITEGIC>MOL_PROPERTY
W(PB)
SciTegic.value.DoubleValue
-4.147

@<SCITEGIC>MOL_PROPERTY
W(SA)
SciTegic.value.DoubleValue
2.114

@<SCITEGIC>MOL_PROPERTY
Valence
SciTegic.value.DoubleValue
16.955

@<SCITEGIC>MOL_PROPERTY
Coulomb
SciTegic.value.DoubleValue
-8.661

@<SCITEGIC>MOL_PROPERTY
VdW
SciTegic.value.DoubleValue
2.887

@<SCITEGIC>MOL_PROPERTY
VdW6
SciTegic.value.DoubleValue
-12.561

@<SCITEGIC>MOL_PROPERTY
VdW12
SciTegic.value.DoubleValue
15.448

@<SCITEGIC>MOL_PROPERTY
Bond
SciTegic.value.DoubleValue
0.433

@<SCITEGIC>MOL_PROPERTY
Angle
SciTegic.value.DoubleValue
5.121

@<SCITEGIC>MOL_PROPERTY
Pdih
SciTegic.value.DoubleValue
11.402

@<SCITEGIC>MOL_PROPERTY
Idih
SciTegic.value.DoubleValue
0.000

@<SCITEGIC>MOL_PROPERTY
Tether
SciTegic.value.DoubleValue
0.000

@<TRIPOS>MOLECULE
guest-s17_confgen4.mol2 : confsearch ligand conformer 754
          25          25           1
SMALL
USER_CHARGES
 
@<TRIPOS>ATOM
       1    C1      21.895475   20.056246   22.642614 C.3        1 MOL1        -0.1684
       2    H1      22.882240   20.528199   22.745721 H          1 MOL1         0.0833
       3    H2      21.464316   20.521561   21.749040 H          1 MOL1         0.0833
       4    C2      21.059110   20.410668   23.899667 C.3        1 MOL1        -0.1684
       5    H3      21.128122   19.619229   24.656948 H          1 MOL1         0.0833
       6    H4      21.520543   21.292342   24.365231 H          1 MOL1         0.0833
       7    C3      19.577683   20.772709   23.615231 C.3        1 MOL1        -0.1684
       8    H5      19.536863   21.598200   22.891371 H          1 MOL1         0.0833
       9    H6      19.148187   21.173794   24.543400 H          1 MOL1         0.0833
      10    C4      18.659454   19.619482   23.129971 C.3        1 MOL1        -0.1760
      11    H7      18.663803   18.797240   23.855545 H          1 MOL1         0.0833
      12    H8      17.632004   20.007871   23.140573 H          1 MOL1         0.0833
      13    C5      18.977510   19.101400   21.703326 C.3        1 MOL1         0.1219
      14    H9      19.555166   19.863158   21.167058 H          1 MOL1         0.0790
      15    C6      19.744312   17.756801   21.657355 C.3        1 MOL1        -0.1760
      16    H10     19.035432   16.944177   21.864012 H          1 MOL1         0.0833
      17    H11     20.096878   17.594050   20.630567 H          1 MOL1         0.0833
      18    C7      20.937894   17.588584   22.632613 C.3        1 MOL1        -0.1684
      19    H12     21.310763   16.561570   22.518885 H          1 MOL1         0.0833
      20    H13     20.594582   17.644402   23.672002 H          1 MOL1         0.0833
      21    C8      22.138385   18.542285   22.410325 C.3        1 MOL1        -0.1684
      22    H14     22.535636   18.396406   21.396669 H          1 MOL1         0.0833
      23    H15     22.939914   18.224001   23.090947 H          1 MOL1         0.0833
      24    O1      17.752521   18.918919   21.004193 O.3        1 MOL1        -0.5508
      25    H16     17.243805   18.249838   21.506613 H          1 MOL1         0.3780
@<TRIPOS>BOND
    1     1     2    1
    2     1     3    1
    3     1     4    1
    4     4     5    1
    5     4     6    1
    6     4     7    1
    7     7     8    1
    8     7     9    1
    9     7    10    1
   10    10    11    1
   11    10    12    1
   12    10    13    1
   13    13    14    1
   14    13    15    1
   15    15    16    1
   16    15    17    1
   17    15    18    1
   18    18    19    1
   19    18    20    1
   20     1    21    1
   21    18    21    1
   22    21    22    1
   23    21    23    1
   24    13    24    1
   25    24    25    1
@<TRIPOS>SUBSTRUCTURE
       1 MOL1            1 RESIDUE      1      MOL     
@<SCITEGIC>MOL_PROPERTY
VConf Rank
SciTegic.value.IntegerValue
754

@<SCITEGIC>MOL_PROPERTY
Conf_Id
SciTegic.value.IntegerValue
165

@<SCITEGIC>MOL_PROPERTY
Delta U+W
SciTegic.value.DoubleValue
-1.999

@<SCITEGIC>MOL_PROPERTY
U+W
SciTegic.value.DoubleValue
8.915

@<SCITEGIC>MOL_PROPERTY
Grad RMS
SciTegic.value.DoubleValue
0.000000

@<SCITEGIC>MOL_PROPERTY
U
SciTegic.value.DoubleValue
10.935

@<SCITEGIC>MOL_PROPERTY
W
SciTegic.value.DoubleValue
-2.020

@<SCITEGIC>MOL_PROPERTY
W(PB)
SciTegic.value.DoubleValue
-4.135

@<SCITEGIC>MOL_PROPERTY
W(SA)
SciTegic.value.DoubleValue
2.115

@<SCITEGIC>MOL_PROPERTY
Valence
SciTegic.value.DoubleValue
16.757

@<SCITEGIC>MOL_PROPERTY
Coulomb
SciTegic.value.DoubleValue
-8.731

@<SCITEGIC>MOL_PROPERTY
VdW
SciTegic.value.DoubleValue
2.908

@<SCITEGIC>MOL_PROPERTY
VdW6
SciTegic.value.DoubleValue
-12.597

@<SCITEGIC>MOL_PROPERTY
VdW12
SciTegic.value.DoubleValue
15.506

@<SCITEGIC>MOL_PROPERTY
Bond
SciTegic.value.DoubleValue
0.434

@<SCITEGIC>MOL_PROPERTY
Angle
SciTegic.value.DoubleValue
5.069

@<SCITEGIC>MOL_PROPERTY
Pdih
SciTegic.value.DoubleValue
11.254

@<SCITEGIC>MOL_PROPERTY
Idih
SciTegic.value.DoubleValue
0.000

@<SCITEGIC>MOL_PROPERTY
Tether
SciTegic.value.DoubleValue
0.000

@<TRIPOS>MOLECULE
guest-s17_confgen4.mol2 : confsearch ligand conformer 755
          25          25           1
SMALL
USER_CHARGES
 
@<TRIPOS>ATOM
       1    C1      20.286580   19.272445   24.491304 C.3        1 MOL1        -0.1684
       2    H1      20.294254   19.241594   25.589518 H          1 MOL1         0.0833
       3    H2      20.187146   20.336901   24.250789 H          1 MOL1         0.0833
       4    C2      19.035265   18.484232   24.023989 C.3        1 MOL1        -0.1684
       5    H3      18.955539   17.583571   24.648056 H          1 MOL1         0.0833
       6    H4      18.137300   19.077209   24.244455 H          1 MOL1         0.0833
       7    C3      18.996647   18.025441   22.544679 C.3        1 MOL1        -0.1684
       8    H5      18.098349   17.406134   22.417326 H          1 MOL1         0.0833
       9    H6      19.831653   17.347361   22.334289 H          1 MOL1         0.0833
      10    C4      18.933810   19.153473   21.482781 C.3        1 MOL1        -0.1760
      11    H7      18.801979   18.675319   20.502728 H          1 MOL1         0.0833
      12    H8      18.028433   19.750249   21.652693 H          1 MOL1         0.0833
      13    C5      20.148498   20.109787   21.394707 C.3        1 MOL1         0.1219
      14    H9      20.095448   20.838156   22.212340 H          1 MOL1         0.0790
      15    C6      21.529478   19.405979   21.436307 C.3        1 MOL1        -0.1760
      16    H10     21.443266   18.358362   21.124565 H          1 MOL1         0.0833
      17    H11     22.180320   19.874629   20.685771 H          1 MOL1         0.0833
      18    C7      22.265048   19.508879   22.799150 C.3        1 MOL1        -0.1684
      19    H12     22.368281   20.566855   23.076665 H          1 MOL1         0.0833
      20    H13     23.290050   19.141343   22.654027 H          1 MOL1         0.0833
      21    C8      21.646200   18.723713   23.985493 C.3        1 MOL1        -0.1684
      22    H14     22.358992   18.788595   24.818997 H          1 MOL1         0.0833
      23    H15     21.578277   17.653686   23.750892 H          1 MOL1         0.0833
      24    O1      20.041337   20.822547   20.167514 O.3        1 MOL1        -0.5508
      25    H16     19.181389   21.292131   20.187986 H          1 MOL1         0.3780
@<TRIPOS>BOND
    1     1     2    1
    2     1     3    1
    3     1     4    1
    4     4     5    1
    5     4     6    1
    6     4     7    1
    7     7     8    1
    8     7     9    1
    9     7    10    1
   10    10    11    1
   11    10    12    1
   12    10    13    1
   13    13    14    1
   14    13    15    1
   15    15    16    1
   16    15    17    1
   17    15    18    1
   18    18    19    1
   19    18    20    1
   20     1    21    1
   21    18    21    1
   22    21    22    1
   23    21    23    1
   24    13    24    1
   25    24    25    1
@<TRIPOS>SUBSTRUCTURE
       1 MOL1            1 RESIDUE      1      MOL     
@<SCITEGIC>MOL_PROPERTY
VConf Rank
SciTegic.value.IntegerValue
755

@<SCITEGIC>MOL_PROPERTY
Conf_Id
SciTegic.value.IntegerValue
133

@<SCITEGIC>MOL_PROPERTY
Delta U+W
SciTegic.value.DoubleValue
-2.139

@<SCITEGIC>MOL_PROPERTY
U+W
SciTegic.value.DoubleValue
8.774

@<SCITEGIC>MOL_PROPERTY
Grad RMS
SciTegic.value.DoubleValue
0.000000

@<SCITEGIC>MOL_PROPERTY
U
SciTegic.value.DoubleValue
10.905

@<SCITEGIC>MOL_PROPERTY
W
SciTegic.value.DoubleValue
-2.131

@<SCITEGIC>MOL_PROPERTY
W(PB)
SciTegic.value.DoubleValue
-4.281

@<SCITEGIC>MOL_PROPERTY
W(SA)
SciTegic.value.DoubleValue
2.150

@<SCITEGIC>MOL_PROPERTY
Valence
SciTegic.value.DoubleValue
16.378

@<SCITEGIC>MOL_PROPERTY
Coulomb
SciTegic.value.DoubleValue
-8.448

@<SCITEGIC>MOL_PROPERTY
VdW
SciTegic.value.DoubleValue
2.976

@<SCITEGIC>MOL_PROPERTY
VdW6
SciTegic.value.DoubleValue
-12.570

@<SCITEGIC>MOL_PROPERTY
VdW12
SciTegic.value.DoubleValue
15.545

@<SCITEGIC>MOL_PROPERTY
Bond
SciTegic.value.DoubleValue
0.439

@<SCITEGIC>MOL_PROPERTY
Angle
SciTegic.value.DoubleValue
5.049

@<SCITEGIC>MOL_PROPERTY
Pdih
SciTegic.value.DoubleValue
10.889

@<SCITEGIC>MOL_PROPERTY
Idih
SciTegic.value.DoubleValue
0.000

@<SCITEGIC>MOL_PROPERTY
Tether
SciTegic.value.DoubleValue
0.000

@<TRIPOS>MOLECULE
guest-s17_confgen4.mol2 : confsearch ligand conformer 756
          25          25           1
SMALL
USER_CHARGES
 
@<TRIPOS>ATOM
       1    C1      21.865540   20.097908   22.288892 C.3        1 MOL1        -0.1684
       2    H1      22.831140   20.544355   22.014322 H          1 MOL1         0.0833
       3    H2      21.478617   20.752921   23.077594 H          1 MOL1         0.0833
       4    C2      22.134467   18.675133   22.844690 C.3        1 MOL1        -0.1684
       5    H3      22.028404   17.916751   22.058423 H          1 MOL1         0.0833
       6    H4      23.190978   18.631490   23.142833 H          1 MOL1         0.0833
       7    C3      21.296188   18.294126   24.093287 C.3        1 MOL1        -0.1684
       8    H5      21.457880   19.041058   24.882550 H          1 MOL1         0.0833
       9    H6      21.699378   17.353093   24.491619 H          1 MOL1         0.0833
      10    C4      19.771691   18.099860   23.876120 C.3        1 MOL1        -0.1760
      11    H7      19.586920   17.334401   23.113197 H          1 MOL1         0.0833
      12    H8      19.367468   17.678972   24.806705 H          1 MOL1         0.0833
      13    C5      18.996094   19.402392   23.550480 C.3        1 MOL1         0.1219
      14    H9      19.595401   20.262889   23.870217 H          1 MOL1         0.0790
      15    C6      18.615135   19.570974   22.059105 C.3        1 MOL1        -0.1760
      16    H10     17.756135   18.919513   21.848787 H          1 MOL1         0.0833
      17    H11     18.262085   20.598084   21.900619 H          1 MOL1         0.0833
      18    C7      19.709244   19.249799   21.008488 C.3        1 MOL1        -0.1684
      19    H12     19.248856   19.349379   20.016104 H          1 MOL1         0.0833
      20    H13     20.003600   18.195934   21.071859 H          1 MOL1         0.0833
      21    C8      20.962119   20.160950   21.029800 C.3        1 MOL1        -0.1684
      22    H14     20.657160   21.202684   20.861396 H          1 MOL1         0.0833
      23    H15     21.578953   19.889385   20.162174 H          1 MOL1         0.0833
      24    O1      17.787587   19.408654   24.302134 O.3        1 MOL1        -0.5508
      25    H16     17.341331   20.260209   24.112010 H          1 MOL1         0.3780
@<TRIPOS>BOND
    1     1     2    1
    2     1     3    1
    3     1     4    1
    4     4     5    1
    5     4     6    1
    6     4     7    1
    7     7     8    1
    8     7     9    1
    9     7    10    1
   10    10    11    1
   11    10    12    1
   12    10    13    1
   13    13    14    1
   14    13    15    1
   15    15    16    1
   16    15    17    1
   17    15    18    1
   18    18    19    1
   19    18    20    1
   20     1    21    1
   21    18    21    1
   22    21    22    1
   23    21    23    1
   24    13    24    1
   25    24    25    1
@<TRIPOS>SUBSTRUCTURE
       1 MOL1            1 RESIDUE      1      MOL     
@<SCITEGIC>MOL_PROPERTY
VConf Rank
SciTegic.value.IntegerValue
756

@<SCITEGIC>MOL_PROPERTY
Conf_Id
SciTegic.value.IntegerValue
95

@<SCITEGIC>MOL_PROPERTY
Delta U+W
SciTegic.value.DoubleValue
-2.190

@<SCITEGIC>MOL_PROPERTY
U+W
SciTegic.value.DoubleValue
8.723

@<SCITEGIC>MOL_PROPERTY
Grad RMS
SciTegic.value.DoubleValue
0.000000

@<SCITEGIC>MOL_PROPERTY
U
SciTegic.value.DoubleValue
10.905

@<SCITEGIC>MOL_PROPERTY
W
SciTegic.value.DoubleValue
-2.182

@<SCITEGIC>MOL_PROPERTY
W(PB)
SciTegic.value.DoubleValue
-4.296

@<SCITEGIC>MOL_PROPERTY
W(SA)
SciTegic.value.DoubleValue
2.114

@<SCITEGIC>MOL_PROPERTY
Valence
SciTegic.value.DoubleValue
16.377

@<SCITEGIC>MOL_PROPERTY
Coulomb
SciTegic.value.DoubleValue
-8.448

@<SCITEGIC>MOL_PROPERTY
VdW
SciTegic.value.DoubleValue
2.976

@<SCITEGIC>MOL_PROPERTY
VdW6
SciTegic.value.DoubleValue
-12.570

@<SCITEGIC>MOL_PROPERTY
VdW12
SciTegic.value.DoubleValue
15.546

@<SCITEGIC>MOL_PROPERTY
Bond
SciTegic.value.DoubleValue
0.439

@<SCITEGIC>MOL_PROPERTY
Angle
SciTegic.value.DoubleValue
5.049

@<SCITEGIC>MOL_PROPERTY
Pdih
SciTegic.value.DoubleValue
10.889

@<SCITEGIC>MOL_PROPERTY
Idih
SciTegic.value.DoubleValue
0.000

@<SCITEGIC>MOL_PROPERTY
Tether
SciTegic.value.DoubleValue
0.000

@<TRIPOS>MOLECULE
guest-s17_confgen4.mol2 : confsearch ligand conformer 757
          25          25           1
SMALL
USER_CHARGES
 
@<TRIPOS>ATOM
       1    C1      21.675494   20.362414   22.759532 C.3        1 MOL1        -0.1684
       2    H1      22.579084   20.982519   22.836314 H          1 MOL1         0.0833
       3    H2      20.863652   21.072471   22.946521 H          1 MOL1         0.0833
       4    C2      21.756555   19.297565   23.892557 C.3        1 MOL1        -0.1684
       5    H3      22.814791   19.028963   24.014751 H          1 MOL1         0.0833
       6    H4      21.462565   19.764584   24.842259 H          1 MOL1         0.0833
       7    C3      20.973117   17.971188   23.709680 C.3        1 MOL1        -0.1684
       8    H5      21.244622   17.307309   24.541767 H          1 MOL1         0.0833
       9    H6      21.353517   17.445295   22.828340 H          1 MOL1         0.0833
      10    C4      19.417957   18.054723   23.677748 C.3        1 MOL1        -0.1760
      11    H7      19.024154   17.152701   23.191283 H          1 MOL1         0.0833
      12    H8      19.072328   18.005611   24.718609 H          1 MOL1         0.0833
      13    C5      18.763320   19.303663   23.034870 C.3        1 MOL1         0.1219
      14    H9      19.132330   20.189427   23.562195 H          1 MOL1         0.0790
      15    C6      18.957985   19.491656   21.502762 C.3        1 MOL1        -0.1760
      16    H10     18.171952   18.921286   20.989787 H          1 MOL1         0.0833
      17    H11     18.766306   20.544044   21.257756 H          1 MOL1         0.0833
      18    C7      20.310179   19.065015   20.869859 C.3        1 MOL1        -0.1684
      19    H12     20.215187   19.172533   19.780763 H          1 MOL1         0.0833
      20    H13     20.450911   17.988505   21.009120 H          1 MOL1         0.0833
      21    C8      21.584524   19.850131   21.297811 C.3        1 MOL1        -0.1684
      22    H14     21.663048   20.730090   20.644837 H          1 MOL1         0.0833
      23    H15     22.469710   19.239817   21.073296 H          1 MOL1         0.0833
      24    O1      17.363446   19.221468   23.276138 O.3        1 MOL1        -0.5508
      25    H16     17.246347   19.168971   24.247524 H          1 MOL1         0.3780
@<TRIPOS>BOND
    1     1     2    1
    2     1     3    1
    3     1     4    1
    4     4     5    1
    5     4     6    1
    6     4     7    1
    7     7     8    1
    8     7     9    1
    9     7    10    1
   10    10    11    1
   11    10    12    1
   12    10    13    1
   13    13    14    1
   14    13    15    1
   15    15    16    1
   16    15    17    1
   17    15    18    1
   18    18    19    1
   19    18    20    1
   20     1    21    1
   21    18    21    1
   22    21    22    1
   23    21    23    1
   24    13    24    1
   25    24    25    1
@<TRIPOS>SUBSTRUCTURE
       1 MOL1            1 RESIDUE      1      MOL     
@<SCITEGIC>MOL_PROPERTY
VConf Rank
SciTegic.value.IntegerValue
757

@<SCITEGIC>MOL_PROPERTY
Conf_Id
SciTegic.value.IntegerValue
161

@<SCITEGIC>MOL_PROPERTY
Delta U+W
SciTegic.value.DoubleValue
2.120

@<SCITEGIC>MOL_PROPERTY
U+W
SciTegic.value.DoubleValue
13.033

@<SCITEGIC>MOL_PROPERTY
Grad RMS
SciTegic.value.DoubleValue
0.000000

@<SCITEGIC>MOL_PROPERTY
U
SciTegic.value.DoubleValue
15.076

@<SCITEGIC>MOL_PROPERTY
W
SciTegic.value.DoubleValue
-2.043

@<SCITEGIC>MOL_PROPERTY
W(PB)
SciTegic.value.DoubleValue
-4.186

@<SCITEGIC>MOL_PROPERTY
W(SA)
SciTegic.value.DoubleValue
2.143

@<SCITEGIC>MOL_PROPERTY
Valence
SciTegic.value.DoubleValue
18.884

@<SCITEGIC>MOL_PROPERTY
Coulomb
SciTegic.value.DoubleValue
-8.074

@<SCITEGIC>MOL_PROPERTY
VdW
SciTegic.value.DoubleValue
4.266

@<SCITEGIC>MOL_PROPERTY
VdW6
SciTegic.value.DoubleValue
-13.486

@<SCITEGIC>MOL_PROPERTY
VdW12
SciTegic.value.DoubleValue
17.752

@<SCITEGIC>MOL_PROPERTY
Bond
SciTegic.value.DoubleValue
0.713

@<SCITEGIC>MOL_PROPERTY
Angle
SciTegic.value.DoubleValue
8.955

@<SCITEGIC>MOL_PROPERTY
Pdih
SciTegic.value.DoubleValue
9.215

@<SCITEGIC>MOL_PROPERTY
Idih
SciTegic.value.DoubleValue
0.000

@<SCITEGIC>MOL_PROPERTY
Tether
SciTegic.value.DoubleValue
0.000

@<TRIPOS>MOLECULE
guest-s17_confgen4.mol2 : confsearch ligand conformer 758
          25          25           1
SMALL
USER_CHARGES
 
@<TRIPOS>ATOM
       1    C1      18.584112   19.425918   23.567555 C.3        1 MOL1        -0.1684
       2    H1      17.534077   19.601095   23.839082 H          1 MOL1         0.0833
       3    H2      19.122445   19.418144   24.523783 H          1 MOL1         0.0833
       4    C2      19.060173   20.619707   22.702737 C.3        1 MOL1        -0.1684
       5    H3      18.821888   20.453941   21.643526 H          1 MOL1         0.0833
       6    H4      18.459465   21.489408   23.002640 H          1 MOL1         0.0833
       7    C3      20.551026   21.017642   22.888043 C.3        1 MOL1        -0.1684
       8    H5      20.862278   20.911682   23.935984 H          1 MOL1         0.0833
       9    H6      20.621550   22.092556   22.671738 H          1 MOL1         0.0833
      10    C4      21.550057   20.303187   21.941490 C.3        1 MOL1        -0.1760
      11    H7      21.077501   20.124359   20.968002 H          1 MOL1         0.0833
      12    H8      22.370523   21.002578   21.733349 H          1 MOL1         0.0833
      13    C5      22.203591   19.007999   22.486661 C.3        1 MOL1         0.1219
      14    H9      22.901384   19.293215   23.286979 H          1 MOL1         0.0790
      15    C6      21.243184   17.944175   23.066989 C.3        1 MOL1        -0.1760
      16    H10     21.803880   17.008909   23.197303 H          1 MOL1         0.0833
      17    H11     20.960812   18.236706   24.084070 H          1 MOL1         0.0833
      18    C7      19.985653   17.657785   22.203377 C.3        1 MOL1        -0.1684
      19    H12     19.959091   16.586366   21.962368 H          1 MOL1         0.0833
      20    H13     20.046605   18.163242   21.232863 H          1 MOL1         0.0833
      21    C8      18.650680   18.030944   22.891332 C.3        1 MOL1        -0.1684
      22    H14     18.421004   17.271439   23.651076 H          1 MOL1         0.0833
      23    H15     17.847528   17.959404   22.145269 H          1 MOL1         0.0833
      24    O1      22.940194   18.410118   21.429154 O.3        1 MOL1        -0.5508
      25    H16     22.274241   18.049540   20.809236 H          1 MOL1         0.3780
@<TRIPOS>BOND
    1     1     2    1
    2     1     3    1
    3     1     4    1
    4     4     5    1
    5     4     6    1
    6     4     7    1
    7     7     8    1
    8     7     9    1
    9     7    10    1
   10    10    11    1
   11    10    12    1
   12    10    13    1
   13    13    14    1
   14    13    15    1
   15    15    16    1
   16    15    17    1
   17    15    18    1
   18    18    19    1
   19    18    20    1
   20     1    21    1
   21    18    21    1
   22    21    22    1
   23    21    23    1
   24    13    24    1
   25    24    25    1
@<TRIPOS>SUBSTRUCTURE
       1 MOL1            1 RESIDUE      1      MOL     
@<SCITEGIC>MOL_PROPERTY
VConf Rank
SciTegic.value.IntegerValue
758

@<SCITEGIC>MOL_PROPERTY
Conf_Id
SciTegic.value.IntegerValue
164

@<SCITEGIC>MOL_PROPERTY
Delta U+W
SciTegic.value.DoubleValue
0.008

@<SCITEGIC>MOL_PROPERTY
U+W
SciTegic.value.DoubleValue
10.922

@<SCITEGIC>MOL_PROPERTY
Grad RMS
SciTegic.value.DoubleValue
0.000000

@<SCITEGIC>MOL_PROPERTY
U
SciTegic.value.DoubleValue
12.433

@<SCITEGIC>MOL_PROPERTY
W
SciTegic.value.DoubleValue
-1.511

@<SCITEGIC>MOL_PROPERTY
W(PB)
SciTegic.value.DoubleValue
-3.669

@<SCITEGIC>MOL_PROPERTY
W(SA)
SciTegic.value.DoubleValue
2.157

@<SCITEGIC>MOL_PROPERTY
Valence
SciTegic.value.DoubleValue
19.007

@<SCITEGIC>MOL_PROPERTY
Coulomb
SciTegic.value.DoubleValue
-9.373

@<SCITEGIC>MOL_PROPERTY
VdW
SciTegic.value.DoubleValue
2.799

@<SCITEGIC>MOL_PROPERTY
VdW6
SciTegic.value.DoubleValue
-12.597

@<SCITEGIC>MOL_PROPERTY
VdW12
SciTegic.value.DoubleValue
15.396

@<SCITEGIC>MOL_PROPERTY
Bond
SciTegic.value.DoubleValue
0.425

@<SCITEGIC>MOL_PROPERTY
Angle
SciTegic.value.DoubleValue
4.784

@<SCITEGIC>MOL_PROPERTY
Pdih
SciTegic.value.DoubleValue
13.799

@<SCITEGIC>MOL_PROPERTY
Idih
SciTegic.value.DoubleValue
0.000

@<SCITEGIC>MOL_PROPERTY
Tether
SciTegic.value.DoubleValue
0.000

@<TRIPOS>MOLECULE
guest-s17_confgen4.mol2 : confsearch ligand conformer 759
          25          25           1
SMALL
USER_CHARGES
 
@<TRIPOS>ATOM
       1    C1      19.034859   19.981585   23.677970 C.3        1 MOL1        -0.1684
       2    H1      19.268629   20.729703   22.912077 H          1 MOL1         0.0833
       3    H2      18.263889   20.455355   24.300722 H          1 MOL1         0.0833
       4    C2      20.266944   19.731127   24.582934 C.3        1 MOL1        -0.1684
       5    H3      20.527399   20.687843   25.055967 H          1 MOL1         0.0833
       6    H4      19.982743   19.061017   25.405545 H          1 MOL1         0.0833
       7    C3      21.543838   19.176828   23.900985 C.3        1 MOL1        -0.1684
       8    H5      21.482697   18.087578   23.796769 H          1 MOL1         0.0833
       9    H6      22.378929   19.339718   24.596034 H          1 MOL1         0.0833
      10    C4      21.908351   19.833995   22.543030 C.3        1 MOL1        -0.1760
      11    H7      21.487462   20.844106   22.470175 H          1 MOL1         0.0833
      12    H8      22.997866   19.971873   22.529463 H          1 MOL1         0.0833
      13    C5      21.543271   18.993937   21.293433 C.3        1 MOL1         0.1219
      14    H9      21.980626   17.992573   21.414229 H          1 MOL1         0.0790
      15    C6      20.033537   18.827525   20.987673 C.3        1 MOL1        -0.1760
      16    H10     19.550989   19.804533   20.863649 H          1 MOL1         0.0833
      17    H11     19.957046   18.339433   20.006779 H          1 MOL1         0.0833
      18    C7      19.254872   17.948043   22.002056 C.3        1 MOL1        -0.1684
      19    H12     19.934796   17.256607   22.512627 H          1 MOL1         0.0833
      20    H13     18.572915   17.296563   21.438573 H          1 MOL1         0.0833
      21    C8      18.396506   18.727021   23.031215 C.3        1 MOL1        -0.1684
      22    H14     18.073340   18.035996   23.821503 H          1 MOL1         0.0833
      23    H15     17.476569   19.050071   22.524997 H          1 MOL1         0.0833
      24    O1      22.145207   19.615006   20.165983 O.3        1 MOL1        -0.5508
      25    H16     21.735361   20.500771   20.087033 H          1 MOL1         0.3780
@<TRIPOS>BOND
    1     1     2    1
    2     1     3    1
    3     1     4    1
    4     4     5    1
    5     4     6    1
    6     4     7    1
    7     7     8    1
    8     7     9    1
    9     7    10    1
   10    10    11    1
   11    10    12    1
   12    10    13    1
   13    13    14    1
   14    13    15    1
   15    15    16    1
   16    15    17    1
   17    15    18    1
   18    18    19    1
   19    18    20    1
   20     1    21    1
   21    18    21    1
   22    21    22    1
   23    21    23    1
   24    13    24    1
   25    24    25    1
@<TRIPOS>SUBSTRUCTURE
       1 MOL1            1 RESIDUE      1      MOL     
@<SCITEGIC>MOL_PROPERTY
VConf Rank
SciTegic.value.IntegerValue
759

@<SCITEGIC>MOL_PROPERTY
Conf_Id
SciTegic.value.IntegerValue
15

@<SCITEGIC>MOL_PROPERTY
Delta U+W
SciTegic.value.DoubleValue
-1.271

@<SCITEGIC>MOL_PROPERTY
U+W
SciTegic.value.DoubleValue
9.643

@<SCITEGIC>MOL_PROPERTY
Grad RMS
SciTegic.value.DoubleValue
0.000000

@<SCITEGIC>MOL_PROPERTY
U
SciTegic.value.DoubleValue
11.413

@<SCITEGIC>MOL_PROPERTY
W
SciTegic.value.DoubleValue
-1.770

@<SCITEGIC>MOL_PROPERTY
W(PB)
SciTegic.value.DoubleValue
-3.908

@<SCITEGIC>MOL_PROPERTY
W(SA)
SciTegic.value.DoubleValue
2.138

@<SCITEGIC>MOL_PROPERTY
Valence
SciTegic.value.DoubleValue
17.496

@<SCITEGIC>MOL_PROPERTY
Coulomb
SciTegic.value.DoubleValue
-8.736

@<SCITEGIC>MOL_PROPERTY
VdW
SciTegic.value.DoubleValue
2.653

@<SCITEGIC>MOL_PROPERTY
VdW6
SciTegic.value.DoubleValue
-12.485

@<SCITEGIC>MOL_PROPERTY
VdW12
SciTegic.value.DoubleValue
15.138

@<SCITEGIC>MOL_PROPERTY
Bond
SciTegic.value.DoubleValue
0.414

@<SCITEGIC>MOL_PROPERTY
Angle
SciTegic.value.DoubleValue
5.295

@<SCITEGIC>MOL_PROPERTY
Pdih
SciTegic.value.DoubleValue
11.787

@<SCITEGIC>MOL_PROPERTY
Idih
SciTegic.value.DoubleValue
0.000

@<SCITEGIC>MOL_PROPERTY
Tether
SciTegic.value.DoubleValue
0.000

@<TRIPOS>MOLECULE
guest-s17_confgen4.mol2 : confsearch ligand conformer 760
          25          25           1
SMALL
USER_CHARGES
 
@<TRIPOS>ATOM
       1    C1      20.670254   17.364641   22.308125 C.3        1 MOL1        -0.1684
       2    H1      20.761894   16.269979   22.290839 H          1 MOL1         0.0833
       3    H2      21.543658   17.727171   21.751436 H          1 MOL1         0.0833
       4    C2      19.358474   17.721267   21.560544 C.3        1 MOL1        -0.1684
       5    H3      19.484972   17.452315   20.502959 H          1 MOL1         0.0833
       6    H4      18.549513   17.080315   21.936759 H          1 MOL1         0.0833
       7    C3      18.889744   19.193857   21.644834 C.3        1 MOL1        -0.1684
       8    H5      18.406560   19.370135   22.612940 H          1 MOL1         0.0833
       9    H6      18.093069   19.340942   20.902904 H          1 MOL1         0.0833
      10    C4      20.011755   20.232299   21.383714 C.3        1 MOL1        -0.1760
      11    H7      20.922797   19.741538   21.023790 H          1 MOL1         0.0833
      12    H8      19.696737   20.883091   20.557621 H          1 MOL1         0.0833
      13    C5      20.339915   21.139134   22.592114 C.3        1 MOL1         0.1219
      14    H9      19.516996   21.860312   22.699518 H          1 MOL1         0.0790
      15    C6      20.509617   20.433454   23.962405 C.3        1 MOL1        -0.1760
      16    H10     20.901807   21.183274   24.662612 H          1 MOL1         0.0833
      17    H11     19.527694   20.165641   24.370591 H          1 MOL1         0.0833
      18    C7      21.449388   19.198969   24.006199 C.3        1 MOL1        -0.1684
      19    H12     21.888234   19.171119   25.013066 H          1 MOL1         0.0833
      20    H13     22.300332   19.323620   23.324167 H          1 MOL1         0.0833
      21    C8      20.753213   17.827997   23.783588 C.3        1 MOL1        -0.1684
      22    H14     19.762394   17.803855   24.256750 H          1 MOL1         0.0833
      23    H15     21.349715   17.077453   24.320285 H          1 MOL1         0.0833
      24    O1      21.534493   21.850914   22.300980 O.3        1 MOL1        -0.5508
      25    H16     22.251415   21.185254   22.308892 H          1 MOL1         0.3780
@<TRIPOS>BOND
    1     1     2    1
    2     1     3    1
    3     1     4    1
    4     4     5    1
    5     4     6    1
    6     4     7    1
    7     7     8    1
    8     7     9    1
    9     7    10    1
   10    10    11    1
   11    10    12    1
   12    10    13    1
   13    13    14    1
   14    13    15    1
   15    15    16    1
   16    15    17    1
   17    15    18    1
   18    18    19    1
   19    18    20    1
   20     1    21    1
   21    18    21    1
   22    21    22    1
   23    21    23    1
   24    13    24    1
   25    24    25    1
@<TRIPOS>SUBSTRUCTURE
       1 MOL1            1 RESIDUE      1      MOL     
@<SCITEGIC>MOL_PROPERTY
VConf Rank
SciTegic.value.IntegerValue
760

@<SCITEGIC>MOL_PROPERTY
Conf_Id
SciTegic.value.IntegerValue
115

@<SCITEGIC>MOL_PROPERTY
Delta U+W
SciTegic.value.DoubleValue
0.038

@<SCITEGIC>MOL_PROPERTY
U+W
SciTegic.value.DoubleValue
10.952

@<SCITEGIC>MOL_PROPERTY
Grad RMS
SciTegic.value.DoubleValue
0.000000

@<SCITEGIC>MOL_PROPERTY
U
SciTegic.value.DoubleValue
12.526

@<SCITEGIC>MOL_PROPERTY
W
SciTegic.value.DoubleValue
-1.575

@<SCITEGIC>MOL_PROPERTY
W(PB)
SciTegic.value.DoubleValue
-3.698

@<SCITEGIC>MOL_PROPERTY
W(SA)
SciTegic.value.DoubleValue
2.123

@<SCITEGIC>MOL_PROPERTY
Valence
SciTegic.value.DoubleValue
19.016

@<SCITEGIC>MOL_PROPERTY
Coulomb
SciTegic.value.DoubleValue
-9.226

@<SCITEGIC>MOL_PROPERTY
VdW
SciTegic.value.DoubleValue
2.737

@<SCITEGIC>MOL_PROPERTY
VdW6
SciTegic.value.DoubleValue
-12.612

@<SCITEGIC>MOL_PROPERTY
VdW12
SciTegic.value.DoubleValue
15.349

@<SCITEGIC>MOL_PROPERTY
Bond
SciTegic.value.DoubleValue
0.421

@<SCITEGIC>MOL_PROPERTY
Angle
SciTegic.value.DoubleValue
4.883

@<SCITEGIC>MOL_PROPERTY
Pdih
SciTegic.value.DoubleValue
13.711

@<SCITEGIC>MOL_PROPERTY
Idih
SciTegic.value.DoubleValue
0.000

@<SCITEGIC>MOL_PROPERTY
Tether
SciTegic.value.DoubleValue
0.000

@<TRIPOS>MOLECULE
guest-s17_confgen4.mol2 : confsearch ligand conformer 761
          25          25           1
SMALL
USER_CHARGES
 
@<TRIPOS>ATOM
       1    C1      20.892871   17.990457   24.294779 C.3        1 MOL1        -0.1684
       2    H1      20.995306   17.748078   25.361431 H          1 MOL1         0.0833
       3    H2      21.070368   17.047317   23.760497 H          1 MOL1         0.0833
       4    C2      21.998595   19.014098   23.946828 C.3        1 MOL1        -0.1684
       5    H3      21.891875   19.911425   24.571334 H          1 MOL1         0.0833
       6    H4      22.960878   18.568107   24.233361 H          1 MOL1         0.0833
       7    C3      22.082750   19.409062   22.454241 C.3        1 MOL1        -0.1684
       8    H5      21.953035   18.523702   21.817617 H          1 MOL1         0.0833
       9    H6      23.107267   19.757261   22.263752 H          1 MOL1         0.0833
      10    C4      21.117533   20.552342   22.040468 C.3        1 MOL1        -0.1760
      11    H7      20.699176   21.058675   22.919338 H          1 MOL1         0.0833
      12    H8      21.715490   21.313810   21.521648 H          1 MOL1         0.0833
      13    C5      19.979272   20.115294   21.091097 C.3        1 MOL1         0.1219
      14    H9      20.363493   19.347017   20.404952 H          1 MOL1         0.0790
      15    C6      18.721200   19.569297   21.802135 C.3        1 MOL1        -0.1760
      16    H10     18.288015   20.346169   22.445882 H          1 MOL1         0.0833
      17    H11     17.966971   19.365963   21.030639 H          1 MOL1         0.0833
      18    C7      18.927721   18.263801   22.608174 C.3        1 MOL1        -0.1684
      19    H12     19.569832   17.568022   22.051741 H          1 MOL1         0.0833
      20    H13     17.951182   17.765111   22.678243 H          1 MOL1         0.0833
      21    C8      19.444105   18.476516   24.055275 C.3        1 MOL1        -0.1684
      22    H14     18.791492   17.899419   24.724796 H          1 MOL1         0.0833
      23    H15     19.333256   19.521944   24.372482 H          1 MOL1         0.0833
      24    O1      19.581436   21.249141   20.329674 O.3        1 MOL1        -0.5508
      25    H16     18.898723   20.940727   19.697916 H          1 MOL1         0.3780
@<TRIPOS>BOND
    1     1     2    1
    2     1     3    1
    3     1     4    1
    4     4     5    1
    5     4     6    1
    6     4     7    1
    7     7     8    1
    8     7     9    1
    9     7    10    1
   10    10    11    1
   11    10    12    1
   12    10    13    1
   13    13    14    1
   14    13    15    1
   15    15    16    1
   16    15    17    1
   17    15    18    1
   18    18    19    1
   19    18    20    1
   20     1    21    1
   21    18    21    1
   22    21    22    1
   23    21    23    1
   24    13    24    1
   25    24    25    1
@<TRIPOS>SUBSTRUCTURE
       1 MOL1            1 RESIDUE      1      MOL     
@<SCITEGIC>MOL_PROPERTY
VConf Rank
SciTegic.value.IntegerValue
761

@<SCITEGIC>MOL_PROPERTY
Conf_Id
SciTegic.value.IntegerValue
30

@<SCITEGIC>MOL_PROPERTY
Delta U+W
SciTegic.value.DoubleValue
0.000

@<SCITEGIC>MOL_PROPERTY
U+W
SciTegic.value.DoubleValue
10.913

@<SCITEGIC>MOL_PROPERTY
Grad RMS
SciTegic.value.DoubleValue
0.000000

@<SCITEGIC>MOL_PROPERTY
U
SciTegic.value.DoubleValue
13.140

@<SCITEGIC>MOL_PROPERTY
W
SciTegic.value.DoubleValue
-2.227

@<SCITEGIC>MOL_PROPERTY
W(PB)
SciTegic.value.DoubleValue
-4.367

@<SCITEGIC>MOL_PROPERTY
W(SA)
SciTegic.value.DoubleValue
2.140

@<SCITEGIC>MOL_PROPERTY
Valence
SciTegic.value.DoubleValue
19.155

@<SCITEGIC>MOL_PROPERTY
Coulomb
SciTegic.value.DoubleValue
-8.157

@<SCITEGIC>MOL_PROPERTY
VdW
SciTegic.value.DoubleValue
2.142

@<SCITEGIC>MOL_PROPERTY
VdW6
SciTegic.value.DoubleValue
-11.576

@<SCITEGIC>MOL_PROPERTY
VdW12
SciTegic.value.DoubleValue
13.718

@<SCITEGIC>MOL_PROPERTY
Bond
SciTegic.value.DoubleValue
0.294

@<SCITEGIC>MOL_PROPERTY
Angle
SciTegic.value.DoubleValue
3.547

@<SCITEGIC>MOL_PROPERTY
Pdih
SciTegic.value.DoubleValue
15.314

@<SCITEGIC>MOL_PROPERTY
Idih
SciTegic.value.DoubleValue
0.000

@<SCITEGIC>MOL_PROPERTY
Tether
SciTegic.value.DoubleValue
0.000

@<TRIPOS>MOLECULE
guest-s17_confgen4.mol2 : confsearch ligand conformer 762
          25          25           1
SMALL
USER_CHARGES
 
@<TRIPOS>ATOM
       1    C1      21.637689   17.898576   23.633815 C.3        1 MOL1        -0.1684
       2    H1      21.529667   16.869881   24.003915 H          1 MOL1         0.0833
       3    H2      22.648838   18.214043   23.925073 H          1 MOL1         0.0833
       4    C2      20.617162   18.796910   24.375169 C.3        1 MOL1        -0.1684
       5    H3      20.639249   18.526595   25.439740 H          1 MOL1         0.0833
       6    H4      20.955608   19.839135   24.347293 H          1 MOL1         0.0833
       7    C3      19.160229   18.669265   23.862476 C.3        1 MOL1        -0.1684
       8    H5      18.510624   18.404823   24.707917 H          1 MOL1         0.0833
       9    H6      19.061606   17.832187   23.161612 H          1 MOL1         0.0833
      10    C4      18.602607   19.961770   23.214367 C.3        1 MOL1        -0.1760
      11    H7      17.652361   19.719688   22.720214 H          1 MOL1         0.0833
      12    H8      18.354106   20.671835   24.013881 H          1 MOL1         0.0833
      13    C5      19.524252   20.693053   22.206412 C.3        1 MOL1         0.1219
      14    H9      20.355300   21.161409   22.750459 H          1 MOL1         0.0790
      15    C6      20.108217   19.801668   21.083151 C.3        1 MOL1        -0.1760
      16    H10     19.406487   18.996075   20.831862 H          1 MOL1         0.0833
      17    H11     20.189643   20.409863   20.172402 H          1 MOL1         0.0833
      18    C7      21.526662   19.232285   21.368747 C.3        1 MOL1        -0.1684
      19    H12     22.147929   19.962439   21.904773 H          1 MOL1         0.0833
      20    H13     22.016142   19.092551   20.395032 H          1 MOL1         0.0833
      21    C8      21.551058   17.859156   22.084792 C.3        1 MOL1        -0.1684
      22    H14     22.433358   17.309262   21.729502 H          1 MOL1         0.0833
      23    H15     20.695734   17.252498   21.761191 H          1 MOL1         0.0833
      24    O1      18.752659   21.725993   21.604835 O.3        1 MOL1        -0.5508
      25    H16     19.361447   22.234337   21.029146 H          1 MOL1         0.3780
@<TRIPOS>BOND
    1     1     2    1
    2     1     3    1
    3     1     4    1
    4     4     5    1
    5     4     6    1
    6     4     7    1
    7     7     8    1
    8     7     9    1
    9     7    10    1
   10    10    11    1
   11    10    12    1
   12    10    13    1
   13    13    14    1
   14    13    15    1
   15    15    16    1
   16    15    17    1
   17    15    18    1
   18    18    19    1
   19    18    20    1
   20     1    21    1
   21    18    21    1
   22    21    22    1
   23    21    23    1
   24    13    24    1
   25    24    25    1
@<TRIPOS>SUBSTRUCTURE
       1 MOL1            1 RESIDUE      1      MOL     
@<SCITEGIC>MOL_PROPERTY
VConf Rank
SciTegic.value.IntegerValue
762

@<SCITEGIC>MOL_PROPERTY
Conf_Id
SciTegic.value.IntegerValue
162

@<SCITEGIC>MOL_PROPERTY
Delta U+W
SciTegic.value.DoubleValue
0.219

@<SCITEGIC>MOL_PROPERTY
U+W
SciTegic.value.DoubleValue
11.132

@<SCITEGIC>MOL_PROPERTY
Grad RMS
SciTegic.value.DoubleValue
0.000000

@<SCITEGIC>MOL_PROPERTY
U
SciTegic.value.DoubleValue
13.296

@<SCITEGIC>MOL_PROPERTY
W
SciTegic.value.DoubleValue
-2.164

@<SCITEGIC>MOL_PROPERTY
W(PB)
SciTegic.value.DoubleValue
-4.311

@<SCITEGIC>MOL_PROPERTY
W(SA)
SciTegic.value.DoubleValue
2.148

@<SCITEGIC>MOL_PROPERTY
Valence
SciTegic.value.DoubleValue
18.607

@<SCITEGIC>MOL_PROPERTY
Coulomb
SciTegic.value.DoubleValue
-8.339

@<SCITEGIC>MOL_PROPERTY
VdW
SciTegic.value.DoubleValue
3.028

@<SCITEGIC>MOL_PROPERTY
VdW6
SciTegic.value.DoubleValue
-12.271

@<SCITEGIC>MOL_PROPERTY
VdW12
SciTegic.value.DoubleValue
15.299

@<SCITEGIC>MOL_PROPERTY
Bond
SciTegic.value.DoubleValue
0.423

@<SCITEGIC>MOL_PROPERTY
Angle
SciTegic.value.DoubleValue
4.488

@<SCITEGIC>MOL_PROPERTY
Pdih
SciTegic.value.DoubleValue
13.696

@<SCITEGIC>MOL_PROPERTY
Idih
SciTegic.value.DoubleValue
0.000

@<SCITEGIC>MOL_PROPERTY
Tether
SciTegic.value.DoubleValue
0.000

@<TRIPOS>MOLECULE
guest-s17_confgen4.mol2 : confsearch ligand conformer 763
          25          25           1
SMALL
USER_CHARGES
 
@<TRIPOS>ATOM
       1    C1      19.886875   17.574421   23.692776 C.3        1 MOL1        -0.1684
       2    H1      20.835401   17.695709   24.231090 H          1 MOL1         0.0833
       3    H2      19.415855   16.694001   24.150997 H          1 MOL1         0.0833
       4    C2      18.971205   18.796454   23.953326 C.3        1 MOL1        -0.1684
       5    H3      18.198651   18.877277   23.176885 H          1 MOL1         0.0833
       6    H4      18.426198   18.592980   24.885369 H          1 MOL1         0.0833
       7    C3      19.712028   20.148332   24.151238 C.3        1 MOL1        -0.1684
       8    H5      20.651578   20.009014   24.702604 H          1 MOL1         0.0833
       9    H6      19.079728   20.763592   24.806053 H          1 MOL1         0.0833
      10    C4      19.948547   20.968765   22.856582 C.3        1 MOL1        -0.1760
      11    H7      19.115471   20.816289   22.159423 H          1 MOL1         0.0833
      12    H8      19.904103   22.033241   23.121401 H          1 MOL1         0.0833
      13    C5      21.305143   20.748649   22.140674 C.3        1 MOL1         0.1219
      14    H9      22.091588   21.197469   22.764498 H          1 MOL1         0.0790
      15    C6      21.710163   19.278758   21.877174 C.3        1 MOL1        -0.1760
      16    H10     22.566041   19.269895   21.189864 H          1 MOL1         0.0833
      17    H11     22.100851   18.845929   22.804320 H          1 MOL1         0.0833
      18    C7      20.584704   18.391053   21.283207 C.3        1 MOL1        -0.1684
      19    H12     20.934759   17.965762   20.332970 H          1 MOL1         0.0833
      20    H13     19.710776   18.995524   21.013069 H          1 MOL1         0.0833
      21    C8      20.144454   17.226304   22.202620 C.3        1 MOL1        -0.1684
      22    H14     20.908840   16.438328   22.163280 H          1 MOL1         0.0833
      23    H15     19.233942   16.780348   21.779768 H          1 MOL1         0.0833
      24    O1      21.255873   21.435238   20.895576 O.3        1 MOL1        -0.5508
      25    H16     22.117936   21.283989   20.456157 H          1 MOL1         0.3780
@<TRIPOS>BOND
    1     1     2    1
    2     1     3    1
    3     1     4    1
    4     4     5    1
    5     4     6    1
    6     4     7    1
    7     7     8    1
    8     7     9    1
    9     7    10    1
   10    10    11    1
   11    10    12    1
   12    10    13    1
   13    13    14    1
   14    13    15    1
   15    15    16    1
   16    15    17    1
   17    15    18    1
   18    18    19    1
   19    18    20    1
   20     1    21    1
   21    18    21    1
   22    21    22    1
   23    21    23    1
   24    13    24    1
   25    24    25    1
@<TRIPOS>SUBSTRUCTURE
       1 MOL1            1 RESIDUE      1      MOL     
@<SCITEGIC>MOL_PROPERTY
VConf Rank
SciTegic.value.IntegerValue
763

@<SCITEGIC>MOL_PROPERTY
Conf_Id
SciTegic.value.IntegerValue
155

@<SCITEGIC>MOL_PROPERTY
Delta U+W
SciTegic.value.DoubleValue
0.339

@<SCITEGIC>MOL_PROPERTY
U+W
SciTegic.value.DoubleValue
11.252

@<SCITEGIC>MOL_PROPERTY
Grad RMS
SciTegic.value.DoubleValue
0.000000

@<SCITEGIC>MOL_PROPERTY
U
SciTegic.value.DoubleValue
13.420

@<SCITEGIC>MOL_PROPERTY
W
SciTegic.value.DoubleValue
-2.167

@<SCITEGIC>MOL_PROPERTY
W(PB)
SciTegic.value.DoubleValue
-4.325

@<SCITEGIC>MOL_PROPERTY
W(SA)
SciTegic.value.DoubleValue
2.157

@<SCITEGIC>MOL_PROPERTY
Valence
SciTegic.value.DoubleValue
18.609

@<SCITEGIC>MOL_PROPERTY
Coulomb
SciTegic.value.DoubleValue
-8.052

@<SCITEGIC>MOL_PROPERTY
VdW
SciTegic.value.DoubleValue
2.863

@<SCITEGIC>MOL_PROPERTY
VdW6
SciTegic.value.DoubleValue
-12.524

@<SCITEGIC>MOL_PROPERTY
VdW12
SciTegic.value.DoubleValue
15.387

@<SCITEGIC>MOL_PROPERTY
Bond
SciTegic.value.DoubleValue
0.430

@<SCITEGIC>MOL_PROPERTY
Angle
SciTegic.value.DoubleValue
4.724

@<SCITEGIC>MOL_PROPERTY
Pdih
SciTegic.value.DoubleValue
13.455

@<SCITEGIC>MOL_PROPERTY
Idih
SciTegic.value.DoubleValue
0.000

@<SCITEGIC>MOL_PROPERTY
Tether
SciTegic.value.DoubleValue
0.000

@<TRIPOS>MOLECULE
guest-s17_confgen4.mol2 : confsearch ligand conformer 764
          25          25           1
SMALL
USER_CHARGES
 
@<TRIPOS>ATOM
       1    C1      18.773999   20.459910   22.606361 C.3        1 MOL1        -0.1684
       2    H1      18.314725   20.557043   21.613400 H          1 MOL1         0.0833
       3    H2      18.173366   21.097016   23.269776 H          1 MOL1         0.0833
       4    C2      18.604671   19.001411   23.107291 C.3        1 MOL1        -0.1684
       5    H3      18.956202   18.931269   24.141527 H          1 MOL1         0.0833
       6    H4      17.527576   18.801257   23.188044 H          1 MOL1         0.0833
       7    C3      19.216581   17.865461   22.236430 C.3        1 MOL1        -0.1684
       8    H5      18.470751   17.595450   21.476572 H          1 MOL1         0.0833
       9    H6      19.340889   16.968171   22.857828 H          1 MOL1         0.0833
      10    C4      20.545644   18.152308   21.485953 C.3        1 MOL1        -0.1760
      11    H7      20.739419   17.298138   20.824029 H          1 MOL1         0.0833
      12    H8      20.392122   18.978591   20.786353 H          1 MOL1         0.0833
      13    C5      21.826742   18.395770   22.336727 C.3        1 MOL1         0.1219
      14    H9      22.531855   18.973895   21.722433 H          1 MOL1         0.0790
      15    C6      21.662729   19.129934   23.691217 C.3        1 MOL1        -0.1760
      16    H10     21.013109   18.537684   24.342181 H          1 MOL1         0.0833
      17    H11     22.634746   19.102311   24.201164 H          1 MOL1         0.0833
      18    C7      21.208235   20.620196   23.661898 C.3        1 MOL1        -0.1684
      19    H12     22.109715   21.236548   23.542392 H          1 MOL1         0.0833
      20    H13     20.800313   20.886358   24.646316 H          1 MOL1         0.0833
      21    C8      20.209494   21.060827   22.559605 C.3        1 MOL1        -0.1684
      22    H14     20.663738   20.908142   21.575569 H          1 MOL1         0.0833
      23    H15     20.103696   22.152290   22.625899 H          1 MOL1         0.0833
      24    O1      22.408872   17.128252   22.620819 O.3        1 MOL1        -0.5508
      25    H16     22.559535   16.686640   21.759703 H          1 MOL1         0.3780
@<TRIPOS>BOND
    1     1     2    1
    2     1     3    1
    3     1     4    1
    4     4     5    1
    5     4     6    1
    6     4     7    1
    7     7     8    1
    8     7     9    1
    9     7    10    1
   10    10    11    1
   11    10    12    1
   12    10    13    1
   13    13    14    1
   14    13    15    1
   15    15    16    1
   16    15    17    1
   17    15    18    1
   18    18    19    1
   19    18    20    1
   20     1    21    1
   21    18    21    1
   22    21    22    1
   23    21    23    1
   24    13    24    1
   25    24    25    1
@<TRIPOS>SUBSTRUCTURE
       1 MOL1            1 RESIDUE      1      MOL     
@<SCITEGIC>MOL_PROPERTY
VConf Rank
SciTegic.value.IntegerValue
764

@<SCITEGIC>MOL_PROPERTY
Conf_Id
SciTegic.value.IntegerValue
146

@<SCITEGIC>MOL_PROPERTY
Delta U+W
SciTegic.value.DoubleValue
2.553

@<SCITEGIC>MOL_PROPERTY
U+W
SciTegic.value.DoubleValue
13.466

@<SCITEGIC>MOL_PROPERTY
Grad RMS
SciTegic.value.DoubleValue
0.000000

@<SCITEGIC>MOL_PROPERTY
U
SciTegic.value.DoubleValue
15.643

@<SCITEGIC>MOL_PROPERTY
W
SciTegic.value.DoubleValue
-2.176

@<SCITEGIC>MOL_PROPERTY
W(PB)
SciTegic.value.DoubleValue
-4.307

@<SCITEGIC>MOL_PROPERTY
W(SA)
SciTegic.value.DoubleValue
2.131

@<SCITEGIC>MOL_PROPERTY
Valence
SciTegic.value.DoubleValue
18.916

@<SCITEGIC>MOL_PROPERTY
Coulomb
SciTegic.value.DoubleValue
-7.506

@<SCITEGIC>MOL_PROPERTY
VdW
SciTegic.value.DoubleValue
4.232

@<SCITEGIC>MOL_PROPERTY
VdW6
SciTegic.value.DoubleValue
-13.632

@<SCITEGIC>MOL_PROPERTY
VdW12
SciTegic.value.DoubleValue
17.864

@<SCITEGIC>MOL_PROPERTY
Bond
SciTegic.value.DoubleValue
0.735

@<SCITEGIC>MOL_PROPERTY
Angle
SciTegic.value.DoubleValue
9.140

@<SCITEGIC>MOL_PROPERTY
Pdih
SciTegic.value.DoubleValue
9.042

@<SCITEGIC>MOL_PROPERTY
Idih
SciTegic.value.DoubleValue
0.000

@<SCITEGIC>MOL_PROPERTY
Tether
SciTegic.value.DoubleValue
0.000

@<TRIPOS>MOLECULE
guest-s17_confgen4.mol2 : confsearch ligand conformer 765
          25          25           1
SMALL
USER_CHARGES
 
@<TRIPOS>ATOM
       1    C1      20.837678   17.255982   22.453847 C.3        1 MOL1        -0.1684
       2    H1      21.873617   16.901467   22.541334 H          1 MOL1         0.0833
       3    H2      20.234780   16.360962   22.248017 H          1 MOL1         0.0833
       4    C2      20.718297   18.187268   21.221534 C.3        1 MOL1        -0.1684
       5    H3      20.989726   17.594249   20.337534 H          1 MOL1         0.0833
       6    H4      19.671761   18.466847   21.054966 H          1 MOL1         0.0833
       7    C3      21.623036   19.444966   21.226555 C.3        1 MOL1        -0.1684
       8    H5      21.514300   19.934393   20.248998 H          1 MOL1         0.0833
       9    H6      22.675029   19.135400   21.289194 H          1 MOL1         0.0833
      10    C4      21.344591   20.506999   22.322117 C.3        1 MOL1        -0.1760
      11    H7      21.819159   20.214999   23.264237 H          1 MOL1         0.0833
      12    H8      21.869938   21.424204   22.023316 H          1 MOL1         0.0833
      13    C5      19.847225   20.834532   22.555986 C.3        1 MOL1         0.1219
      14    H9      19.262096   20.529854   21.677898 H          1 MOL1         0.0790
      15    C6      19.246020   20.180000   23.825593 C.3        1 MOL1        -0.1760
      16    H10     19.852608   20.459738   24.697096 H          1 MOL1         0.0833
      17    H11     18.256330   20.622552   23.998804 H          1 MOL1         0.0833
      18    C7      19.063792   18.637988   23.801160 C.3        1 MOL1        -0.1684
      19    H12     18.427228   18.333987   22.960227 H          1 MOL1         0.0833
      20    H13     18.496075   18.368127   24.702189 H          1 MOL1         0.0833
      21    C8      20.384646   17.825979   23.822888 C.3        1 MOL1        -0.1684
      22    H14     20.248630   16.970696   24.498929 H          1 MOL1         0.0833
      23    H15     21.188793   18.411281   24.282879 H          1 MOL1         0.0833
      24    O1      19.721413   22.244077   22.706663 O.3        1 MOL1        -0.5508
      25    H16     18.764332   22.435349   22.794013 H          1 MOL1         0.3780
@<TRIPOS>BOND
    1     1     2    1
    2     1     3    1
    3     1     4    1
    4     4     5    1
    5     4     6    1
    6     4     7    1
    7     7     8    1
    8     7     9    1
    9     7    10    1
   10    10    11    1
   11    10    12    1
   12    10    13    1
   13    13    14    1
   14    13    15    1
   15    15    16    1
   16    15    17    1
   17    15    18    1
   18    18    19    1
   19    18    20    1
   20     1    21    1
   21    18    21    1
   22    21    22    1
   23    21    23    1
   24    13    24    1
   25    24    25    1
@<TRIPOS>SUBSTRUCTURE
       1 MOL1            1 RESIDUE      1      MOL     
@<SCITEGIC>MOL_PROPERTY
VConf Rank
SciTegic.value.IntegerValue
765

@<SCITEGIC>MOL_PROPERTY
Conf_Id
SciTegic.value.IntegerValue
62

@<SCITEGIC>MOL_PROPERTY
Delta U+W
SciTegic.value.DoubleValue
-1.779

@<SCITEGIC>MOL_PROPERTY
U+W
SciTegic.value.DoubleValue
9.134

@<SCITEGIC>MOL_PROPERTY
Grad RMS
SciTegic.value.DoubleValue
0.000000

@<SCITEGIC>MOL_PROPERTY
U
SciTegic.value.DoubleValue
11.364

@<SCITEGIC>MOL_PROPERTY
W
SciTegic.value.DoubleValue
-2.230

@<SCITEGIC>MOL_PROPERTY
W(PB)
SciTegic.value.DoubleValue
-4.359

@<SCITEGIC>MOL_PROPERTY
W(SA)
SciTegic.value.DoubleValue
2.129

@<SCITEGIC>MOL_PROPERTY
Valence
SciTegic.value.DoubleValue
16.582

@<SCITEGIC>MOL_PROPERTY
Coulomb
SciTegic.value.DoubleValue
-8.150

@<SCITEGIC>MOL_PROPERTY
VdW
SciTegic.value.DoubleValue
2.933

@<SCITEGIC>MOL_PROPERTY
VdW6
SciTegic.value.DoubleValue
-12.531

@<SCITEGIC>MOL_PROPERTY
VdW12
SciTegic.value.DoubleValue
15.464

@<SCITEGIC>MOL_PROPERTY
Bond
SciTegic.value.DoubleValue
0.439

@<SCITEGIC>MOL_PROPERTY
Angle
SciTegic.value.DoubleValue
5.099

@<SCITEGIC>MOL_PROPERTY
Pdih
SciTegic.value.DoubleValue
11.044

@<SCITEGIC>MOL_PROPERTY
Idih
SciTegic.value.DoubleValue
0.000

@<SCITEGIC>MOL_PROPERTY
Tether
SciTegic.value.DoubleValue
0.000

@<TRIPOS>MOLECULE
guest-s17_confgen4.mol2 : confsearch ligand conformer 766
          25          25           1
SMALL
USER_CHARGES
 
@<TRIPOS>ATOM
       1    C1      19.928972   18.882600   24.456543 C.3        1 MOL1        -0.1684
       2    H1      20.757881   19.597927   24.504929 H          1 MOL1         0.0833
       3    H2      19.678546   18.678167   25.506368 H          1 MOL1         0.0833
       4    C2      20.402913   17.548279   23.828355 C.3        1 MOL1        -0.1684
       5    H3      21.207491   17.153237   24.463559 H          1 MOL1         0.0833
       6    H4      19.590383   16.811400   23.885800 H          1 MOL1         0.0833
       7    C3      20.931744   17.601402   22.372252 C.3        1 MOL1        -0.1684
       8    H5      20.100133   17.566374   21.659378 H          1 MOL1         0.0833
       9    H6      21.484888   16.668916   22.194695 H          1 MOL1         0.0833
      10    C4      21.873976   18.792599   22.052001 C.3        1 MOL1        -0.1760
      11    H7      22.356639   19.169624   22.962023 H          1 MOL1         0.0833
      12    H8      22.691279   18.401735   21.431850 H          1 MOL1         0.0833
      13    C5      21.213749   19.953964   21.266684 C.3        1 MOL1         0.1219
      14    H9      20.736076   19.535349   20.369148 H          1 MOL1         0.0790
      15    C6      20.155000   20.787679   22.030804 C.3        1 MOL1        -0.1760
      16    H10     20.590197   21.222876   22.938546 H          1 MOL1         0.0833
      17    H11     19.901957   21.644952   21.392947 H          1 MOL1         0.0833
      18    C7      18.832529   20.038560   22.346178 C.3        1 MOL1        -0.1684
      19    H12     18.680364   19.214012   21.640549 H          1 MOL1         0.0833
      20    H13     17.995897   20.723713   22.152371 H          1 MOL1         0.0833
      21    C8      18.685857   19.539761   23.806523 C.3        1 MOL1        -0.1684
      22    H14     17.836929   18.845012   23.862454 H          1 MOL1         0.0833
      23    H15     18.406274   20.400936   24.428691 H          1 MOL1         0.0833
      24    O1      22.247049   20.843049   20.861411 O.3        1 MOL1        -0.5508
      25    H16     22.875471   20.319610   20.321740 H          1 MOL1         0.3780
@<TRIPOS>BOND
    1     1     2    1
    2     1     3    1
    3     1     4    1
    4     4     5    1
    5     4     6    1
    6     4     7    1
    7     7     8    1
    8     7     9    1
    9     7    10    1
   10    10    11    1
   11    10    12    1
   12    10    13    1
   13    13    14    1
   14    13    15    1
   15    15    16    1
   16    15    17    1
   17    15    18    1
   18    18    19    1
   19    18    20    1
   20     1    21    1
   21    18    21    1
   22    21    22    1
   23    21    23    1
   24    13    24    1
   25    24    25    1
@<TRIPOS>SUBSTRUCTURE
       1 MOL1            1 RESIDUE      1      MOL     
@<SCITEGIC>MOL_PROPERTY
VConf Rank
SciTegic.value.IntegerValue
766

@<SCITEGIC>MOL_PROPERTY
Conf_Id
SciTegic.value.IntegerValue
121

@<SCITEGIC>MOL_PROPERTY
Delta U+W
SciTegic.value.DoubleValue
-1.283

@<SCITEGIC>MOL_PROPERTY
U+W
SciTegic.value.DoubleValue
9.630

@<SCITEGIC>MOL_PROPERTY
Grad RMS
SciTegic.value.DoubleValue
0.000000

@<SCITEGIC>MOL_PROPERTY
U
SciTegic.value.DoubleValue
11.876

@<SCITEGIC>MOL_PROPERTY
W
SciTegic.value.DoubleValue
-2.246

@<SCITEGIC>MOL_PROPERTY
W(PB)
SciTegic.value.DoubleValue
-4.376

@<SCITEGIC>MOL_PROPERTY
W(SA)
SciTegic.value.DoubleValue
2.130

@<SCITEGIC>MOL_PROPERTY
Valence
SciTegic.value.DoubleValue
17.153

@<SCITEGIC>MOL_PROPERTY
Coulomb
SciTegic.value.DoubleValue
-7.966

@<SCITEGIC>MOL_PROPERTY
VdW
SciTegic.value.DoubleValue
2.689

@<SCITEGIC>MOL_PROPERTY
VdW6
SciTegic.value.DoubleValue
-12.458

@<SCITEGIC>MOL_PROPERTY
VdW12
SciTegic.value.DoubleValue
15.147

@<SCITEGIC>MOL_PROPERTY
Bond
SciTegic.value.DoubleValue
0.421

@<SCITEGIC>MOL_PROPERTY
Angle
SciTegic.value.DoubleValue
5.258

@<SCITEGIC>MOL_PROPERTY
Pdih
SciTegic.value.DoubleValue
11.475

@<SCITEGIC>MOL_PROPERTY
Idih
SciTegic.value.DoubleValue
0.000

@<SCITEGIC>MOL_PROPERTY
Tether
SciTegic.value.DoubleValue
0.000

@<TRIPOS>MOLECULE
guest-s17_confgen4.mol2 : confsearch ligand conformer 767
          25          25           1
SMALL
USER_CHARGES
 
@<TRIPOS>ATOM
       1    C1      21.251266   19.725998   21.106978 C.3        1 MOL1        -0.1684
       2    H1      21.357366   18.636632   21.163087 H          1 MOL1         0.0833
       3    H2      21.767422   20.006627   20.178824 H          1 MOL1         0.0833
       4    C2      22.007740   20.403182   22.276975 C.3        1 MOL1        -0.1684
       5    H3      23.066081   20.121432   22.190868 H          1 MOL1         0.0833
       6    H4      21.979053   21.493279   22.145266 H          1 MOL1         0.0833
       7    C3      21.541291   20.057519   23.714287 C.3        1 MOL1        -0.1684
       8    H5      20.684019   20.677333   24.000399 H          1 MOL1         0.0833
       9    H6      22.343708   20.366201   24.398239 H          1 MOL1         0.0833
      10    C4      21.237421   18.556929   23.970150 C.3        1 MOL1        -0.1760
      11    H7      21.782453   17.916509   23.266167 H          1 MOL1         0.0833
      12    H8      21.640350   18.305119   24.960124 H          1 MOL1         0.0833
      13    C5      19.733147   18.187128   23.988103 C.3        1 MOL1         0.1219
      14    H9      19.226302   18.852722   24.701596 H          1 MOL1         0.0790
      15    C6      18.987159   18.269996   22.632366 C.3        1 MOL1        -0.1760
      16    H10     19.468764   17.623345   21.888625 H          1 MOL1         0.0833
      17    H11     17.987123   17.842662   22.782888 H          1 MOL1         0.0833
      18    C7      18.792822   19.707549   22.080115 C.3        1 MOL1        -0.1684
      19    H12     18.826243   20.440183   22.894439 H          1 MOL1         0.0833
      20    H13     17.772221   19.786928   21.681247 H          1 MOL1         0.0833
      21    C8      19.761268   20.115774   20.940737 C.3        1 MOL1        -0.1684
      22    H14     19.685546   21.199687   20.779828 H          1 MOL1         0.0833
      23    H15     19.401641   19.651887   20.012100 H          1 MOL1         0.0833
      24    O1      19.627346   16.848949   24.457686 O.3        1 MOL1        -0.5508
      25    H16     18.670812   16.649003   24.529901 H          1 MOL1         0.3780
@<TRIPOS>BOND
    1     1     2    1
    2     1     3    1
    3     1     4    1
    4     4     5    1
    5     4     6    1
    6     4     7    1
    7     7     8    1
    8     7     9    1
    9     7    10    1
   10    10    11    1
   11    10    12    1
   12    10    13    1
   13    13    14    1
   14    13    15    1
   15    15    16    1
   16    15    17    1
   17    15    18    1
   18    18    19    1
   19    18    20    1
   20     1    21    1
   21    18    21    1
   22    21    22    1
   23    21    23    1
   24    13    24    1
   25    24    25    1
@<TRIPOS>SUBSTRUCTURE
       1 MOL1            1 RESIDUE      1      MOL     
@<SCITEGIC>MOL_PROPERTY
VConf Rank
SciTegic.value.IntegerValue
767

@<SCITEGIC>MOL_PROPERTY
Conf_Id
SciTegic.value.IntegerValue
24

@<SCITEGIC>MOL_PROPERTY
Delta U+W
SciTegic.value.DoubleValue
-1.236

@<SCITEGIC>MOL_PROPERTY
U+W
SciTegic.value.DoubleValue
9.678

@<SCITEGIC>MOL_PROPERTY
Grad RMS
SciTegic.value.DoubleValue
0.000000

@<SCITEGIC>MOL_PROPERTY
U
SciTegic.value.DoubleValue
11.876

@<SCITEGIC>MOL_PROPERTY
W
SciTegic.value.DoubleValue
-2.199

@<SCITEGIC>MOL_PROPERTY
W(PB)
SciTegic.value.DoubleValue
-4.335

@<SCITEGIC>MOL_PROPERTY
W(SA)
SciTegic.value.DoubleValue
2.137

@<SCITEGIC>MOL_PROPERTY
Valence
SciTegic.value.DoubleValue
17.153

@<SCITEGIC>MOL_PROPERTY
Coulomb
SciTegic.value.DoubleValue
-7.966

@<SCITEGIC>MOL_PROPERTY
VdW
SciTegic.value.DoubleValue
2.689

@<SCITEGIC>MOL_PROPERTY
VdW6
SciTegic.value.DoubleValue
-12.458

@<SCITEGIC>MOL_PROPERTY
VdW12
SciTegic.value.DoubleValue
15.147

@<SCITEGIC>MOL_PROPERTY
Bond
SciTegic.value.DoubleValue
0.421

@<SCITEGIC>MOL_PROPERTY
Angle
SciTegic.value.DoubleValue
5.258

@<SCITEGIC>MOL_PROPERTY
Pdih
SciTegic.value.DoubleValue
11.475

@<SCITEGIC>MOL_PROPERTY
Idih
SciTegic.value.DoubleValue
0.000

@<SCITEGIC>MOL_PROPERTY
Tether
SciTegic.value.DoubleValue
0.000

@<TRIPOS>MOLECULE
guest-s17_confgen4.mol2 : confsearch ligand conformer 768
          25          25           1
SMALL
USER_CHARGES
 
@<TRIPOS>ATOM
       1    C1      18.621964   19.251110   21.261350 C.3        1 MOL1        -0.1684
       2    H1      18.506820   18.533359   20.437729 H          1 MOL1         0.0833
       3    H2      17.798402   19.969101   21.146945 H          1 MOL1         0.0833
       4    C2      18.422109   18.506040   22.607875 C.3        1 MOL1        -0.1684
       5    H3      18.204533   19.217426   23.414649 H          1 MOL1         0.0833
       6    H4      17.506101   17.907523   22.509016 H          1 MOL1         0.0833
       7    C3      19.567693   17.555438   23.035254 C.3        1 MOL1        -0.1684
       8    H5      20.026448   17.078580   22.158552 H          1 MOL1         0.0833
       9    H6      19.106626   16.736239   23.604054 H          1 MOL1         0.0833
      10    C4      20.645985   18.192944   23.956557 C.3        1 MOL1        -0.1760
      11    H7      20.190724   18.907949   24.653682 H          1 MOL1         0.0833
      12    H8      21.041656   17.381946   24.583196 H          1 MOL1         0.0833
      13    C5      21.839552   18.842339   23.214423 C.3        1 MOL1         0.1219
      14    H9      21.980624   18.321673   22.258033 H          1 MOL1         0.0790
      15    C6      21.711064   20.364758   22.954544 C.3        1 MOL1        -0.1760
      16    H10     21.834252   20.907572   23.900879 H          1 MOL1         0.0833
      17    H11     22.555972   20.666295   22.321435 H          1 MOL1         0.0833
      18    C7      20.401633   20.851982   22.284735 C.3        1 MOL1        -0.1684
      19    H12     20.552704   21.889239   21.956049 H          1 MOL1         0.0833
      20    H13     19.602785   20.909689   23.033201 H          1 MOL1         0.0833
      21    C8      19.961121   20.003258   21.065321 C.3        1 MOL1        -0.1684
      22    H14     20.743607   19.292394   20.775416 H          1 MOL1         0.0833
      23    H15     19.852931   20.666775   20.196465 H          1 MOL1         0.0833
      24    O1      23.011761   18.645623   23.994767 O.3        1 MOL1        -0.5508
      25    H16     22.855800   19.099673   24.848282 H          1 MOL1         0.3780
@<TRIPOS>BOND
    1     1     2    1
    2     1     3    1
    3     1     4    1
    4     4     5    1
    5     4     6    1
    6     4     7    1
    7     7     8    1
    8     7     9    1
    9     7    10    1
   10    10    11    1
   11    10    12    1
   12    10    13    1
   13    13    14    1
   14    13    15    1
   15    15    16    1
   16    15    17    1
   17    15    18    1
   18    18    19    1
   19    18    20    1
   20     1    21    1
   21    18    21    1
   22    21    22    1
   23    21    23    1
   24    13    24    1
   25    24    25    1
@<TRIPOS>SUBSTRUCTURE
       1 MOL1            1 RESIDUE      1      MOL     
@<SCITEGIC>MOL_PROPERTY
VConf Rank
SciTegic.value.IntegerValue
768

@<SCITEGIC>MOL_PROPERTY
Conf_Id
SciTegic.value.IntegerValue
167

@<SCITEGIC>MOL_PROPERTY
Delta U+W
SciTegic.value.DoubleValue
0.388

@<SCITEGIC>MOL_PROPERTY
U+W
SciTegic.value.DoubleValue
11.301

@<SCITEGIC>MOL_PROPERTY
Grad RMS
SciTegic.value.DoubleValue
0.000000

@<SCITEGIC>MOL_PROPERTY
U
SciTegic.value.DoubleValue
13.202

@<SCITEGIC>MOL_PROPERTY
W
SciTegic.value.DoubleValue
-1.901

@<SCITEGIC>MOL_PROPERTY
W(PB)
SciTegic.value.DoubleValue
-4.065

@<SCITEGIC>MOL_PROPERTY
W(SA)
SciTegic.value.DoubleValue
2.163

@<SCITEGIC>MOL_PROPERTY
Valence
SciTegic.value.DoubleValue
18.957

@<SCITEGIC>MOL_PROPERTY
Coulomb
SciTegic.value.DoubleValue
-8.753

@<SCITEGIC>MOL_PROPERTY
VdW
SciTegic.value.DoubleValue
2.998

@<SCITEGIC>MOL_PROPERTY
VdW6
SciTegic.value.DoubleValue
-12.294

@<SCITEGIC>MOL_PROPERTY
VdW12
SciTegic.value.DoubleValue
15.292

@<SCITEGIC>MOL_PROPERTY
Bond
SciTegic.value.DoubleValue
0.419

@<SCITEGIC>MOL_PROPERTY
Angle
SciTegic.value.DoubleValue
4.543

@<SCITEGIC>MOL_PROPERTY
Pdih
SciTegic.value.DoubleValue
13.996

@<SCITEGIC>MOL_PROPERTY
Idih
SciTegic.value.DoubleValue
0.000

@<SCITEGIC>MOL_PROPERTY
Tether
SciTegic.value.DoubleValue
0.000

@<TRIPOS>MOLECULE
guest-s17_confgen4.mol2 : confsearch ligand conformer 769
          25          25           1
SMALL
USER_CHARGES
 
@<TRIPOS>ATOM
       1    C1      20.236998   17.980558   21.019885 C.3        1 MOL1        -0.1684
       2    H1      19.694381   18.261077   20.106989 H          1 MOL1         0.0833
       3    H2      20.683125   16.999010   20.809047 H          1 MOL1         0.0833
       4    C2      19.217155   17.796969   22.173800 C.3        1 MOL1        -0.1684
       5    H3      18.448614   18.577278   22.138221 H          1 MOL1         0.0833
       6    H4      18.669383   16.865793   21.974071 H          1 MOL1         0.0833
       7    C3      19.829000   17.700084   23.595455 C.3        1 MOL1        -0.1684
       8    H5      20.863059   17.334114   23.555964 H          1 MOL1         0.0833
       9    H6      19.272065   16.927175   24.142574 H          1 MOL1         0.0833
      10    C4      19.737645   19.003617   24.434922 C.3        1 MOL1        -0.1760
      11    H7      18.690189   19.327003   24.494080 H          1 MOL1         0.0833
      12    H8      20.029119   18.754755   25.463950 H          1 MOL1         0.0833
      13    C5      20.613639   20.195214   23.974336 C.3        1 MOL1         0.1219
      14    H9      21.655927   19.861051   23.884190 H          1 MOL1         0.0790
      15    C6      20.152695   20.842344   22.642615 C.3        1 MOL1        -0.1760
      16    H10     19.097643   20.615456   22.459143 H          1 MOL1         0.0833
      17    H11     20.183071   21.936010   22.737033 H          1 MOL1         0.0833
      18    C7      21.004647   20.467063   21.402411 C.3        1 MOL1        -0.1684
      19    H12     21.932345   21.054368   21.439752 H          1 MOL1         0.0833
      20    H13     20.479433   20.797489   20.496033 H          1 MOL1         0.0833
      21    C8      21.401094   18.977013   21.249280 C.3        1 MOL1        -0.1684
      22    H14     22.018037   18.653419   22.095339 H          1 MOL1         0.0833
      23    H15     22.067316   18.905290   20.378748 H          1 MOL1         0.0833
      24    O1      20.552399   21.184818   24.994677 O.3        1 MOL1        -0.5508
      25    H16     21.163033   21.902875   24.726280 H          1 MOL1         0.3780
@<TRIPOS>BOND
    1     1     2    1
    2     1     3    1
    3     1     4    1
    4     4     5    1
    5     4     6    1
    6     4     7    1
    7     7     8    1
    8     7     9    1
    9     7    10    1
   10    10    11    1
   11    10    12    1
   12    10    13    1
   13    13    14    1
   14    13    15    1
   15    15    16    1
   16    15    17    1
   17    15    18    1
   18    18    19    1
   19    18    20    1
   20     1    21    1
   21    18    21    1
   22    21    22    1
   23    21    23    1
   24    13    24    1
   25    24    25    1
@<TRIPOS>SUBSTRUCTURE
       1 MOL1            1 RESIDUE      1      MOL     
@<SCITEGIC>MOL_PROPERTY
VConf Rank
SciTegic.value.IntegerValue
769

@<SCITEGIC>MOL_PROPERTY
Conf_Id
SciTegic.value.IntegerValue
60

@<SCITEGIC>MOL_PROPERTY
Delta U+W
SciTegic.value.DoubleValue
-1.838

@<SCITEGIC>MOL_PROPERTY
U+W
SciTegic.value.DoubleValue
9.075

@<SCITEGIC>MOL_PROPERTY
Grad RMS
SciTegic.value.DoubleValue
0.000000

@<SCITEGIC>MOL_PROPERTY
U
SciTegic.value.DoubleValue
11.150

@<SCITEGIC>MOL_PROPERTY
W
SciTegic.value.DoubleValue
-2.074

@<SCITEGIC>MOL_PROPERTY
W(PB)
SciTegic.value.DoubleValue
-4.196

@<SCITEGIC>MOL_PROPERTY
W(SA)
SciTegic.value.DoubleValue
2.121

@<SCITEGIC>MOL_PROPERTY
Valence
SciTegic.value.DoubleValue
16.582

@<SCITEGIC>MOL_PROPERTY
Coulomb
SciTegic.value.DoubleValue
-8.361

@<SCITEGIC>MOL_PROPERTY
VdW
SciTegic.value.DoubleValue
2.928

@<SCITEGIC>MOL_PROPERTY
VdW6
SciTegic.value.DoubleValue
-12.539

@<SCITEGIC>MOL_PROPERTY
VdW12
SciTegic.value.DoubleValue
15.467

@<SCITEGIC>MOL_PROPERTY
Bond
SciTegic.value.DoubleValue
0.441

@<SCITEGIC>MOL_PROPERTY
Angle
SciTegic.value.DoubleValue
5.093

@<SCITEGIC>MOL_PROPERTY
Pdih
SciTegic.value.DoubleValue
11.049

@<SCITEGIC>MOL_PROPERTY
Idih
SciTegic.value.DoubleValue
0.000

@<SCITEGIC>MOL_PROPERTY
Tether
SciTegic.value.DoubleValue
0.000

@<TRIPOS>MOLECULE
guest-s17_confgen4.mol2 : confsearch ligand conformer 770
          25          25           1
SMALL
USER_CHARGES
 
@<TRIPOS>ATOM
       1    C1      20.127420   20.651881   21.213137 C.3        1 MOL1        -0.1684
       2    H1      20.240363   20.420521   20.145326 H          1 MOL1         0.0833
       3    H2      19.942083   21.733562   21.263483 H          1 MOL1         0.0833
       4    C2      21.468284   20.378996   21.939968 C.3        1 MOL1        -0.1684
       5    H3      22.222645   21.038734   21.489960 H          1 MOL1         0.0833
       6    H4      21.407574   20.703131   22.985146 H          1 MOL1         0.0833
       7    C3      22.012092   18.930924   21.849253 C.3        1 MOL1        -0.1684
       8    H5      23.011384   18.923308   22.305652 H          1 MOL1         0.0833
       9    H6      22.164720   18.666393   20.794133 H          1 MOL1         0.0833
      10    C4      21.169032   17.821168   22.529293 C.3        1 MOL1        -0.1760
      11    H7      20.345997   17.517123   21.874737 H          1 MOL1         0.0833
      12    H8      21.804978   16.928596   22.598788 H          1 MOL1         0.0833
      13    C5      20.626289   18.180424   23.936804 C.3        1 MOL1         0.1219
      14    H9      21.207773   19.011114   24.358686 H          1 MOL1         0.0790
      15    C6      19.122668   18.551961   23.958920 C.3        1 MOL1        -0.1760
      16    H10     18.542466   17.736556   23.507563 H          1 MOL1         0.0833
      17    H11     18.805953   18.594256   25.009484 H          1 MOL1         0.0833
      18    C7      18.722982   19.898496   23.296090 C.3        1 MOL1        -0.1684
      19    H12     19.261098   20.735409   23.759531 H          1 MOL1         0.0833
      20    H13     17.664551   20.071049   23.534530 H          1 MOL1         0.0833
      21    C8      18.864205   19.931407   21.752128 C.3        1 MOL1        -0.1684
      22    H14     17.992690   20.459200   21.341118 H          1 MOL1         0.0833
      23    H15     18.789667   18.919824   21.337463 H          1 MOL1         0.0833
      24    O1      20.794892   17.047886   24.781254 O.3        1 MOL1        -0.5508
      25    H16     21.756905   16.863770   24.815147 H          1 MOL1         0.3780
@<TRIPOS>BOND
    1     1     2    1
    2     1     3    1
    3     1     4    1
    4     4     5    1
    5     4     6    1
    6     4     7    1
    7     7     8    1
    8     7     9    1
    9     7    10    1
   10    10    11    1
   11    10    12    1
   12    10    13    1
   13    13    14    1
   14    13    15    1
   15    15    16    1
   16    15    17    1
   17    15    18    1
   18    18    19    1
   19    18    20    1
   20     1    21    1
   21    18    21    1
   22    21    22    1
   23    21    23    1
   24    13    24    1
   25    24    25    1
@<TRIPOS>SUBSTRUCTURE
       1 MOL1            1 RESIDUE      1      MOL     
@<SCITEGIC>MOL_PROPERTY
VConf Rank
SciTegic.value.IntegerValue
770

@<SCITEGIC>MOL_PROPERTY
Conf_Id
SciTegic.value.IntegerValue
129

@<SCITEGIC>MOL_PROPERTY
Delta U+W
SciTegic.value.DoubleValue
-1.846

@<SCITEGIC>MOL_PROPERTY
U+W
SciTegic.value.DoubleValue
9.067

@<SCITEGIC>MOL_PROPERTY
Grad RMS
SciTegic.value.DoubleValue
0.000000

@<SCITEGIC>MOL_PROPERTY
U
SciTegic.value.DoubleValue
11.150

@<SCITEGIC>MOL_PROPERTY
W
SciTegic.value.DoubleValue
-2.083

@<SCITEGIC>MOL_PROPERTY
W(PB)
SciTegic.value.DoubleValue
-4.217

@<SCITEGIC>MOL_PROPERTY
W(SA)
SciTegic.value.DoubleValue
2.134

@<SCITEGIC>MOL_PROPERTY
Valence
SciTegic.value.DoubleValue
16.583

@<SCITEGIC>MOL_PROPERTY
Coulomb
SciTegic.value.DoubleValue
-8.361

@<SCITEGIC>MOL_PROPERTY
VdW
SciTegic.value.DoubleValue
2.928

@<SCITEGIC>MOL_PROPERTY
VdW6
SciTegic.value.DoubleValue
-12.539

@<SCITEGIC>MOL_PROPERTY
VdW12
SciTegic.value.DoubleValue
15.467

@<SCITEGIC>MOL_PROPERTY
Bond
SciTegic.value.DoubleValue
0.441

@<SCITEGIC>MOL_PROPERTY
Angle
SciTegic.value.DoubleValue
5.093

@<SCITEGIC>MOL_PROPERTY
Pdih
SciTegic.value.DoubleValue
11.049

@<SCITEGIC>MOL_PROPERTY
Idih
SciTegic.value.DoubleValue
0.000

@<SCITEGIC>MOL_PROPERTY
Tether
SciTegic.value.DoubleValue
0.000

@<TRIPOS>MOLECULE
guest-s17_confgen4.mol2 : confsearch ligand conformer 771
          25          25           1
SMALL
USER_CHARGES
 
@<TRIPOS>ATOM
       1    C1      18.204924   19.311026   22.718770 C.3        1 MOL1        -0.1684
       2    H1      17.695923   20.053131   23.348615 H          1 MOL1         0.0833
       3    H2      17.404686   18.746066   22.221419 H          1 MOL1         0.0833
       4    C2      18.978801   18.318233   23.621926 C.3        1 MOL1        -0.1684
       5    H3      18.240979   17.821225   24.266448 H          1 MOL1         0.0833
       6    H4      19.407448   17.509183   23.019514 H          1 MOL1         0.0833
       7    C3      20.056081   18.935587   24.548538 C.3        1 MOL1        -0.1684
       8    H5      20.429001   18.134300   25.201164 H          1 MOL1         0.0833
       9    H6      19.583543   19.668122   25.216817 H          1 MOL1         0.0833
      10    C4      21.279772   19.596134   23.861856 C.3        1 MOL1        -0.1760
      11    H7      21.030221   20.613130   23.542511 H          1 MOL1         0.0833
      12    H8      22.047363   19.729403   24.636232 H          1 MOL1         0.0833
      13    C5      21.881040   18.793667   22.679021 C.3        1 MOL1         0.1219
      14    H9      21.572024   17.742317   22.750029 H          1 MOL1         0.0790
      15    C6      21.504626   19.343236   21.280026 C.3        1 MOL1        -0.1760
      16    H10     21.784633   20.402821   21.216057 H          1 MOL1         0.0833
      17    H11     22.128309   18.824939   20.539336 H          1 MOL1         0.0833
      18    C7      20.025437   19.179354   20.837122 C.3        1 MOL1        -0.1684
      19    H12     19.729756   18.122376   20.849889 H          1 MOL1         0.0833
      20    H13     19.971768   19.478953   19.781506 H          1 MOL1         0.0833
      21    C8      19.011660   20.052164   21.621344 C.3        1 MOL1        -0.1684
      22    H14     18.284008   20.457389   20.904848 H          1 MOL1         0.0833
      23    H15     19.506210   20.937316   22.036947 H          1 MOL1         0.0833
      24    O1      23.298345   18.842131   22.784189 O.3        1 MOL1        -0.5508
      25    H16     23.548814   19.786211   22.714036 H          1 MOL1         0.3780
@<TRIPOS>BOND
    1     1     2    1
    2     1     3    1
    3     1     4    1
    4     4     5    1
    5     4     6    1
    6     4     7    1
    7     7     8    1
    8     7     9    1
    9     7    10    1
   10    10    11    1
   11    10    12    1
   12    10    13    1
   13    13    14    1
   14    13    15    1
   15    15    16    1
   16    15    17    1
   17    15    18    1
   18    18    19    1
   19    18    20    1
   20     1    21    1
   21    18    21    1
   22    21    22    1
   23    21    23    1
   24    13    24    1
   25    24    25    1
@<TRIPOS>SUBSTRUCTURE
       1 MOL1            1 RESIDUE      1      MOL     
@<SCITEGIC>MOL_PROPERTY
VConf Rank
SciTegic.value.IntegerValue
771

@<SCITEGIC>MOL_PROPERTY
Conf_Id
SciTegic.value.IntegerValue
140

@<SCITEGIC>MOL_PROPERTY
Delta U+W
SciTegic.value.DoubleValue
-1.702

@<SCITEGIC>MOL_PROPERTY
U+W
SciTegic.value.DoubleValue
9.211

@<SCITEGIC>MOL_PROPERTY
Grad RMS
SciTegic.value.DoubleValue
0.000000

@<SCITEGIC>MOL_PROPERTY
U
SciTegic.value.DoubleValue
11.181

@<SCITEGIC>MOL_PROPERTY
W
SciTegic.value.DoubleValue
-1.969

@<SCITEGIC>MOL_PROPERTY
W(PB)
SciTegic.value.DoubleValue
-4.093

@<SCITEGIC>MOL_PROPERTY
W(SA)
SciTegic.value.DoubleValue
2.124

@<SCITEGIC>MOL_PROPERTY
Valence
SciTegic.value.DoubleValue
16.954

@<SCITEGIC>MOL_PROPERTY
Coulomb
SciTegic.value.DoubleValue
-8.661

@<SCITEGIC>MOL_PROPERTY
VdW
SciTegic.value.DoubleValue
2.887

@<SCITEGIC>MOL_PROPERTY
VdW6
SciTegic.value.DoubleValue
-12.561

@<SCITEGIC>MOL_PROPERTY
VdW12
SciTegic.value.DoubleValue
15.448

@<SCITEGIC>MOL_PROPERTY
Bond
SciTegic.value.DoubleValue
0.433

@<SCITEGIC>MOL_PROPERTY
Angle
SciTegic.value.DoubleValue
5.120

@<SCITEGIC>MOL_PROPERTY
Pdih
SciTegic.value.DoubleValue
11.401

@<SCITEGIC>MOL_PROPERTY
Idih
SciTegic.value.DoubleValue
0.000

@<SCITEGIC>MOL_PROPERTY
Tether
SciTegic.value.DoubleValue
0.000

@<TRIPOS>MOLECULE
guest-s17_confgen4.mol2 : confsearch ligand conformer 772
          25          25           1
SMALL
USER_CHARGES
 
@<TRIPOS>ATOM
       1    C1      22.171009   19.362400   21.843190 C.3        1 MOL1        -0.1684
       2    H1      22.315072   19.739348   20.821591 H          1 MOL1         0.0833
       3    H2      23.178547   19.145074   22.223398 H          1 MOL1         0.0833
       4    C2      21.391645   18.023383   21.779383 C.3        1 MOL1        -0.1684
       5    H3      20.590497   18.077954   21.033738 H          1 MOL1         0.0833
       6    H4      22.082632   17.267002   21.382550 H          1 MOL1         0.0833
       7    C3      20.840678   17.509063   23.134542 C.3        1 MOL1        -0.1684
       8    H5      21.429315   17.900054   23.974439 H          1 MOL1         0.0833
       9    H6      20.991786   16.421203   23.160874 H          1 MOL1         0.0833
      10    C4      19.325125   17.761593   23.358911 C.3        1 MOL1        -0.1760
      11    H7      18.759610   17.322838   22.526503 H          1 MOL1         0.0833
      12    H8      19.027018   17.196568   24.252283 H          1 MOL1         0.0833
      13    C5      18.883795   19.232698   23.563777 C.3        1 MOL1         0.1219
      14    H9      19.472844   19.677401   24.376878 H          1 MOL1         0.0790
      15    C6      18.997065   20.114789   22.293479 C.3        1 MOL1        -0.1760
      16    H10     18.986711   19.489320   21.395025 H          1 MOL1         0.0833
      17    H11     18.098451   20.740437   22.205880 H          1 MOL1         0.0833
      18    C7      20.217389   21.071494   22.265281 C.3        1 MOL1        -0.1684
      19    H12     19.988114   21.927751   22.914365 H          1 MOL1         0.0833
      20    H13     20.323151   21.485053   21.253213 H          1 MOL1         0.0833
      21    C8      21.577456   20.489308   22.725224 C.3        1 MOL1        -0.1684
      22    H14     21.523727   20.166601   23.771252 H          1 MOL1         0.0833
      23    H15     22.301116   21.315814   22.728254 H          1 MOL1         0.0833
      24    O1      17.521223   19.211890   23.970131 O.3        1 MOL1        -0.5508
      25    H16     17.018769   18.808578   23.232688 H          1 MOL1         0.3780
@<TRIPOS>BOND
    1     1     2    1
    2     1     3    1
    3     1     4    1
    4     4     5    1
    5     4     6    1
    6     4     7    1
    7     7     8    1
    8     7     9    1
    9     7    10    1
   10    10    11    1
   11    10    12    1
   12    10    13    1
   13    13    14    1
   14    13    15    1
   15    15    16    1
   16    15    17    1
   17    15    18    1
   18    18    19    1
   19    18    20    1
   20     1    21    1
   21    18    21    1
   22    21    22    1
   23    21    23    1
   24    13    24    1
   25    24    25    1
@<TRIPOS>SUBSTRUCTURE
       1 MOL1            1 RESIDUE      1      MOL     
@<SCITEGIC>MOL_PROPERTY
VConf Rank
SciTegic.value.IntegerValue
772

@<SCITEGIC>MOL_PROPERTY
Conf_Id
SciTegic.value.IntegerValue
68

@<SCITEGIC>MOL_PROPERTY
Delta U+W
SciTegic.value.DoubleValue
-1.765

@<SCITEGIC>MOL_PROPERTY
U+W
SciTegic.value.DoubleValue
9.148

@<SCITEGIC>MOL_PROPERTY
Grad RMS
SciTegic.value.DoubleValue
0.000000

@<SCITEGIC>MOL_PROPERTY
U
SciTegic.value.DoubleValue
11.181

@<SCITEGIC>MOL_PROPERTY
W
SciTegic.value.DoubleValue
-2.032

@<SCITEGIC>MOL_PROPERTY
W(PB)
SciTegic.value.DoubleValue
-4.147

@<SCITEGIC>MOL_PROPERTY
W(SA)
SciTegic.value.DoubleValue
2.114

@<SCITEGIC>MOL_PROPERTY
Valence
SciTegic.value.DoubleValue
16.955

@<SCITEGIC>MOL_PROPERTY
Coulomb
SciTegic.value.DoubleValue
-8.661

@<SCITEGIC>MOL_PROPERTY
VdW
SciTegic.value.DoubleValue
2.887

@<SCITEGIC>MOL_PROPERTY
VdW6
SciTegic.value.DoubleValue
-12.561

@<SCITEGIC>MOL_PROPERTY
VdW12
SciTegic.value.DoubleValue
15.448

@<SCITEGIC>MOL_PROPERTY
Bond
SciTegic.value.DoubleValue
0.433

@<SCITEGIC>MOL_PROPERTY
Angle
SciTegic.value.DoubleValue
5.121

@<SCITEGIC>MOL_PROPERTY
Pdih
SciTegic.value.DoubleValue
11.402

@<SCITEGIC>MOL_PROPERTY
Idih
SciTegic.value.DoubleValue
0.000

@<SCITEGIC>MOL_PROPERTY
Tether
SciTegic.value.DoubleValue
0.000

@<TRIPOS>MOLECULE
guest-s17_confgen4.mol2 : confsearch ligand conformer 773
          25          25           1
SMALL
USER_CHARGES
 
@<TRIPOS>ATOM
       1    C1      18.599324   19.506745   21.829174 C.3        1 MOL1        -0.1684
       2    H1      17.690889   19.680729   21.236256 H          1 MOL1         0.0833
       3    H2      18.337359   19.853987   22.835002 H          1 MOL1         0.0833
       4    C2      19.737247   20.374708   21.231615 C.3        1 MOL1        -0.1684
       5    H3      20.341978   19.798697   20.519488 H          1 MOL1         0.0833
       6    H4      19.267999   21.166992   20.632356 H          1 MOL1         0.0833
       7    C3      20.640540   21.075688   22.280087 C.3        1 MOL1        -0.1684
       8    H5      20.016908   21.682901   22.950495 H          1 MOL1         0.0833
       9    H6      21.279764   21.790953   21.744716 H          1 MOL1         0.0833
      10    C4      21.563577   20.160239   23.127737 C.3        1 MOL1        -0.1760
      11    H7      22.215758   19.567079   22.475526 H          1 MOL1         0.0833
      12    H8      22.239275   20.822550   23.685758 H          1 MOL1         0.0833
      13    C5      20.815827   19.251872   24.137998 C.3        1 MOL1         0.1219
      14    H9      19.815787   19.663663   24.316581 H          1 MOL1         0.0790
      15    C6      20.685307   17.770683   23.705460 C.3        1 MOL1        -0.1760
      16    H10     21.649374   17.272557   23.872857 H          1 MOL1         0.0833
      17    H11     19.970935   17.275669   24.376069 H          1 MOL1         0.0833
      18    C7      20.271461   17.495706   22.236725 C.3        1 MOL1        -0.1684
      19    H12     20.302662   16.407971   22.086454 H          1 MOL1         0.0833
      20    H13     21.024325   17.891834   21.545648 H          1 MOL1         0.0833
      21    C8      18.857459   17.977564   21.826176 C.3        1 MOL1        -0.1684
      22    H14     18.107705   17.488244   22.462588 H          1 MOL1         0.0833
      23    H15     18.668278   17.608575   20.808799 H          1 MOL1         0.0833
      24    O1      21.518140   19.275726   25.374473 O.3        1 MOL1        -0.5508
      25    H16     22.412719   18.921802   25.191838 H          1 MOL1         0.3780
@<TRIPOS>BOND
    1     1     2    1
    2     1     3    1
    3     1     4    1
    4     4     5    1
    5     4     6    1
    6     4     7    1
    7     7     8    1
    8     7     9    1
    9     7    10    1
   10    10    11    1
   11    10    12    1
   12    10    13    1
   13    13    14    1
   14    13    15    1
   15    15    16    1
   16    15    17    1
   17    15    18    1
   18    18    19    1
   19    18    20    1
   20     1    21    1
   21    18    21    1
   22    21    22    1
   23    21    23    1
   24    13    24    1
   25    24    25    1
@<TRIPOS>SUBSTRUCTURE
       1 MOL1            1 RESIDUE      1      MOL     
@<SCITEGIC>MOL_PROPERTY
VConf Rank
SciTegic.value.IntegerValue
773

@<SCITEGIC>MOL_PROPERTY
Conf_Id
SciTegic.value.IntegerValue
165

@<SCITEGIC>MOL_PROPERTY
Delta U+W
SciTegic.value.DoubleValue
-1.999

@<SCITEGIC>MOL_PROPERTY
U+W
SciTegic.value.DoubleValue
8.915

@<SCITEGIC>MOL_PROPERTY
Grad RMS
SciTegic.value.DoubleValue
0.000000

@<SCITEGIC>MOL_PROPERTY
U
SciTegic.value.DoubleValue
10.935

@<SCITEGIC>MOL_PROPERTY
W
SciTegic.value.DoubleValue
-2.020

@<SCITEGIC>MOL_PROPERTY
W(PB)
SciTegic.value.DoubleValue
-4.135

@<SCITEGIC>MOL_PROPERTY
W(SA)
SciTegic.value.DoubleValue
2.115

@<SCITEGIC>MOL_PROPERTY
Valence
SciTegic.value.DoubleValue
16.757

@<SCITEGIC>MOL_PROPERTY
Coulomb
SciTegic.value.DoubleValue
-8.731

@<SCITEGIC>MOL_PROPERTY
VdW
SciTegic.value.DoubleValue
2.908

@<SCITEGIC>MOL_PROPERTY
VdW6
SciTegic.value.DoubleValue
-12.597

@<SCITEGIC>MOL_PROPERTY
VdW12
SciTegic.value.DoubleValue
15.506

@<SCITEGIC>MOL_PROPERTY
Bond
SciTegic.value.DoubleValue
0.434

@<SCITEGIC>MOL_PROPERTY
Angle
SciTegic.value.DoubleValue
5.069

@<SCITEGIC>MOL_PROPERTY
Pdih
SciTegic.value.DoubleValue
11.254

@<SCITEGIC>MOL_PROPERTY
Idih
SciTegic.value.DoubleValue
0.000

@<SCITEGIC>MOL_PROPERTY
Tether
SciTegic.value.DoubleValue
0.000

@<TRIPOS>MOLECULE
guest-s17_confgen4.mol2 : confsearch ligand conformer 774
          25          25           1
SMALL
USER_CHARGES
 
@<TRIPOS>ATOM
       1    C1      18.883653   18.025088   22.748909 C.3        1 MOL1        -0.1684
       2    H1      18.036837   17.339974   22.892455 H          1 MOL1         0.0833
       3    H2      18.890690   18.225245   21.671556 H          1 MOL1         0.0833
       4    C2      20.163758   17.259528   23.174000 C.3        1 MOL1        -0.1684
       5    H3      19.929858   16.700633   24.090480 H          1 MOL1         0.0833
       6    H4      20.393624   16.499698   22.414798 H          1 MOL1         0.0833
       7    C3      21.433059   18.101235   23.458153 C.3        1 MOL1        -0.1684
       8    H5      22.203049   17.415046   23.836252 H          1 MOL1         0.0833
       9    H6      21.251786   18.796132   24.286132 H          1 MOL1         0.0833
      10    C4      22.039274   18.851245   22.244061 C.3        1 MOL1        -0.1760
      11    H7      22.982185   19.306320   22.576237 H          1 MOL1         0.0833
      12    H8      22.311780   18.117795   21.474315 H          1 MOL1         0.0833
      13    C5      21.172767   19.956129   21.591255 C.3        1 MOL1         0.1219
      14    H9      20.409225   19.489881   20.957632 H          1 MOL1         0.0790
      15    C6      20.478400   20.911109   22.596268 C.3        1 MOL1        -0.1760
      16    H10     21.004784   20.915504   23.558047 H          1 MOL1         0.0833
      17    H11     20.567736   21.938148   22.217136 H          1 MOL1         0.0833
      18    C7      18.965111   20.637314   22.805988 C.3        1 MOL1        -0.1684
      19    H12     18.452775   20.668691   21.834641 H          1 MOL1         0.0833
      20    H13     18.551205   21.474653   23.384191 H          1 MOL1         0.0833
      21    C8      18.590567   19.324620   23.543158 C.3        1 MOL1        -0.1684
      22    H14     17.508586   19.360072   23.730435 H          1 MOL1         0.0833
      23    H15     19.051459   19.292173   24.538715 H          1 MOL1         0.0833
      24    O1      22.025922   20.726172   20.751806 O.3        1 MOL1        -0.5508
      25    H16     22.415449   20.106185   20.100404 H          1 MOL1         0.3780
@<TRIPOS>BOND
    1     1     2    1
    2     1     3    1
    3     1     4    1
    4     4     5    1
    5     4     6    1
    6     4     7    1
    7     7     8    1
    8     7     9    1
    9     7    10    1
   10    10    11    1
   11    10    12    1
   12    10    13    1
   13    13    14    1
   14    13    15    1
   15    15    16    1
   16    15    17    1
   17    15    18    1
   18    18    19    1
   19    18    20    1
   20     1    21    1
   21    18    21    1
   22    21    22    1
   23    21    23    1
   24    13    24    1
   25    24    25    1
@<TRIPOS>SUBSTRUCTURE
       1 MOL1            1 RESIDUE      1      MOL     
@<SCITEGIC>MOL_PROPERTY
VConf Rank
SciTegic.value.IntegerValue
774

@<SCITEGIC>MOL_PROPERTY
Conf_Id
SciTegic.value.IntegerValue
133

@<SCITEGIC>MOL_PROPERTY
Delta U+W
SciTegic.value.DoubleValue
-2.139

@<SCITEGIC>MOL_PROPERTY
U+W
SciTegic.value.DoubleValue
8.774

@<SCITEGIC>MOL_PROPERTY
Grad RMS
SciTegic.value.DoubleValue
0.000000

@<SCITEGIC>MOL_PROPERTY
U
SciTegic.value.DoubleValue
10.905

@<SCITEGIC>MOL_PROPERTY
W
SciTegic.value.DoubleValue
-2.131

@<SCITEGIC>MOL_PROPERTY
W(PB)
SciTegic.value.DoubleValue
-4.281

@<SCITEGIC>MOL_PROPERTY
W(SA)
SciTegic.value.DoubleValue
2.150

@<SCITEGIC>MOL_PROPERTY
Valence
SciTegic.value.DoubleValue
16.378

@<SCITEGIC>MOL_PROPERTY
Coulomb
SciTegic.value.DoubleValue
-8.448

@<SCITEGIC>MOL_PROPERTY
VdW
SciTegic.value.DoubleValue
2.976

@<SCITEGIC>MOL_PROPERTY
VdW6
SciTegic.value.DoubleValue
-12.570

@<SCITEGIC>MOL_PROPERTY
VdW12
SciTegic.value.DoubleValue
15.545

@<SCITEGIC>MOL_PROPERTY
Bond
SciTegic.value.DoubleValue
0.439

@<SCITEGIC>MOL_PROPERTY
Angle
SciTegic.value.DoubleValue
5.049

@<SCITEGIC>MOL_PROPERTY
Pdih
SciTegic.value.DoubleValue
10.889

@<SCITEGIC>MOL_PROPERTY
Idih
SciTegic.value.DoubleValue
0.000

@<SCITEGIC>MOL_PROPERTY
Tether
SciTegic.value.DoubleValue
0.000

@<TRIPOS>MOLECULE
guest-s17_confgen4.mol2 : confsearch ligand conformer 775
          25          25           1
SMALL
USER_CHARGES
 
@<TRIPOS>ATOM
       1    C1      18.680428   18.430988   22.296119 C.3        1 MOL1        -0.1684
       2    H1      17.701488   17.949127   22.167387 H          1 MOL1         0.0833
       3    H2      19.132305   18.397405   21.298381 H          1 MOL1         0.0833
       4    C2      19.506102   17.582012   23.297630 C.3        1 MOL1        -0.1684
       5    H3      19.410087   17.971284   24.319324 H          1 MOL1         0.0833
       6    H4      19.056338   16.580188   23.330339 H          1 MOL1         0.0833
       7    C3      20.998714   17.395374   22.917961 C.3        1 MOL1        -0.1684
       8    H5      21.067034   16.958994   21.912032 H          1 MOL1         0.0833
       9    H6      21.423719   16.641940   23.595073 H          1 MOL1         0.0833
      10    C4      21.899293   18.657340   22.991362 C.3        1 MOL1        -0.1760
      11    H7      21.870536   19.091663   23.997670 H          1 MOL1         0.0833
      12    H8      22.935423   18.318766   22.855959 H          1 MOL1         0.0833
      13    C5      21.591153   19.732194   21.917154 C.3        1 MOL1         0.1219
      14    H9      21.035075   19.265334   21.095767 H          1 MOL1         0.0790
      15    C6      20.800232   20.957218   22.438218 C.3        1 MOL1        -0.1760
      16    H10     21.494657   21.603634   22.991784 H          1 MOL1         0.0833
      17    H11     20.458585   21.546735   21.577716 H          1 MOL1         0.0833
      18    C7      19.589438   20.675895   23.364966 C.3        1 MOL1        -0.1684
      19    H12     19.198025   21.647601   23.695544 H          1 MOL1         0.0833
      20    H13     19.918957   20.182861   24.286718 H          1 MOL1         0.0833
      21    C8      18.411665   19.895959   22.728652 C.3        1 MOL1        -0.1684
      22    H14     18.027079   20.457573   21.866531 H          1 MOL1         0.0833
      23    H15     17.593683   19.883000   23.461962 H          1 MOL1         0.0833
      24    O1      22.823617   20.212802   21.392218 O.3        1 MOL1        -0.5508
      25    H16     22.598738   20.855026   20.686941 H          1 MOL1         0.3780
@<TRIPOS>BOND
    1     1     2    1
    2     1     3    1
    3     1     4    1
    4     4     5    1
    5     4     6    1
    6     4     7    1
    7     7     8    1
    8     7     9    1
    9     7    10    1
   10    10    11    1
   11    10    12    1
   12    10    13    1
   13    13    14    1
   14    13    15    1
   15    15    16    1
   16    15    17    1
   17    15    18    1
   18    18    19    1
   19    18    20    1
   20     1    21    1
   21    18    21    1
   22    21    22    1
   23    21    23    1
   24    13    24    1
   25    24    25    1
@<TRIPOS>SUBSTRUCTURE
       1 MOL1            1 RESIDUE      1      MOL     
@<SCITEGIC>MOL_PROPERTY
VConf Rank
SciTegic.value.IntegerValue
775

@<SCITEGIC>MOL_PROPERTY
Conf_Id
SciTegic.value.IntegerValue
95

@<SCITEGIC>MOL_PROPERTY
Delta U+W
SciTegic.value.DoubleValue
-2.190

@<SCITEGIC>MOL_PROPERTY
U+W
SciTegic.value.DoubleValue
8.723

@<SCITEGIC>MOL_PROPERTY
Grad RMS
SciTegic.value.DoubleValue
0.000000

@<SCITEGIC>MOL_PROPERTY
U
SciTegic.value.DoubleValue
10.905

@<SCITEGIC>MOL_PROPERTY
W
SciTegic.value.DoubleValue
-2.182

@<SCITEGIC>MOL_PROPERTY
W(PB)
SciTegic.value.DoubleValue
-4.296

@<SCITEGIC>MOL_PROPERTY
W(SA)
SciTegic.value.DoubleValue
2.114

@<SCITEGIC>MOL_PROPERTY
Valence
SciTegic.value.DoubleValue
16.377

@<SCITEGIC>MOL_PROPERTY
Coulomb
SciTegic.value.DoubleValue
-8.448

@<SCITEGIC>MOL_PROPERTY
VdW
SciTegic.value.DoubleValue
2.976

@<SCITEGIC>MOL_PROPERTY
VdW6
SciTegic.value.DoubleValue
-12.570

@<SCITEGIC>MOL_PROPERTY
VdW12
SciTegic.value.DoubleValue
15.546

@<SCITEGIC>MOL_PROPERTY
Bond
SciTegic.value.DoubleValue
0.439

@<SCITEGIC>MOL_PROPERTY
Angle
SciTegic.value.DoubleValue
5.049

@<SCITEGIC>MOL_PROPERTY
Pdih
SciTegic.value.DoubleValue
10.889

@<SCITEGIC>MOL_PROPERTY
Idih
SciTegic.value.DoubleValue
0.000

@<SCITEGIC>MOL_PROPERTY
Tether
SciTegic.value.DoubleValue
0.000

@<TRIPOS>MOLECULE
guest-s17_confgen4.mol2 : confsearch ligand conformer 776
          25          25           1
SMALL
USER_CHARGES
 
@<TRIPOS>ATOM
       1    C1      18.815989   19.586261   21.669674 C.3        1 MOL1        -0.1684
       2    H1      17.922741   19.717886   21.043827 H          1 MOL1         0.0833
       3    H2      19.216628   20.601202   21.756959 H          1 MOL1         0.0833
       4    C2      19.793684   18.667171   20.879988 C.3        1 MOL1        -0.1684
       5    H3      19.184223   17.943944   20.321023 H          1 MOL1         0.0833
       6    H4      20.308265   19.266536   20.116812 H          1 MOL1         0.0833
       7    C3      20.840656   17.849984   21.681581 C.3        1 MOL1        -0.1684
       8    H5      21.351302   17.180789   20.975722 H          1 MOL1         0.0833
       9    H6      20.322226   17.161990   22.356801 H          1 MOL1         0.0833
      10    C4      21.944339   18.645598   22.440135 C.3        1 MOL1        -0.1760
      11    H7      22.365011   18.006166   23.227241 H          1 MOL1         0.0833
      12    H8      22.762485   18.817707   21.728602 H          1 MOL1         0.0833
      13    C5      21.569699   20.019958   23.050438 C.3        1 MOL1         0.1219
      14    H9      21.195533   20.658705   22.243705 H          1 MOL1         0.0790
      15    C6      20.549960   20.014977   24.225470 C.3        1 MOL1        -0.1760
      16    H10     21.108317   19.849682   25.156722 H          1 MOL1         0.0833
      17    H11     20.120938   21.021198   24.313490 H          1 MOL1         0.0833
      18    C7      19.396602   18.975656   24.201125 C.3        1 MOL1        -0.1684
      19    H12     18.856146   19.057603   25.153965 H          1 MOL1         0.0833
      20    H13     19.818738   17.966262   24.232696 H          1 MOL1         0.0833
      21    C8      18.340616   19.099071   23.063949 C.3        1 MOL1        -0.1684
      22    H14     17.571714   19.805780   23.404858 H          1 MOL1         0.0833
      23    H15     17.823892   18.136174   22.953178 H          1 MOL1         0.0833
      24    O1      22.769847   20.611247   23.534830 O.3        1 MOL1        -0.5508
      25    H16     23.383533   20.670398   22.773287 H          1 MOL1         0.3780
@<TRIPOS>BOND
    1     1     2    1
    2     1     3    1
    3     1     4    1
    4     4     5    1
    5     4     6    1
    6     4     7    1
    7     7     8    1
    8     7     9    1
    9     7    10    1
   10    10    11    1
   11    10    12    1
   12    10    13    1
   13    13    14    1
   14    13    15    1
   15    15    16    1
   16    15    17    1
   17    15    18    1
   18    18    19    1
   19    18    20    1
   20     1    21    1
   21    18    21    1
   22    21    22    1
   23    21    23    1
   24    13    24    1
   25    24    25    1
@<TRIPOS>SUBSTRUCTURE
       1 MOL1            1 RESIDUE      1      MOL     
@<SCITEGIC>MOL_PROPERTY
VConf Rank
SciTegic.value.IntegerValue
776

@<SCITEGIC>MOL_PROPERTY
Conf_Id
SciTegic.value.IntegerValue
161

@<SCITEGIC>MOL_PROPERTY
Delta U+W
SciTegic.value.DoubleValue
2.120

@<SCITEGIC>MOL_PROPERTY
U+W
SciTegic.value.DoubleValue
13.033

@<SCITEGIC>MOL_PROPERTY
Grad RMS
SciTegic.value.DoubleValue
0.000000

@<SCITEGIC>MOL_PROPERTY
U
SciTegic.value.DoubleValue
15.076

@<SCITEGIC>MOL_PROPERTY
W
SciTegic.value.DoubleValue
-2.043

@<SCITEGIC>MOL_PROPERTY
W(PB)
SciTegic.value.DoubleValue
-4.186

@<SCITEGIC>MOL_PROPERTY
W(SA)
SciTegic.value.DoubleValue
2.143

@<SCITEGIC>MOL_PROPERTY
Valence
SciTegic.value.DoubleValue
18.884

@<SCITEGIC>MOL_PROPERTY
Coulomb
SciTegic.value.DoubleValue
-8.074

@<SCITEGIC>MOL_PROPERTY
VdW
SciTegic.value.DoubleValue
4.266

@<SCITEGIC>MOL_PROPERTY
VdW6
SciTegic.value.DoubleValue
-13.486

@<SCITEGIC>MOL_PROPERTY
VdW12
SciTegic.value.DoubleValue
17.752

@<SCITEGIC>MOL_PROPERTY
Bond
SciTegic.value.DoubleValue
0.713

@<SCITEGIC>MOL_PROPERTY
Angle
SciTegic.value.DoubleValue
8.955

@<SCITEGIC>MOL_PROPERTY
Pdih
SciTegic.value.DoubleValue
9.215

@<SCITEGIC>MOL_PROPERTY
Idih
SciTegic.value.DoubleValue
0.000

@<SCITEGIC>MOL_PROPERTY
Tether
SciTegic.value.DoubleValue
0.000

@<TRIPOS>MOLECULE
guest-s17_confgen4.mol2 : confsearch ligand conformer 777
          25          25           1
SMALL
USER_CHARGES
 
@<TRIPOS>ATOM
       1    C1      20.356713   17.300756   23.174807 C.3        1 MOL1        -0.1684
       2    H1      20.168183   16.314776   23.621222 H          1 MOL1         0.0833
       3    H2      21.347717   17.212957   22.711734 H          1 MOL1         0.0833
       4    C2      20.398666   18.343935   24.319226 C.3        1 MOL1        -0.1684
       5    H3      19.389375   18.709440   24.551442 H          1 MOL1         0.0833
       6    H4      20.729737   17.812592   25.222132 H          1 MOL1         0.0833
       7    C3      21.387822   19.523054   24.103398 C.3        1 MOL1        -0.1684
       8    H5      22.306391   19.183884   23.605924 H          1 MOL1         0.0833
       9    H6      21.704692   19.857739   25.100784 H          1 MOL1         0.0833
      10    C4      20.795410   20.761265   23.382041 C.3        1 MOL1        -0.1760
      11    H7      19.741731   20.885266   23.660165 H          1 MOL1         0.0833
      12    H8      21.299603   21.651832   23.779926 H          1 MOL1         0.0833
      13    C5      20.971475   20.806733   21.842962 C.3        1 MOL1         0.1219
      14    H9      22.036300   20.978800   21.630088 H          1 MOL1         0.0790
      15    C6      20.541812   19.542353   21.063464 C.3        1 MOL1        -0.1760
      16    H10     20.502496   19.793550   19.995082 H          1 MOL1         0.0833
      17    H11     21.335782   18.791466   21.137916 H          1 MOL1         0.0833
      18    C7      19.173237   18.945811   21.488162 C.3        1 MOL1        -0.1684
      19    H12     18.518881   18.900403   20.606977 H          1 MOL1         0.0833
      20    H13     18.653032   19.606060   22.191410 H          1 MOL1         0.0833
      21    C8      19.266155   17.524901   22.094018 C.3        1 MOL1        -0.1684
      22    H14     19.437062   16.805497   21.281578 H          1 MOL1         0.0833
      23    H15     18.286557   17.267673   22.519463 H          1 MOL1         0.0833
      24    O1      20.222411   21.907983   21.348476 O.3        1 MOL1        -0.5508
      25    H16     19.281705   21.651331   21.432209 H          1 MOL1         0.3780
@<TRIPOS>BOND
    1     1     2    1
    2     1     3    1
    3     1     4    1
    4     4     5    1
    5     4     6    1
    6     4     7    1
    7     7     8    1
    8     7     9    1
    9     7    10    1
   10    10    11    1
   11    10    12    1
   12    10    13    1
   13    13    14    1
   14    13    15    1
   15    15    16    1
   16    15    17    1
   17    15    18    1
   18    18    19    1
   19    18    20    1
   20     1    21    1
   21    18    21    1
   22    21    22    1
   23    21    23    1
   24    13    24    1
   25    24    25    1
@<TRIPOS>SUBSTRUCTURE
       1 MOL1            1 RESIDUE      1      MOL     
@<SCITEGIC>MOL_PROPERTY
VConf Rank
SciTegic.value.IntegerValue
777

@<SCITEGIC>MOL_PROPERTY
Conf_Id
SciTegic.value.IntegerValue
164

@<SCITEGIC>MOL_PROPERTY
Delta U+W
SciTegic.value.DoubleValue
0.008

@<SCITEGIC>MOL_PROPERTY
U+W
SciTegic.value.DoubleValue
10.922

@<SCITEGIC>MOL_PROPERTY
Grad RMS
SciTegic.value.DoubleValue
0.000000

@<SCITEGIC>MOL_PROPERTY
U
SciTegic.value.DoubleValue
12.433

@<SCITEGIC>MOL_PROPERTY
W
SciTegic.value.DoubleValue
-1.511

@<SCITEGIC>MOL_PROPERTY
W(PB)
SciTegic.value.DoubleValue
-3.669

@<SCITEGIC>MOL_PROPERTY
W(SA)
SciTegic.value.DoubleValue
2.157

@<SCITEGIC>MOL_PROPERTY
Valence
SciTegic.value.DoubleValue
19.007

@<SCITEGIC>MOL_PROPERTY
Coulomb
SciTegic.value.DoubleValue
-9.373

@<SCITEGIC>MOL_PROPERTY
VdW
SciTegic.value.DoubleValue
2.799

@<SCITEGIC>MOL_PROPERTY
VdW6
SciTegic.value.DoubleValue
-12.597

@<SCITEGIC>MOL_PROPERTY
VdW12
SciTegic.value.DoubleValue
15.396

@<SCITEGIC>MOL_PROPERTY
Bond
SciTegic.value.DoubleValue
0.425

@<SCITEGIC>MOL_PROPERTY
Angle
SciTegic.value.DoubleValue
4.784

@<SCITEGIC>MOL_PROPERTY
Pdih
SciTegic.value.DoubleValue
13.799

@<SCITEGIC>MOL_PROPERTY
Idih
SciTegic.value.DoubleValue
0.000

@<SCITEGIC>MOL_PROPERTY
Tether
SciTegic.value.DoubleValue
0.000

@<TRIPOS>MOLECULE
guest-s17_confgen4.mol2 : confsearch ligand conformer 778
          25          25           1
SMALL
USER_CHARGES
 
@<TRIPOS>ATOM
       1    C1      20.812234   17.584639   23.277702 C.3        1 MOL1        -0.1684
       2    H1      19.945057   17.385511   22.637957 H          1 MOL1         0.0833
       3    H2      21.106487   16.597503   23.659343 H          1 MOL1         0.0833
       4    C2      20.397852   18.444420   24.497858 C.3        1 MOL1        -0.1684
       5    H3      19.638404   17.879459   25.055497 H          1 MOL1         0.0833
       6    H4      21.253630   18.543647   25.179258 H          1 MOL1         0.0833
       7    C3      19.820940   19.853338   24.206509 C.3        1 MOL1        -0.1684
       8    H5      20.630021   20.577051   24.055875 H          1 MOL1         0.0833
       9    H6      19.316236   20.192244   25.121616 H          1 MOL1         0.0833
      10    C4      18.802883   19.923756   23.037159 C.3        1 MOL1        -0.1760
      11    H7      18.324374   18.950509   22.874067 H          1 MOL1         0.0833
      12    H8      17.993072   20.596566   23.349844 H          1 MOL1         0.0833
      13    C5      19.371742   20.486826   21.710575 C.3        1 MOL1         0.1219
      14    H9      19.843920   21.456286   21.924574 H          1 MOL1         0.0790
      15    C6      20.403431   19.600936   20.968083 C.3        1 MOL1        -0.1760
      16    H10     19.977560   18.617076   20.736927 H          1 MOL1         0.0833
      17    H11     20.589062   20.072983   19.993942 H          1 MOL1         0.0833
      18    C7      21.775045   19.459191   21.680379 C.3        1 MOL1        -0.1684
      19    H12     21.951483   20.310520   22.347592 H          1 MOL1         0.0833
      20    H13     22.565438   19.536850   20.921267 H          1 MOL1         0.0833
      21    C8      21.994657   18.122342   22.433620 C.3        1 MOL1        -0.1684
      22    H14     22.883698   18.214857   23.072020 H          1 MOL1         0.0833
      23    H15     22.242914   17.354120   21.688567 H          1 MOL1         0.0833
      24    O1      18.277519   20.703645   20.830311 O.3        1 MOL1        -0.5508
      25    H16     17.880984   19.824532   20.660881 H          1 MOL1         0.3780
@<TRIPOS>BOND
    1     1     2    1
    2     1     3    1
    3     1     4    1
    4     4     5    1
    5     4     6    1
    6     4     7    1
    7     7     8    1
    8     7     9    1
    9     7    10    1
   10    10    11    1
   11    10    12    1
   12    10    13    1
   13    13    14    1
   14    13    15    1
   15    15    16    1
   16    15    17    1
   17    15    18    1
   18    18    19    1
   19    18    20    1
   20     1    21    1
   21    18    21    1
   22    21    22    1
   23    21    23    1
   24    13    24    1
   25    24    25    1
@<TRIPOS>SUBSTRUCTURE
       1 MOL1            1 RESIDUE      1      MOL     
@<SCITEGIC>MOL_PROPERTY
VConf Rank
SciTegic.value.IntegerValue
778

@<SCITEGIC>MOL_PROPERTY
Conf_Id
SciTegic.value.IntegerValue
15

@<SCITEGIC>MOL_PROPERTY
Delta U+W
SciTegic.value.DoubleValue
-1.271

@<SCITEGIC>MOL_PROPERTY
U+W
SciTegic.value.DoubleValue
9.643

@<SCITEGIC>MOL_PROPERTY
Grad RMS
SciTegic.value.DoubleValue
0.000000

@<SCITEGIC>MOL_PROPERTY
U
SciTegic.value.DoubleValue
11.413

@<SCITEGIC>MOL_PROPERTY
W
SciTegic.value.DoubleValue
-1.770

@<SCITEGIC>MOL_PROPERTY
W(PB)
SciTegic.value.DoubleValue
-3.908

@<SCITEGIC>MOL_PROPERTY
W(SA)
SciTegic.value.DoubleValue
2.138

@<SCITEGIC>MOL_PROPERTY
Valence
SciTegic.value.DoubleValue
17.496

@<SCITEGIC>MOL_PROPERTY
Coulomb
SciTegic.value.DoubleValue
-8.736

@<SCITEGIC>MOL_PROPERTY
VdW
SciTegic.value.DoubleValue
2.653

@<SCITEGIC>MOL_PROPERTY
VdW6
SciTegic.value.DoubleValue
-12.485

@<SCITEGIC>MOL_PROPERTY
VdW12
SciTegic.value.DoubleValue
15.138

@<SCITEGIC>MOL_PROPERTY
Bond
SciTegic.value.DoubleValue
0.414

@<SCITEGIC>MOL_PROPERTY
Angle
SciTegic.value.DoubleValue
5.295

@<SCITEGIC>MOL_PROPERTY
Pdih
SciTegic.value.DoubleValue
11.787

@<SCITEGIC>MOL_PROPERTY
Idih
SciTegic.value.DoubleValue
0.000

@<SCITEGIC>MOL_PROPERTY
Tether
SciTegic.value.DoubleValue
0.000

@<TRIPOS>MOLECULE
guest-s17_confgen4.mol2 : confsearch ligand conformer 779
          25          25           1
SMALL
USER_CHARGES
 
@<TRIPOS>ATOM
       1    C1      19.272888   17.923697   23.566008 C.3        1 MOL1        -0.1684
       2    H1      18.803798   17.192670   24.238716 H          1 MOL1         0.0833
       3    H2      18.958899   17.619255   22.559583 H          1 MOL1         0.0833
       4    C2      18.684227   19.313262   23.925747 C.3        1 MOL1        -0.1684
       5    H3      17.617969   19.310549   23.661337 H          1 MOL1         0.0833
       6    H4      18.721010   19.443390   25.015925 H          1 MOL1         0.0833
       7    C3      19.354997   20.542919   23.267459 C.3        1 MOL1        -0.1684
       8    H5      20.285171   20.780494   23.796709 H          1 MOL1         0.0833
       9    H6      18.707214   21.414380   23.433950 H          1 MOL1         0.0833
      10    C4      19.602973   20.390135   21.744101 C.3        1 MOL1        -0.1760
      11    H7      19.112549   19.490406   21.356336 H          1 MOL1         0.0833
      12    H8      19.111194   21.224473   21.227158 H          1 MOL1         0.0833
      13    C5      21.093296   20.400767   21.332892 C.3        1 MOL1         0.1219
      14    H9      21.454908   21.435330   21.420904 H          1 MOL1         0.0790
      15    C6      22.049309   19.510860   22.168705 C.3        1 MOL1        -0.1760
      16    H10     23.015809   19.500838   21.647062 H          1 MOL1         0.0833
      17    H11     22.263234   19.990948   23.131131 H          1 MOL1         0.0833
      18    C7      21.615619   18.039039   22.402577 C.3        1 MOL1        -0.1684
      19    H12     22.537413   17.446267   22.480426 H          1 MOL1         0.0833
      20    H13     21.087454   17.637251   21.528266 H          1 MOL1         0.0833
      21    C8      20.809044   17.785047   23.705920 C.3        1 MOL1        -0.1684
      22    H14     21.183371   18.404342   24.532079 H          1 MOL1         0.0833
      23    H15     21.009305   16.747499   24.006859 H          1 MOL1         0.0833
      24    O1      21.180785   20.001691   19.972197 O.3        1 MOL1        -0.5508
      25    H16     20.942205   19.053036   19.955589 H          1 MOL1         0.3780
@<TRIPOS>BOND
    1     1     2    1
    2     1     3    1
    3     1     4    1
    4     4     5    1
    5     4     6    1
    6     4     7    1
    7     7     8    1
    8     7     9    1
    9     7    10    1
   10    10    11    1
   11    10    12    1
   12    10    13    1
   13    13    14    1
   14    13    15    1
   15    15    16    1
   16    15    17    1
   17    15    18    1
   18    18    19    1
   19    18    20    1
   20     1    21    1
   21    18    21    1
   22    21    22    1
   23    21    23    1
   24    13    24    1
   25    24    25    1
@<TRIPOS>SUBSTRUCTURE
       1 MOL1            1 RESIDUE      1      MOL     
@<SCITEGIC>MOL_PROPERTY
VConf Rank
SciTegic.value.IntegerValue
779

@<SCITEGIC>MOL_PROPERTY
Conf_Id
SciTegic.value.IntegerValue
115

@<SCITEGIC>MOL_PROPERTY
Delta U+W
SciTegic.value.DoubleValue
0.038

@<SCITEGIC>MOL_PROPERTY
U+W
SciTegic.value.DoubleValue
10.952

@<SCITEGIC>MOL_PROPERTY
Grad RMS
SciTegic.value.DoubleValue
0.000000

@<SCITEGIC>MOL_PROPERTY
U
SciTegic.value.DoubleValue
12.526

@<SCITEGIC>MOL_PROPERTY
W
SciTegic.value.DoubleValue
-1.575

@<SCITEGIC>MOL_PROPERTY
W(PB)
SciTegic.value.DoubleValue
-3.698

@<SCITEGIC>MOL_PROPERTY
W(SA)
SciTegic.value.DoubleValue
2.123

@<SCITEGIC>MOL_PROPERTY
Valence
SciTegic.value.DoubleValue
19.016

@<SCITEGIC>MOL_PROPERTY
Coulomb
SciTegic.value.DoubleValue
-9.226

@<SCITEGIC>MOL_PROPERTY
VdW
SciTegic.value.DoubleValue
2.737

@<SCITEGIC>MOL_PROPERTY
VdW6
SciTegic.value.DoubleValue
-12.612

@<SCITEGIC>MOL_PROPERTY
VdW12
SciTegic.value.DoubleValue
15.349

@<SCITEGIC>MOL_PROPERTY
Bond
SciTegic.value.DoubleValue
0.421

@<SCITEGIC>MOL_PROPERTY
Angle
SciTegic.value.DoubleValue
4.883

@<SCITEGIC>MOL_PROPERTY
Pdih
SciTegic.value.DoubleValue
13.711

@<SCITEGIC>MOL_PROPERTY
Idih
SciTegic.value.DoubleValue
0.000

@<SCITEGIC>MOL_PROPERTY
Tether
SciTegic.value.DoubleValue
0.000

@<TRIPOS>MOLECULE
guest-s17_confgen4.mol2 : confsearch ligand conformer 780
          25          25           1
SMALL
USER_CHARGES
 
@<TRIPOS>ATOM
       1    C1      21.309211   17.928432   21.289978 C.3        1 MOL1        -0.1684
       2    H1      22.128836   17.269060   20.973073 H          1 MOL1         0.0833
       3    H2      20.488585   17.737021   20.585413 H          1 MOL1         0.0833
       4    C2      21.806798   19.385207   21.142501 C.3        1 MOL1        -0.1684
       5    H3      22.703939   19.541325   21.756797 H          1 MOL1         0.0833
       6    H4      22.135135   19.516323   20.102307 H          1 MOL1         0.0833
       7    C3      20.752944   20.474188   21.449759 C.3        1 MOL1        -0.1684
       8    H5      19.780325   20.194709   21.023285 H          1 MOL1         0.0833
       9    H6      21.055248   21.384484   20.913908 H          1 MOL1         0.0833
      10    C4      20.630009   20.838015   22.953906 C.3        1 MOL1        -0.1760
      11    H7      21.472423   20.437053   23.531295 H          1 MOL1         0.0833
      12    H8      20.714178   21.930260   23.034381 H          1 MOL1         0.0833
      13    C5      19.294203   20.416007   23.606200 C.3        1 MOL1         0.1219
      14    H9      18.486102   20.533173   22.870051 H          1 MOL1         0.0790
      15    C6      19.271423   18.970515   24.150685 C.3        1 MOL1        -0.1760
      16    H10     20.033062   18.852871   24.932769 H          1 MOL1         0.0833
      17    H11     18.305165   18.820002   24.649789 H          1 MOL1         0.0833
      18    C7      19.424946   17.857182   23.085984 C.3        1 MOL1        -0.1684
      19    H12     18.835694   18.099266   22.191440 H          1 MOL1         0.0833
      20    H13     18.967969   16.946535   23.497231 H          1 MOL1         0.0833
      21    C8      20.893094   17.514546   22.721090 C.3        1 MOL1        -0.1684
      22    H14     21.002321   16.423428   22.789904 H          1 MOL1         0.0833
      23    H15     21.596867   17.923475   23.458184 H          1 MOL1         0.0833
      24    O1      19.043920   21.288972   24.701161 O.3        1 MOL1        -0.5508
      25    H16     18.169443   21.040708   25.067207 H          1 MOL1         0.3780
@<TRIPOS>BOND
    1     1     2    1
    2     1     3    1
    3     1     4    1
    4     4     5    1
    5     4     6    1
    6     4     7    1
    7     7     8    1
    8     7     9    1
    9     7    10    1
   10    10    11    1
   11    10    12    1
   12    10    13    1
   13    13    14    1
   14    13    15    1
   15    15    16    1
   16    15    17    1
   17    15    18    1
   18    18    19    1
   19    18    20    1
   20     1    21    1
   21    18    21    1
   22    21    22    1
   23    21    23    1
   24    13    24    1
   25    24    25    1
@<TRIPOS>SUBSTRUCTURE
       1 MOL1            1 RESIDUE      1      MOL     
@<SCITEGIC>MOL_PROPERTY
VConf Rank
SciTegic.value.IntegerValue
780

@<SCITEGIC>MOL_PROPERTY
Conf_Id
SciTegic.value.IntegerValue
30

@<SCITEGIC>MOL_PROPERTY
Delta U+W
SciTegic.value.DoubleValue
0.000

@<SCITEGIC>MOL_PROPERTY
U+W
SciTegic.value.DoubleValue
10.913

@<SCITEGIC>MOL_PROPERTY
Grad RMS
SciTegic.value.DoubleValue
0.000000

@<SCITEGIC>MOL_PROPERTY
U
SciTegic.value.DoubleValue
13.140

@<SCITEGIC>MOL_PROPERTY
W
SciTegic.value.DoubleValue
-2.227

@<SCITEGIC>MOL_PROPERTY
W(PB)
SciTegic.value.DoubleValue
-4.367

@<SCITEGIC>MOL_PROPERTY
W(SA)
SciTegic.value.DoubleValue
2.140

@<SCITEGIC>MOL_PROPERTY
Valence
SciTegic.value.DoubleValue
19.155

@<SCITEGIC>MOL_PROPERTY
Coulomb
SciTegic.value.DoubleValue
-8.157

@<SCITEGIC>MOL_PROPERTY
VdW
SciTegic.value.DoubleValue
2.142

@<SCITEGIC>MOL_PROPERTY
VdW6
SciTegic.value.DoubleValue
-11.576

@<SCITEGIC>MOL_PROPERTY
VdW12
SciTegic.value.DoubleValue
13.718

@<SCITEGIC>MOL_PROPERTY
Bond
SciTegic.value.DoubleValue
0.294

@<SCITEGIC>MOL_PROPERTY
Angle
SciTegic.value.DoubleValue
3.547

@<SCITEGIC>MOL_PROPERTY
Pdih
SciTegic.value.DoubleValue
15.314

@<SCITEGIC>MOL_PROPERTY
Idih
SciTegic.value.DoubleValue
0.000

@<SCITEGIC>MOL_PROPERTY
Tether
SciTegic.value.DoubleValue
0.000

@<TRIPOS>MOLECULE
guest-s17_confgen4.mol2 : confsearch ligand conformer 781
          25          25           1
SMALL
USER_CHARGES
 
@<TRIPOS>ATOM
       1    C1      20.914202   19.990785   20.746311 C.3        1 MOL1        -0.1684
       2    H1      21.850153   19.910806   20.176702 H          1 MOL1         0.0833
       3    H2      20.260853   20.645039   20.153134 H          1 MOL1         0.0833
       4    C2      21.216364   20.697408   22.090731 C.3        1 MOL1        -0.1684
       5    H3      21.878760   21.549061   21.883877 H          1 MOL1         0.0833
       6    H4      20.298394   21.149877   22.483359 H          1 MOL1         0.0833
       7    C3      21.891027   19.792460   23.152664 C.3        1 MOL1        -0.1684
       8    H5      22.828056   20.266029   23.475764 H          1 MOL1         0.0833
       9    H6      22.197765   18.834892   22.716074 H          1 MOL1         0.0833
      10    C4      21.022514   19.538704   24.410778 C.3        1 MOL1        -0.1760
      11    H7      21.497856   18.748185   25.006505 H          1 MOL1         0.0833
      12    H8      21.044262   20.441116   25.035555 H          1 MOL1         0.0833
      13    C5      19.537248   19.167926   24.172693 C.3        1 MOL1         0.1219
      14    H9      18.997192   20.053069   23.810966 H          1 MOL1         0.0790
      15    C6      19.301274   18.004125   23.179124 C.3        1 MOL1        -0.1760
      16    H10     20.133958   17.290491   23.222869 H          1 MOL1         0.0833
      17    H11     18.419702   17.442017   23.515071 H          1 MOL1         0.0833
      18    C7      19.021371   18.440258   21.713111 C.3        1 MOL1        -0.1684
      19    H12     18.416798   19.356645   21.679214 H          1 MOL1         0.0833
      20    H13     18.392665   17.659768   21.262777 H          1 MOL1         0.0833
      21    C8      20.277597   18.577213   20.817600 C.3        1 MOL1        -0.1684
      22    H14     19.992421   18.303349   19.792544 H          1 MOL1         0.0833
      23    H15     21.027512   17.830145   21.107165 H          1 MOL1         0.0833
      24    O1      18.988827   18.800771   25.433109 O.3        1 MOL1        -0.5508
      25    H16     18.031862   18.645161   25.290077 H          1 MOL1         0.3780
@<TRIPOS>BOND
    1     1     2    1
    2     1     3    1
    3     1     4    1
    4     4     5    1
    5     4     6    1
    6     4     7    1
    7     7     8    1
    8     7     9    1
    9     7    10    1
   10    10    11    1
   11    10    12    1
   12    10    13    1
   13    13    14    1
   14    13    15    1
   15    15    16    1
   16    15    17    1
   17    15    18    1
   18    18    19    1
   19    18    20    1
   20     1    21    1
   21    18    21    1
   22    21    22    1
   23    21    23    1
   24    13    24    1
   25    24    25    1
@<TRIPOS>SUBSTRUCTURE
       1 MOL1            1 RESIDUE      1      MOL     
@<SCITEGIC>MOL_PROPERTY
VConf Rank
SciTegic.value.IntegerValue
781

@<SCITEGIC>MOL_PROPERTY
Conf_Id
SciTegic.value.IntegerValue
162

@<SCITEGIC>MOL_PROPERTY
Delta U+W
SciTegic.value.DoubleValue
0.219

@<SCITEGIC>MOL_PROPERTY
U+W
SciTegic.value.DoubleValue
11.132

@<SCITEGIC>MOL_PROPERTY
Grad RMS
SciTegic.value.DoubleValue
0.000000

@<SCITEGIC>MOL_PROPERTY
U
SciTegic.value.DoubleValue
13.296

@<SCITEGIC>MOL_PROPERTY
W
SciTegic.value.DoubleValue
-2.164

@<SCITEGIC>MOL_PROPERTY
W(PB)
SciTegic.value.DoubleValue
-4.311

@<SCITEGIC>MOL_PROPERTY
W(SA)
SciTegic.value.DoubleValue
2.148

@<SCITEGIC>MOL_PROPERTY
Valence
SciTegic.value.DoubleValue
18.607

@<SCITEGIC>MOL_PROPERTY
Coulomb
SciTegic.value.DoubleValue
-8.339

@<SCITEGIC>MOL_PROPERTY
VdW
SciTegic.value.DoubleValue
3.028

@<SCITEGIC>MOL_PROPERTY
VdW6
SciTegic.value.DoubleValue
-12.271

@<SCITEGIC>MOL_PROPERTY
VdW12
SciTegic.value.DoubleValue
15.299

@<SCITEGIC>MOL_PROPERTY
Bond
SciTegic.value.DoubleValue
0.423

@<SCITEGIC>MOL_PROPERTY
Angle
SciTegic.value.DoubleValue
4.488

@<SCITEGIC>MOL_PROPERTY
Pdih
SciTegic.value.DoubleValue
13.696

@<SCITEGIC>MOL_PROPERTY
Idih
SciTegic.value.DoubleValue
0.000

@<SCITEGIC>MOL_PROPERTY
Tether
SciTegic.value.DoubleValue
0.000

@<TRIPOS>MOLECULE
guest-s17_confgen4.mol2 : confsearch ligand conformer 782
          25          25           1
SMALL
USER_CHARGES
 
@<TRIPOS>ATOM
       1    C1      21.227597   17.523036   22.105562 C.3        1 MOL1        -0.1684
       2    H1      21.826845   18.116537   21.403527 H          1 MOL1         0.0833
       3    H2      21.595761   16.494684   21.987599 H          1 MOL1         0.0833
       4    C2      21.518951   17.971300   23.559479 C.3        1 MOL1        -0.1684
       5    H3      20.706705   17.664658   24.232130 H          1 MOL1         0.0833
       6    H4      22.401653   17.409690   23.894992 H          1 MOL1         0.0833
       7    C3      21.852486   19.479364   23.732850 C.3        1 MOL1        -0.1684
       8    H5      22.446154   19.854170   22.888311 H          1 MOL1         0.0833
       9    H6      22.510795   19.559930   24.608789 H          1 MOL1         0.0833
      10    C4      20.633608   20.399749   24.001950 C.3        1 MOL1        -0.1760
      11    H7      19.880662   19.861203   24.590451 H          1 MOL1         0.0833
      12    H8      20.968557   21.218009   24.652699 H          1 MOL1         0.0833
      13    C5      19.983626   21.061365   22.760534 C.3        1 MOL1         0.1219
      14    H9      20.681384   21.821313   22.380136 H          1 MOL1         0.0790
      15    C6      19.642696   20.119022   21.581632 C.3        1 MOL1        -0.1760
      16    H10     19.006949   20.663565   20.871493 H          1 MOL1         0.0833
      17    H11     20.558607   19.906627   21.019874 H          1 MOL1         0.0833
      18    C7      18.924698   18.804628   21.987001 C.3        1 MOL1        -0.1684
      19    H12     17.969054   18.743843   21.449034 H          1 MOL1         0.0833
      20    H13     18.647135   18.821198   23.047564 H          1 MOL1         0.0833
      21    C8      19.734246   17.520727   21.683667 C.3        1 MOL1        -0.1684
      22    H14     19.684555   17.319710   20.604843 H          1 MOL1         0.0833
      23    H15     19.229682   16.674021   22.168658 H          1 MOL1         0.0833
      24    O1      18.788341   21.704603   23.186727 O.3        1 MOL1        -0.5508
      25    H16     18.389963   22.114369   22.391425 H          1 MOL1         0.3780
@<TRIPOS>BOND
    1     1     2    1
    2     1     3    1
    3     1     4    1
    4     4     5    1
    5     4     6    1
    6     4     7    1
    7     7     8    1
    8     7     9    1
    9     7    10    1
   10    10    11    1
   11    10    12    1
   12    10    13    1
   13    13    14    1
   14    13    15    1
   15    15    16    1
   16    15    17    1
   17    15    18    1
   18    18    19    1
   19    18    20    1
   20     1    21    1
   21    18    21    1
   22    21    22    1
   23    21    23    1
   24    13    24    1
   25    24    25    1
@<TRIPOS>SUBSTRUCTURE
       1 MOL1            1 RESIDUE      1      MOL     
@<SCITEGIC>MOL_PROPERTY
VConf Rank
SciTegic.value.IntegerValue
782

@<SCITEGIC>MOL_PROPERTY
Conf_Id
SciTegic.value.IntegerValue
155

@<SCITEGIC>MOL_PROPERTY
Delta U+W
SciTegic.value.DoubleValue
0.339

@<SCITEGIC>MOL_PROPERTY
U+W
SciTegic.value.DoubleValue
11.252

@<SCITEGIC>MOL_PROPERTY
Grad RMS
SciTegic.value.DoubleValue
0.000000

@<SCITEGIC>MOL_PROPERTY
U
SciTegic.value.DoubleValue
13.420

@<SCITEGIC>MOL_PROPERTY
W
SciTegic.value.DoubleValue
-2.167

@<SCITEGIC>MOL_PROPERTY
W(PB)
SciTegic.value.DoubleValue
-4.325

@<SCITEGIC>MOL_PROPERTY
W(SA)
SciTegic.value.DoubleValue
2.157

@<SCITEGIC>MOL_PROPERTY
Valence
SciTegic.value.DoubleValue
18.609

@<SCITEGIC>MOL_PROPERTY
Coulomb
SciTegic.value.DoubleValue
-8.052

@<SCITEGIC>MOL_PROPERTY
VdW
SciTegic.value.DoubleValue
2.863

@<SCITEGIC>MOL_PROPERTY
VdW6
SciTegic.value.DoubleValue
-12.524

@<SCITEGIC>MOL_PROPERTY
VdW12
SciTegic.value.DoubleValue
15.387

@<SCITEGIC>MOL_PROPERTY
Bond
SciTegic.value.DoubleValue
0.430

@<SCITEGIC>MOL_PROPERTY
Angle
SciTegic.value.DoubleValue
4.724

@<SCITEGIC>MOL_PROPERTY
Pdih
SciTegic.value.DoubleValue
13.455

@<SCITEGIC>MOL_PROPERTY
Idih
SciTegic.value.DoubleValue
0.000

@<SCITEGIC>MOL_PROPERTY
Tether
SciTegic.value.DoubleValue
0.000

@<TRIPOS>MOLECULE
guest-s17_confgen4.mol2 : confsearch ligand conformer 783
          25          25           1
SMALL
USER_CHARGES
 
@<TRIPOS>ATOM
       1    C1      22.118533   19.462043   21.754325 C.3        1 MOL1        -0.1684
       2    H1      22.827571   20.106069   22.291759 H          1 MOL1         0.0833
       3    H2      22.648826   19.134726   20.849650 H          1 MOL1         0.0833
       4    C2      21.841280   18.190732   22.599144 C.3        1 MOL1        -0.1684
       5    H3      21.228924   17.495633   22.016052 H          1 MOL1         0.0833
       6    H4      22.793909   17.656664   22.717408 H          1 MOL1         0.0833
       7    C3      21.248352   18.388842   24.024768 C.3        1 MOL1        -0.1684
       8    H5      22.090094   18.551848   24.711393 H          1 MOL1         0.0833
       9    H6      20.781754   17.449052   24.350039 H          1 MOL1         0.0833
      10    C4      20.248718   19.556404   24.247106 C.3        1 MOL1        -0.1760
      11    H7      20.055852   19.622038   25.325898 H          1 MOL1         0.0833
      12    H8      20.747983   20.503861   24.026167 H          1 MOL1         0.0833
      13    C5      18.873234   19.488352   23.520665 C.3        1 MOL1         0.1219
      14    H9      18.488463   20.514717   23.435254 H          1 MOL1         0.0790
      15    C6      18.834527   18.846705   22.110938 C.3        1 MOL1        -0.1760
      16    H10     19.154552   17.803298   22.184463 H          1 MOL1         0.0833
      17    H11     17.780918   18.773732   21.810589 H          1 MOL1         0.0833
      18    C7      19.585420   19.576926   20.957144 C.3        1 MOL1        -0.1684
      19    H12     18.896272   20.321533   20.535870 H          1 MOL1         0.0833
      20    H13     19.773064   18.860282   20.146259 H          1 MOL1         0.0833
      21    C8      20.903844   20.321152   21.295634 C.3        1 MOL1        -0.1684
      22    H14     20.696391   21.118374   22.016312 H          1 MOL1         0.0833
      23    H15     21.217094   20.866035   20.394604 H          1 MOL1         0.0833
      24    O1      17.983490   18.738998   24.341037 O.3        1 MOL1        -0.5508
      25    H16     17.969660   19.176856   25.217012 H          1 MOL1         0.3780
@<TRIPOS>BOND
    1     1     2    1
    2     1     3    1
    3     1     4    1
    4     4     5    1
    5     4     6    1
    6     4     7    1
    7     7     8    1
    8     7     9    1
    9     7    10    1
   10    10    11    1
   11    10    12    1
   12    10    13    1
   13    13    14    1
   14    13    15    1
   15    15    16    1
   16    15    17    1
   17    15    18    1
   18    18    19    1
   19    18    20    1
   20     1    21    1
   21    18    21    1
   22    21    22    1
   23    21    23    1
   24    13    24    1
   25    24    25    1
@<TRIPOS>SUBSTRUCTURE
       1 MOL1            1 RESIDUE      1      MOL     
@<SCITEGIC>MOL_PROPERTY
VConf Rank
SciTegic.value.IntegerValue
783

@<SCITEGIC>MOL_PROPERTY
Conf_Id
SciTegic.value.IntegerValue
146

@<SCITEGIC>MOL_PROPERTY
Delta U+W
SciTegic.value.DoubleValue
2.553

@<SCITEGIC>MOL_PROPERTY
U+W
SciTegic.value.DoubleValue
13.466

@<SCITEGIC>MOL_PROPERTY
Grad RMS
SciTegic.value.DoubleValue
0.000000

@<SCITEGIC>MOL_PROPERTY
U
SciTegic.value.DoubleValue
15.643

@<SCITEGIC>MOL_PROPERTY
W
SciTegic.value.DoubleValue
-2.176

@<SCITEGIC>MOL_PROPERTY
W(PB)
SciTegic.value.DoubleValue
-4.307

@<SCITEGIC>MOL_PROPERTY
W(SA)
SciTegic.value.DoubleValue
2.131

@<SCITEGIC>MOL_PROPERTY
Valence
SciTegic.value.DoubleValue
18.916

@<SCITEGIC>MOL_PROPERTY
Coulomb
SciTegic.value.DoubleValue
-7.506

@<SCITEGIC>MOL_PROPERTY
VdW
SciTegic.value.DoubleValue
4.232

@<SCITEGIC>MOL_PROPERTY
VdW6
SciTegic.value.DoubleValue
-13.632

@<SCITEGIC>MOL_PROPERTY
VdW12
SciTegic.value.DoubleValue
17.864

@<SCITEGIC>MOL_PROPERTY
Bond
SciTegic.value.DoubleValue
0.735

@<SCITEGIC>MOL_PROPERTY
Angle
SciTegic.value.DoubleValue
9.140

@<SCITEGIC>MOL_PROPERTY
Pdih
SciTegic.value.DoubleValue
9.042

@<SCITEGIC>MOL_PROPERTY
Idih
SciTegic.value.DoubleValue
0.000

@<SCITEGIC>MOL_PROPERTY
Tether
SciTegic.value.DoubleValue
0.000

@<TRIPOS>MOLECULE
guest-s17_confgen4.mol2 : confsearch ligand conformer 784
          25          25           1
SMALL
USER_CHARGES
 
@<TRIPOS>ATOM
       1    C1      19.349664   20.923219   23.413154 C.3        1 MOL1        -0.1684
       2    H1      18.255699   20.993729   23.482244 H          1 MOL1         0.0833
       3    H2      19.733120   21.875087   23.805353 H          1 MOL1         0.0833
       4    C2      19.763378   20.837103   21.922662 C.3        1 MOL1        -0.1684
       5    H3      19.413243   21.756436   21.433753 H          1 MOL1         0.0833
       6    H4      20.854602   20.872809   21.827267 H          1 MOL1         0.0833
       7    C3      19.186266   19.642659   21.122270 C.3        1 MOL1        -0.1684
       8    H5      19.468572   19.782641   20.069802 H          1 MOL1         0.0833
       9    H6      18.088995   19.686696   21.144627 H          1 MOL1         0.0833
      10    C4      19.642073   18.223368   21.550702 C.3        1 MOL1        -0.1760
      11    H7      19.054493   17.877516   22.406976 H          1 MOL1         0.0833
      12    H8      19.370125   17.537721   20.736780 H          1 MOL1         0.0833
      13    C5      21.157027   18.080340   21.848248 C.3        1 MOL1         0.1219
      14    H9      21.705472   18.903238   21.370449 H          1 MOL1         0.0790
      15    C6      21.505416   18.039711   23.357797 C.3        1 MOL1        -0.1760
      16    H10     20.930630   17.237323   23.838957 H          1 MOL1         0.0833
      17    H11     22.559517   17.748449   23.454635 H          1 MOL1         0.0833
      18    C7      21.315655   19.357199   24.157685 C.3        1 MOL1        -0.1684
      19    H12     21.911823   20.168253   23.719994 H          1 MOL1         0.0833
      20    H13     21.746042   19.191460   25.154821 H          1 MOL1         0.0833
      21    C8      19.840462   19.792725   24.354171 C.3        1 MOL1        -0.1684
      22    H14     19.726637   20.158472   25.383885 H          1 MOL1         0.0833
      23    H15     19.172430   18.925901   24.297841 H          1 MOL1         0.0833
      24    O1      21.605961   16.856455   21.277361 O.3        1 MOL1        -0.5508
      25    H16     22.573795   16.813386   21.424542 H          1 MOL1         0.3780
@<TRIPOS>BOND
    1     1     2    1
    2     1     3    1
    3     1     4    1
    4     4     5    1
    5     4     6    1
    6     4     7    1
    7     7     8    1
    8     7     9    1
    9     7    10    1
   10    10    11    1
   11    10    12    1
   12    10    13    1
   13    13    14    1
   14    13    15    1
   15    15    16    1
   16    15    17    1
   17    15    18    1
   18    18    19    1
   19    18    20    1
   20     1    21    1
   21    18    21    1
   22    21    22    1
   23    21    23    1
   24    13    24    1
   25    24    25    1
@<TRIPOS>SUBSTRUCTURE
       1 MOL1            1 RESIDUE      1      MOL     
@<SCITEGIC>MOL_PROPERTY
VConf Rank
SciTegic.value.IntegerValue
784

@<SCITEGIC>MOL_PROPERTY
Conf_Id
SciTegic.value.IntegerValue
62

@<SCITEGIC>MOL_PROPERTY
Delta U+W
SciTegic.value.DoubleValue
-1.779

@<SCITEGIC>MOL_PROPERTY
U+W
SciTegic.value.DoubleValue
9.134

@<SCITEGIC>MOL_PROPERTY
Grad RMS
SciTegic.value.DoubleValue
0.000000

@<SCITEGIC>MOL_PROPERTY
U
SciTegic.value.DoubleValue
11.364

@<SCITEGIC>MOL_PROPERTY
W
SciTegic.value.DoubleValue
-2.230

@<SCITEGIC>MOL_PROPERTY
W(PB)
SciTegic.value.DoubleValue
-4.359

@<SCITEGIC>MOL_PROPERTY
W(SA)
SciTegic.value.DoubleValue
2.129

@<SCITEGIC>MOL_PROPERTY
Valence
SciTegic.value.DoubleValue
16.582

@<SCITEGIC>MOL_PROPERTY
Coulomb
SciTegic.value.DoubleValue
-8.150

@<SCITEGIC>MOL_PROPERTY
VdW
SciTegic.value.DoubleValue
2.933

@<SCITEGIC>MOL_PROPERTY
VdW6
SciTegic.value.DoubleValue
-12.531

@<SCITEGIC>MOL_PROPERTY
VdW12
SciTegic.value.DoubleValue
15.464

@<SCITEGIC>MOL_PROPERTY
Bond
SciTegic.value.DoubleValue
0.439

@<SCITEGIC>MOL_PROPERTY
Angle
SciTegic.value.DoubleValue
5.099

@<SCITEGIC>MOL_PROPERTY
Pdih
SciTegic.value.DoubleValue
11.044

@<SCITEGIC>MOL_PROPERTY
Idih
SciTegic.value.DoubleValue
0.000

@<SCITEGIC>MOL_PROPERTY
Tether
SciTegic.value.DoubleValue
0.000

@<TRIPOS>MOLECULE
guest-s17_confgen4.mol2 : confsearch ligand conformer 785
          25          25           1
SMALL
USER_CHARGES
 
@<TRIPOS>ATOM
       1    C1      21.178110   20.853390   22.379064 C.3        1 MOL1        -0.1684
       2    H1      21.610599   20.203547   21.609791 H          1 MOL1         0.0833
       3    H2      21.665764   21.825676   22.225793 H          1 MOL1         0.0833
       4    C2      21.575618   20.356881   23.791551 C.3        1 MOL1        -0.1684
       5    H3      22.672398   20.377834   23.850901 H          1 MOL1         0.0833
       6    H4      21.223865   21.077828   24.541885 H          1 MOL1         0.0833
       7    C3      21.106173   18.937024   24.199409 C.3        1 MOL1        -0.1684
       8    H5      20.075282   18.964362   24.570233 H          1 MOL1         0.0833
       9    H6      21.703545   18.636713   25.071180 H          1 MOL1         0.0833
      10    C4      21.262874   17.847044   23.105471 C.3        1 MOL1        -0.1760
      11    H7      22.042002   18.121503   22.383748 H          1 MOL1         0.0833
      12    H8      21.634514   16.940932   23.601645 H          1 MOL1         0.0833
      13    C5      19.952429   17.466457   22.371114 C.3        1 MOL1         0.1219
      14    H9      19.197071   17.206340   23.126597 H          1 MOL1         0.0790
      15    C6      19.347908   18.544969   21.437692 C.3        1 MOL1        -0.1760
      16    H10     20.072227   18.836832   20.667649 H          1 MOL1         0.0833
      17    H11     18.522738   18.068937   20.891526 H          1 MOL1         0.0833
      18    C7      18.767272   19.789037   22.162072 C.3        1 MOL1        -0.1684
      19    H12     18.492920   19.539873   23.193379 H          1 MOL1         0.0833
      20    H13     17.815514   20.052697   21.680836 H          1 MOL1         0.0833
      21    C8      19.662827   21.053823   22.127141 C.3        1 MOL1        -0.1684
      22    H14     19.269939   21.788792   22.842643 H          1 MOL1         0.0833
      23    H15     19.552666   21.515624   21.136441 H          1 MOL1         0.0833
      24    O1      20.220350   16.316466   21.578544 O.3        1 MOL1        -0.5508
      25    H16     20.537591   15.619152   22.189493 H          1 MOL1         0.3780
@<TRIPOS>BOND
    1     1     2    1
    2     1     3    1
    3     1     4    1
    4     4     5    1
    5     4     6    1
    6     4     7    1
    7     7     8    1
    8     7     9    1
    9     7    10    1
   10    10    11    1
   11    10    12    1
   12    10    13    1
   13    13    14    1
   14    13    15    1
   15    15    16    1
   16    15    17    1
   17    15    18    1
   18    18    19    1
   19    18    20    1
   20     1    21    1
   21    18    21    1
   22    21    22    1
   23    21    23    1
   24    13    24    1
   25    24    25    1
@<TRIPOS>SUBSTRUCTURE
       1 MOL1            1 RESIDUE      1      MOL     
@<SCITEGIC>MOL_PROPERTY
VConf Rank
SciTegic.value.IntegerValue
785

@<SCITEGIC>MOL_PROPERTY
Conf_Id
SciTegic.value.IntegerValue
121

@<SCITEGIC>MOL_PROPERTY
Delta U+W
SciTegic.value.DoubleValue
-1.283

@<SCITEGIC>MOL_PROPERTY
U+W
SciTegic.value.DoubleValue
9.630

@<SCITEGIC>MOL_PROPERTY
Grad RMS
SciTegic.value.DoubleValue
0.000000

@<SCITEGIC>MOL_PROPERTY
U
SciTegic.value.DoubleValue
11.876

@<SCITEGIC>MOL_PROPERTY
W
SciTegic.value.DoubleValue
-2.246

@<SCITEGIC>MOL_PROPERTY
W(PB)
SciTegic.value.DoubleValue
-4.376

@<SCITEGIC>MOL_PROPERTY
W(SA)
SciTegic.value.DoubleValue
2.130

@<SCITEGIC>MOL_PROPERTY
Valence
SciTegic.value.DoubleValue
17.153

@<SCITEGIC>MOL_PROPERTY
Coulomb
SciTegic.value.DoubleValue
-7.966

@<SCITEGIC>MOL_PROPERTY
VdW
SciTegic.value.DoubleValue
2.689

@<SCITEGIC>MOL_PROPERTY
VdW6
SciTegic.value.DoubleValue
-12.458

@<SCITEGIC>MOL_PROPERTY
VdW12
SciTegic.value.DoubleValue
15.147

@<SCITEGIC>MOL_PROPERTY
Bond
SciTegic.value.DoubleValue
0.421

@<SCITEGIC>MOL_PROPERTY
Angle
SciTegic.value.DoubleValue
5.258

@<SCITEGIC>MOL_PROPERTY
Pdih
SciTegic.value.DoubleValue
11.475

@<SCITEGIC>MOL_PROPERTY
Idih
SciTegic.value.DoubleValue
0.000

@<SCITEGIC>MOL_PROPERTY
Tether
SciTegic.value.DoubleValue
0.000

@<TRIPOS>MOLECULE
guest-s17_confgen4.mol2 : confsearch ligand conformer 786
          25          25           1
SMALL
USER_CHARGES
 
@<TRIPOS>ATOM
       1    C1      21.299224   17.715624   22.229321 C.3        1 MOL1        -0.1684
       2    H1      21.469965   17.839561   23.304780 H          1 MOL1         0.0833
       3    H2      21.843784   16.798468   21.966800 H          1 MOL1         0.0833
       4    C2      21.951083   18.879274   21.441462 C.3        1 MOL1        -0.1684
       5    H3      23.027940   18.860129   21.658016 H          1 MOL1         0.0833
       6    H4      21.861331   18.683597   20.364365 H          1 MOL1         0.0833
       7    C3      21.434024   20.310285   21.737743 C.3        1 MOL1        -0.1684
       8    H5      20.526270   20.518928   21.160338 H          1 MOL1         0.0833
       9    H6      22.179543   21.012730   21.340604 H          1 MOL1         0.0833
      10    C4      21.211512   20.637628   23.238713 C.3        1 MOL1        -0.1760
      11    H7      21.830744   19.998595   23.879789 H          1 MOL1         0.0833
      12    H8      21.578078   21.658573   23.409327 H          1 MOL1         0.0833
      13    C5      19.734258   20.605193   23.704097 C.3        1 MOL1         0.1219
      14    H9      19.151034   21.254076   23.034933 H          1 MOL1         0.0790
      15    C6      19.055022   19.212920   23.744113 C.3        1 MOL1        -0.1760
      16    H10     19.613459   18.531578   24.397698 H          1 MOL1         0.0833
      17    H11     18.077152   19.340040   24.226767 H          1 MOL1         0.0833
      18    C7      18.800067   18.569916   22.354563 C.3        1 MOL1        -0.1684
      19    H12     18.746003   19.341225   21.577934 H          1 MOL1         0.0833
      20    H13     17.798290   18.118937   22.363675 H          1 MOL1         0.0833
      21    C8      19.798320   17.456315   21.947005 C.3        1 MOL1        -0.1684
      22    H14     19.663568   17.229636   20.880726 H          1 MOL1         0.0833
      23    H15     19.516357   16.539942   22.483332 H          1 MOL1         0.0833
      24    O1      19.688099   21.145716   25.018680 O.3        1 MOL1        -0.5508
      25    H16     18.743438   21.183687   25.276213 H          1 MOL1         0.3780
@<TRIPOS>BOND
    1     1     2    1
    2     1     3    1
    3     1     4    1
    4     4     5    1
    5     4     6    1
    6     4     7    1
    7     7     8    1
    8     7     9    1
    9     7    10    1
   10    10    11    1
   11    10    12    1
   12    10    13    1
   13    13    14    1
   14    13    15    1
   15    15    16    1
   16    15    17    1
   17    15    18    1
   18    18    19    1
   19    18    20    1
   20     1    21    1
   21    18    21    1
   22    21    22    1
   23    21    23    1
   24    13    24    1
   25    24    25    1
@<TRIPOS>SUBSTRUCTURE
       1 MOL1            1 RESIDUE      1      MOL     
@<SCITEGIC>MOL_PROPERTY
VConf Rank
SciTegic.value.IntegerValue
786

@<SCITEGIC>MOL_PROPERTY
Conf_Id
SciTegic.value.IntegerValue
24

@<SCITEGIC>MOL_PROPERTY
Delta U+W
SciTegic.value.DoubleValue
-1.236

@<SCITEGIC>MOL_PROPERTY
U+W
SciTegic.value.DoubleValue
9.678

@<SCITEGIC>MOL_PROPERTY
Grad RMS
SciTegic.value.DoubleValue
0.000000

@<SCITEGIC>MOL_PROPERTY
U
SciTegic.value.DoubleValue
11.876

@<SCITEGIC>MOL_PROPERTY
W
SciTegic.value.DoubleValue
-2.199

@<SCITEGIC>MOL_PROPERTY
W(PB)
SciTegic.value.DoubleValue
-4.335

@<SCITEGIC>MOL_PROPERTY
W(SA)
SciTegic.value.DoubleValue
2.137

@<SCITEGIC>MOL_PROPERTY
Valence
SciTegic.value.DoubleValue
17.153

@<SCITEGIC>MOL_PROPERTY
Coulomb
SciTegic.value.DoubleValue
-7.966

@<SCITEGIC>MOL_PROPERTY
VdW
SciTegic.value.DoubleValue
2.689

@<SCITEGIC>MOL_PROPERTY
VdW6
SciTegic.value.DoubleValue
-12.458

@<SCITEGIC>MOL_PROPERTY
VdW12
SciTegic.value.DoubleValue
15.147

@<SCITEGIC>MOL_PROPERTY
Bond
SciTegic.value.DoubleValue
0.421

@<SCITEGIC>MOL_PROPERTY
Angle
SciTegic.value.DoubleValue
5.258

@<SCITEGIC>MOL_PROPERTY
Pdih
SciTegic.value.DoubleValue
11.475

@<SCITEGIC>MOL_PROPERTY
Idih
SciTegic.value.DoubleValue
0.000

@<SCITEGIC>MOL_PROPERTY
Tether
SciTegic.value.DoubleValue
0.000

@<TRIPOS>MOLECULE
guest-s17_confgen4.mol2 : confsearch ligand conformer 787
          25          25           1
SMALL
USER_CHARGES
 
@<TRIPOS>ATOM
       1    C1      19.240442   21.063131   22.877616 C.3        1 MOL1        -0.1684
       2    H1      19.350344   21.698652   23.766892 H          1 MOL1         0.0833
       3    H2      18.493668   21.563042   22.245737 H          1 MOL1         0.0833
       4    C2      20.585579   21.045656   22.103988 C.3        1 MOL1        -0.1684
       5    H3      20.433043   20.707767   21.071100 H          1 MOL1         0.0833
       6    H4      20.913955   22.089912   22.010368 H          1 MOL1         0.0833
       7    C3      21.736098   20.242091   22.759159 C.3        1 MOL1        -0.1684
       8    H5      21.685166   20.310179   23.854251 H          1 MOL1         0.0833
       9    H6      22.673608   20.742361   22.479861 H          1 MOL1         0.0833
      10    C4      21.857890   18.763555   22.293297 C.3        1 MOL1        -0.1760
      11    H7      21.613221   18.668502   21.227661 H          1 MOL1         0.0833
      12    H8      22.920025   18.495449   22.376599 H          1 MOL1         0.0833
      13    C5      21.046071   17.744947   23.130236 C.3        1 MOL1         0.1219
      14    H9      20.949467   18.132246   24.153144 H          1 MOL1         0.0790
      15    C6      19.639342   17.402476   22.577392 C.3        1 MOL1        -0.1760
      16    H10     19.742621   16.780647   21.678485 H          1 MOL1         0.0833
      17    H11     19.133347   16.774351   23.322408 H          1 MOL1         0.0833
      18    C7      18.712448   18.596076   22.235594 C.3        1 MOL1        -0.1684
      19    H12     17.696092   18.206477   22.087299 H          1 MOL1         0.0833
      20    H13     18.994845   19.016938   21.263576 H          1 MOL1         0.0833
      21    C8      18.669013   19.695834   23.326464 C.3        1 MOL1        -0.1684
      22    H14     19.177434   19.366351   24.240031 H          1 MOL1         0.0833
      23    H15     17.624205   19.848433   23.629715 H          1 MOL1         0.0833
      24    O1      21.781757   16.529768   23.192005 O.3        1 MOL1        -0.5508
      25    H16     21.873184   16.214082   22.269532 H          1 MOL1         0.3780
@<TRIPOS>BOND
    1     1     2    1
    2     1     3    1
    3     1     4    1
    4     4     5    1
    5     4     6    1
    6     4     7    1
    7     7     8    1
    8     7     9    1
    9     7    10    1
   10    10    11    1
   11    10    12    1
   12    10    13    1
   13    13    14    1
   14    13    15    1
   15    15    16    1
   16    15    17    1
   17    15    18    1
   18    18    19    1
   19    18    20    1
   20     1    21    1
   21    18    21    1
   22    21    22    1
   23    21    23    1
   24    13    24    1
   25    24    25    1
@<TRIPOS>SUBSTRUCTURE
       1 MOL1            1 RESIDUE      1      MOL     
@<SCITEGIC>MOL_PROPERTY
VConf Rank
SciTegic.value.IntegerValue
787

@<SCITEGIC>MOL_PROPERTY
Conf_Id
SciTegic.value.IntegerValue
167

@<SCITEGIC>MOL_PROPERTY
Delta U+W
SciTegic.value.DoubleValue
0.388

@<SCITEGIC>MOL_PROPERTY
U+W
SciTegic.value.DoubleValue
11.301

@<SCITEGIC>MOL_PROPERTY
Grad RMS
SciTegic.value.DoubleValue
0.000000

@<SCITEGIC>MOL_PROPERTY
U
SciTegic.value.DoubleValue
13.202

@<SCITEGIC>MOL_PROPERTY
W
SciTegic.value.DoubleValue
-1.901

@<SCITEGIC>MOL_PROPERTY
W(PB)
SciTegic.value.DoubleValue
-4.065

@<SCITEGIC>MOL_PROPERTY
W(SA)
SciTegic.value.DoubleValue
2.163

@<SCITEGIC>MOL_PROPERTY
Valence
SciTegic.value.DoubleValue
18.957

@<SCITEGIC>MOL_PROPERTY
Coulomb
SciTegic.value.DoubleValue
-8.753

@<SCITEGIC>MOL_PROPERTY
VdW
SciTegic.value.DoubleValue
2.998

@<SCITEGIC>MOL_PROPERTY
VdW6
SciTegic.value.DoubleValue
-12.294

@<SCITEGIC>MOL_PROPERTY
VdW12
SciTegic.value.DoubleValue
15.292

@<SCITEGIC>MOL_PROPERTY
Bond
SciTegic.value.DoubleValue
0.419

@<SCITEGIC>MOL_PROPERTY
Angle
SciTegic.value.DoubleValue
4.543

@<SCITEGIC>MOL_PROPERTY
Pdih
SciTegic.value.DoubleValue
13.996

@<SCITEGIC>MOL_PROPERTY
Idih
SciTegic.value.DoubleValue
0.000

@<SCITEGIC>MOL_PROPERTY
Tether
SciTegic.value.DoubleValue
0.000

@<TRIPOS>MOLECULE
guest-s17_confgen4.mol2 : confsearch ligand conformer 788
          25          25           1
SMALL
USER_CHARGES
 
@<TRIPOS>ATOM
       1    C1      18.648891   18.857896   23.823193 C.3        1 MOL1        -0.1684
       2    H1      18.716442   18.239157   24.728235 H          1 MOL1         0.0833
       3    H2      17.601361   19.183830   23.765166 H          1 MOL1         0.0833
       4    C2      18.935547   17.969245   22.584875 C.3        1 MOL1        -0.1684
       5    H3      19.760151   17.276882   22.788512 H          1 MOL1         0.0833
       6    H4      18.061286   17.318442   22.446462 H          1 MOL1         0.0833
       7    C3      19.181617   18.733513   21.258155 C.3        1 MOL1        -0.1684
       8    H5      18.695694   19.717591   21.273629 H          1 MOL1         0.0833
       9    H6      18.675757   18.176576   20.457635 H          1 MOL1         0.0833
      10    C4      20.673771   18.862328   20.846899 C.3        1 MOL1        -0.1760
      11    H7      21.126652   17.863418   20.798747 H          1 MOL1         0.0833
      12    H8      20.700906   19.249412   19.819662 H          1 MOL1         0.0833
      13    C5      21.562828   19.783441   21.718987 C.3        1 MOL1         0.1219
      14    H9      21.091349   20.772585   21.792866 H          1 MOL1         0.0790
      15    C6      21.846457   19.229583   23.139382 C.3        1 MOL1        -0.1760
      16    H10     21.707599   18.143878   23.154790 H          1 MOL1         0.0833
      17    H11     22.907926   19.371301   23.382577 H          1 MOL1         0.0833
      18    C7      21.025067   19.890666   24.276506 C.3        1 MOL1        -0.1684
      19    H12     21.479104   20.866286   24.497780 H          1 MOL1         0.0833
      20    H13     21.139728   19.294491   25.191919 H          1 MOL1         0.0833
      21    C8      19.517914   20.127576   24.005891 C.3        1 MOL1        -0.1684
      22    H14     19.380920   20.807935   23.157662 H          1 MOL1         0.0833
      23    H15     19.114865   20.676669   24.867790 H          1 MOL1         0.0833
      24    O1      22.805974   19.934585   21.043781 O.3        1 MOL1        -0.5508
      25    H16     23.334202   20.572557   21.567694 H          1 MOL1         0.3780
@<TRIPOS>BOND
    1     1     2    1
    2     1     3    1
    3     1     4    1
    4     4     5    1
    5     4     6    1
    6     4     7    1
    7     7     8    1
    8     7     9    1
    9     7    10    1
   10    10    11    1
   11    10    12    1
   12    10    13    1
   13    13    14    1
   14    13    15    1
   15    15    16    1
   16    15    17    1
   17    15    18    1
   18    18    19    1
   19    18    20    1
   20     1    21    1
   21    18    21    1
   22    21    22    1
   23    21    23    1
   24    13    24    1
   25    24    25    1
@<TRIPOS>SUBSTRUCTURE
       1 MOL1            1 RESIDUE      1      MOL     
@<SCITEGIC>MOL_PROPERTY
VConf Rank
SciTegic.value.IntegerValue
788

@<SCITEGIC>MOL_PROPERTY
Conf_Id
SciTegic.value.IntegerValue
60

@<SCITEGIC>MOL_PROPERTY
Delta U+W
SciTegic.value.DoubleValue
-1.838

@<SCITEGIC>MOL_PROPERTY
U+W
SciTegic.value.DoubleValue
9.075

@<SCITEGIC>MOL_PROPERTY
Grad RMS
SciTegic.value.DoubleValue
0.000000

@<SCITEGIC>MOL_PROPERTY
U
SciTegic.value.DoubleValue
11.150

@<SCITEGIC>MOL_PROPERTY
W
SciTegic.value.DoubleValue
-2.074

@<SCITEGIC>MOL_PROPERTY
W(PB)
SciTegic.value.DoubleValue
-4.196

@<SCITEGIC>MOL_PROPERTY
W(SA)
SciTegic.value.DoubleValue
2.121

@<SCITEGIC>MOL_PROPERTY
Valence
SciTegic.value.DoubleValue
16.582

@<SCITEGIC>MOL_PROPERTY
Coulomb
SciTegic.value.DoubleValue
-8.361

@<SCITEGIC>MOL_PROPERTY
VdW
SciTegic.value.DoubleValue
2.928

@<SCITEGIC>MOL_PROPERTY
VdW6
SciTegic.value.DoubleValue
-12.539

@<SCITEGIC>MOL_PROPERTY
VdW12
SciTegic.value.DoubleValue
15.467

@<SCITEGIC>MOL_PROPERTY
Bond
SciTegic.value.DoubleValue
0.441

@<SCITEGIC>MOL_PROPERTY
Angle
SciTegic.value.DoubleValue
5.093

@<SCITEGIC>MOL_PROPERTY
Pdih
SciTegic.value.DoubleValue
11.049

@<SCITEGIC>MOL_PROPERTY
Idih
SciTegic.value.DoubleValue
0.000

@<SCITEGIC>MOL_PROPERTY
Tether
SciTegic.value.DoubleValue
0.000

@<TRIPOS>MOLECULE
guest-s17_confgen4.mol2 : confsearch ligand conformer 789
          25          25           1
SMALL
USER_CHARGES
 
@<TRIPOS>ATOM
       1    C1      18.282604   18.944204   22.846416 C.3        1 MOL1        -0.1684
       2    H1      17.755869   19.235656   23.765171 H          1 MOL1         0.0833
       3    H2      17.513337   18.521404   22.185821 H          1 MOL1         0.0833
       4    C2      19.286765   17.809703   23.170810 C.3        1 MOL1        -0.1684
       5    H3      18.705588   16.960982   23.556464 H          1 MOL1         0.0833
       6    H4      19.745975   17.432912   22.249776 H          1 MOL1         0.0833
       7    C3      20.372712   18.139596   24.225684 C.3        1 MOL1        -0.1684
       8    H5      20.926679   17.213450   24.431396 H          1 MOL1         0.0833
       9    H6      19.887365   18.412685   25.172475 H          1 MOL1         0.0833
      10    C4      21.402053   19.237879   23.852870 C.3        1 MOL1        -0.1760
      11    H7      20.976351   20.230692   24.030003 H          1 MOL1         0.0833
      12    H8      22.228518   19.164245   24.572228 H          1 MOL1         0.0833
      13    C5      21.962735   19.147686   22.409879 C.3        1 MOL1         0.1219
      14    H9      21.804663   18.136296   22.012063 H          1 MOL1         0.0790
      15    C6      21.352334   20.179158   21.428614 C.3        1 MOL1        -0.1760
      16    H10     21.480234   21.188835   21.840240 H          1 MOL1         0.0833
      17    H11     21.950556   20.156876   20.508061 H          1 MOL1         0.0833
      18    C7      19.867043   19.970172   21.025518 C.3        1 MOL1        -0.1684
      19    H12     19.721964   18.980764   20.572978 H          1 MOL1         0.0833
      20    H13     19.649230   20.687450   20.222414 H          1 MOL1         0.0833
      21    C8      18.842562   20.218752   22.162837 C.3        1 MOL1        -0.1684
      22    H14     17.985495   20.758918   21.737760 H          1 MOL1         0.0833
      23    H15     19.255260   20.907661   22.908416 H          1 MOL1         0.0833
      24    O1      23.363809   19.389676   22.460841 O.3        1 MOL1        -0.5508
      25    H16     23.749011   18.690038   23.028858 H          1 MOL1         0.3780
@<TRIPOS>BOND
    1     1     2    1
    2     1     3    1
    3     1     4    1
    4     4     5    1
    5     4     6    1
    6     4     7    1
    7     7     8    1
    8     7     9    1
    9     7    10    1
   10    10    11    1
   11    10    12    1
   12    10    13    1
   13    13    14    1
   14    13    15    1
   15    15    16    1
   16    15    17    1
   17    15    18    1
   18    18    19    1
   19    18    20    1
   20     1    21    1
   21    18    21    1
   22    21    22    1
   23    21    23    1
   24    13    24    1
   25    24    25    1
@<TRIPOS>SUBSTRUCTURE
       1 MOL1            1 RESIDUE      1      MOL     
@<SCITEGIC>MOL_PROPERTY
VConf Rank
SciTegic.value.IntegerValue
789

@<SCITEGIC>MOL_PROPERTY
Conf_Id
SciTegic.value.IntegerValue
129

@<SCITEGIC>MOL_PROPERTY
Delta U+W
SciTegic.value.DoubleValue
-1.846

@<SCITEGIC>MOL_PROPERTY
U+W
SciTegic.value.DoubleValue
9.067

@<SCITEGIC>MOL_PROPERTY
Grad RMS
SciTegic.value.DoubleValue
0.000000

@<SCITEGIC>MOL_PROPERTY
U
SciTegic.value.DoubleValue
11.150

@<SCITEGIC>MOL_PROPERTY
W
SciTegic.value.DoubleValue
-2.083

@<SCITEGIC>MOL_PROPERTY
W(PB)
SciTegic.value.DoubleValue
-4.217

@<SCITEGIC>MOL_PROPERTY
W(SA)
SciTegic.value.DoubleValue
2.134

@<SCITEGIC>MOL_PROPERTY
Valence
SciTegic.value.DoubleValue
16.583

@<SCITEGIC>MOL_PROPERTY
Coulomb
SciTegic.value.DoubleValue
-8.361

@<SCITEGIC>MOL_PROPERTY
VdW
SciTegic.value.DoubleValue
2.928

@<SCITEGIC>MOL_PROPERTY
VdW6
SciTegic.value.DoubleValue
-12.539

@<SCITEGIC>MOL_PROPERTY
VdW12
SciTegic.value.DoubleValue
15.467

@<SCITEGIC>MOL_PROPERTY
Bond
SciTegic.value.DoubleValue
0.441

@<SCITEGIC>MOL_PROPERTY
Angle
SciTegic.value.DoubleValue
5.093

@<SCITEGIC>MOL_PROPERTY
Pdih
SciTegic.value.DoubleValue
11.049

@<SCITEGIC>MOL_PROPERTY
Idih
SciTegic.value.DoubleValue
0.000

@<SCITEGIC>MOL_PROPERTY
Tether
SciTegic.value.DoubleValue
0.000

@<TRIPOS>MOLECULE
guest-s17_confgen4.mol2 : confsearch ligand conformer 790
          25          25           1
SMALL
USER_CHARGES
 
@<TRIPOS>ATOM
       1    C1      19.240336   18.648922   20.949425 C.3        1 MOL1        -0.1684
       2    H1      19.776847   18.287310   20.061789 H          1 MOL1         0.0833
       3    H2      18.174050   18.607357   20.688224 H          1 MOL1         0.0833
       4    C2      19.598713   20.136352   21.193010 C.3        1 MOL1        -0.1684
       5    H3      19.277842   20.698250   20.305250 H          1 MOL1         0.0833
       6    H4      18.994472   20.545241   22.010875 H          1 MOL1         0.0833
       7    C3      21.099490   20.449171   21.416794 C.3        1 MOL1        -0.1684
       8    H5      21.206737   21.541838   21.457150 H          1 MOL1         0.0833
       9    H6      21.672727   20.126073   20.537303 H          1 MOL1         0.0833
      10    C4      21.758246   19.860532   22.691478 C.3        1 MOL1        -0.1760
      11    H7      22.043057   18.817136   22.521934 H          1 MOL1         0.0833
      12    H8      22.711209   20.388583   22.831619 H          1 MOL1         0.0833
      13    C5      20.911082   19.983129   23.984481 C.3        1 MOL1         0.1219
      14    H9      20.155407   20.769884   23.858610 H          1 MOL1         0.0790
      15    C6      20.212921   18.668668   24.415366 C.3        1 MOL1        -0.1760
      16    H10     20.961846   17.871895   24.512726 H          1 MOL1         0.0833
      17    H11     19.807695   18.821710   25.424625 H          1 MOL1         0.0833
      18    C7      19.048510   18.166866   23.519061 C.3        1 MOL1        -0.1684
      19    H12     18.262525   18.928808   23.438656 H          1 MOL1         0.0833
      20    H13     18.578414   17.325039   24.045657 H          1 MOL1         0.0833
      21    C8      19.478777   17.658701   22.118639 C.3        1 MOL1        -0.1684
      22    H14     18.903731   16.749999   21.893620 H          1 MOL1         0.0833
      23    H15     20.521985   17.323636   22.134346 H          1 MOL1         0.0833
      24    O1      21.774329   20.370181   25.046159 O.3        1 MOL1        -0.5508
      25    H16     22.434422   19.653134   25.141364 H          1 MOL1         0.3780
@<TRIPOS>BOND
    1     1     2    1
    2     1     3    1
    3     1     4    1
    4     4     5    1
    5     4     6    1
    6     4     7    1
    7     7     8    1
    8     7     9    1
    9     7    10    1
   10    10    11    1
   11    10    12    1
   12    10    13    1
   13    13    14    1
   14    13    15    1
   15    15    16    1
   16    15    17    1
   17    15    18    1
   18    18    19    1
   19    18    20    1
   20     1    21    1
   21    18    21    1
   22    21    22    1
   23    21    23    1
   24    13    24    1
   25    24    25    1
@<TRIPOS>SUBSTRUCTURE
       1 MOL1            1 RESIDUE      1      MOL     
@<SCITEGIC>MOL_PROPERTY
VConf Rank
SciTegic.value.IntegerValue
790

@<SCITEGIC>MOL_PROPERTY
Conf_Id
SciTegic.value.IntegerValue
140

@<SCITEGIC>MOL_PROPERTY
Delta U+W
SciTegic.value.DoubleValue
-1.702

@<SCITEGIC>MOL_PROPERTY
U+W
SciTegic.value.DoubleValue
9.211

@<SCITEGIC>MOL_PROPERTY
Grad RMS
SciTegic.value.DoubleValue
0.000000

@<SCITEGIC>MOL_PROPERTY
U
SciTegic.value.DoubleValue
11.181

@<SCITEGIC>MOL_PROPERTY
W
SciTegic.value.DoubleValue
-1.969

@<SCITEGIC>MOL_PROPERTY
W(PB)
SciTegic.value.DoubleValue
-4.093

@<SCITEGIC>MOL_PROPERTY
W(SA)
SciTegic.value.DoubleValue
2.124

@<SCITEGIC>MOL_PROPERTY
Valence
SciTegic.value.DoubleValue
16.954

@<SCITEGIC>MOL_PROPERTY
Coulomb
SciTegic.value.DoubleValue
-8.661

@<SCITEGIC>MOL_PROPERTY
VdW
SciTegic.value.DoubleValue
2.887

@<SCITEGIC>MOL_PROPERTY
VdW6
SciTegic.value.DoubleValue
-12.561

@<SCITEGIC>MOL_PROPERTY
VdW12
SciTegic.value.DoubleValue
15.448

@<SCITEGIC>MOL_PROPERTY
Bond
SciTegic.value.DoubleValue
0.433

@<SCITEGIC>MOL_PROPERTY
Angle
SciTegic.value.DoubleValue
5.120

@<SCITEGIC>MOL_PROPERTY
Pdih
SciTegic.value.DoubleValue
11.401

@<SCITEGIC>MOL_PROPERTY
Idih
SciTegic.value.DoubleValue
0.000

@<SCITEGIC>MOL_PROPERTY
Tether
SciTegic.value.DoubleValue
0.000

@<TRIPOS>MOLECULE
guest-s17_confgen4.mol2 : confsearch ligand conformer 791
          25          25           1
SMALL
USER_CHARGES
 
@<TRIPOS>ATOM
       1    C1      18.403727   19.897330   23.111633 C.3        1 MOL1        -0.1684
       2    H1      17.500159   19.404765   22.727638 H          1 MOL1         0.0833
       3    H2      18.046513   20.749073   23.706486 H          1 MOL1         0.0833
       4    C2      19.213951   20.462971   21.916629 C.3        1 MOL1        -0.1684
       5    H3      19.217627   19.753018   21.081910 H          1 MOL1         0.0833
       6    H4      18.660017   21.331159   21.533931 H          1 MOL1         0.0833
       7    C3      20.657732   20.920797   22.248956 C.3        1 MOL1        -0.1684
       8    H5      20.752297   21.192058   23.308328 H          1 MOL1         0.0833
       9    H6      20.843931   21.852349   21.697136 H          1 MOL1         0.0833
      10    C4      21.769624   19.919047   21.835185 C.3        1 MOL1        -0.1760
      11    H7      21.676585   19.699918   20.763484 H          1 MOL1         0.0833
      12    H8      22.733630   20.432193   21.951844 H          1 MOL1         0.0833
      13    C5      21.844921   18.590383   22.628831 C.3        1 MOL1         0.1219
      14    H9      21.907200   18.813055   23.702335 H          1 MOL1         0.0790
      15    C6      20.663291   17.621870   22.363681 C.3        1 MOL1        -0.1760
      16    H10     20.197550   17.846722   21.398763 H          1 MOL1         0.0833
      17    H11     21.050661   16.599964   22.252920 H          1 MOL1         0.0833
      18    C7      19.587336   17.577990   23.479776 C.3        1 MOL1        -0.1684
      19    H12     19.982691   16.968335   24.303830 H          1 MOL1         0.0833
      20    H13     18.707081   17.037915   23.105651 H          1 MOL1         0.0833
      21    C8      19.139402   18.935221   24.077729 C.3        1 MOL1        -0.1684
      22    H14     19.985948   19.444699   24.552064 H          1 MOL1         0.0833
      23    H15     18.450996   18.715191   24.905067 H          1 MOL1         0.0833
      24    O1      23.048852   17.937654   22.245878 O.3        1 MOL1        -0.5508
      25    H16     22.971022   17.753937   21.287163 H          1 MOL1         0.3780
@<TRIPOS>BOND
    1     1     2    1
    2     1     3    1
    3     1     4    1
    4     4     5    1
    5     4     6    1
    6     4     7    1
    7     7     8    1
    8     7     9    1
    9     7    10    1
   10    10    11    1
   11    10    12    1
   12    10    13    1
   13    13    14    1
   14    13    15    1
   15    15    16    1
   16    15    17    1
   17    15    18    1
   18    18    19    1
   19    18    20    1
   20     1    21    1
   21    18    21    1
   22    21    22    1
   23    21    23    1
   24    13    24    1
   25    24    25    1
@<TRIPOS>SUBSTRUCTURE
       1 MOL1            1 RESIDUE      1      MOL     
@<SCITEGIC>MOL_PROPERTY
VConf Rank
SciTegic.value.IntegerValue
791

@<SCITEGIC>MOL_PROPERTY
Conf_Id
SciTegic.value.IntegerValue
68

@<SCITEGIC>MOL_PROPERTY
Delta U+W
SciTegic.value.DoubleValue
-1.765

@<SCITEGIC>MOL_PROPERTY
U+W
SciTegic.value.DoubleValue
9.148

@<SCITEGIC>MOL_PROPERTY
Grad RMS
SciTegic.value.DoubleValue
0.000000

@<SCITEGIC>MOL_PROPERTY
U
SciTegic.value.DoubleValue
11.181

@<SCITEGIC>MOL_PROPERTY
W
SciTegic.value.DoubleValue
-2.032

@<SCITEGIC>MOL_PROPERTY
W(PB)
SciTegic.value.DoubleValue
-4.147

@<SCITEGIC>MOL_PROPERTY
W(SA)
SciTegic.value.DoubleValue
2.114

@<SCITEGIC>MOL_PROPERTY
Valence
SciTegic.value.DoubleValue
16.955

@<SCITEGIC>MOL_PROPERTY
Coulomb
SciTegic.value.DoubleValue
-8.661

@<SCITEGIC>MOL_PROPERTY
VdW
SciTegic.value.DoubleValue
2.887

@<SCITEGIC>MOL_PROPERTY
VdW6
SciTegic.value.DoubleValue
-12.561

@<SCITEGIC>MOL_PROPERTY
VdW12
SciTegic.value.DoubleValue
15.448

@<SCITEGIC>MOL_PROPERTY
Bond
SciTegic.value.DoubleValue
0.433

@<SCITEGIC>MOL_PROPERTY
Angle
SciTegic.value.DoubleValue
5.121

@<SCITEGIC>MOL_PROPERTY
Pdih
SciTegic.value.DoubleValue
11.402

@<SCITEGIC>MOL_PROPERTY
Idih
SciTegic.value.DoubleValue
0.000

@<SCITEGIC>MOL_PROPERTY
Tether
SciTegic.value.DoubleValue
0.000

@<TRIPOS>MOLECULE
guest-s17_confgen4.mol2 : confsearch ligand conformer 792
          25          25           1
SMALL
USER_CHARGES
 
@<TRIPOS>ATOM
       1    C1      20.126682   19.059051   20.801019 C.3        1 MOL1        -0.1684
       2    H1      19.971987   19.062962   19.713301 H          1 MOL1         0.0833
       3    H2      20.708858   18.149840   20.988901 H          1 MOL1         0.0833
       4    C2      18.737286   18.967993   21.484093 C.3        1 MOL1        -0.1684
       5    H3      18.361104   19.964134   21.750184 H          1 MOL1         0.0833
       6    H4      18.027439   18.584527   20.738378 H          1 MOL1         0.0833
       7    C3      18.672775   18.011355   22.703636 C.3        1 MOL1        -0.1684
       8    H5      19.008726   17.010429   22.399730 H          1 MOL1         0.0833
       9    H6      17.616178   17.895411   22.981111 H          1 MOL1         0.0833
      10    C4      19.449210   18.448909   23.974167 C.3        1 MOL1        -0.1760
      11    H7      19.105907   19.434570   24.310577 H          1 MOL1         0.0833
      12    H8      19.161367   17.754542   24.775174 H          1 MOL1         0.0833
      13    C5      20.992627   18.420424   23.826049 C.3        1 MOL1         0.1219
      14    H9      21.258733   17.773462   22.982146 H          1 MOL1         0.0790
      15    C6      21.651230   19.808105   23.629509 C.3        1 MOL1        -0.1760
      16    H10     21.689609   20.316460   24.601969 H          1 MOL1         0.0833
      17    H11     22.695927   19.656185   23.328489 H          1 MOL1         0.0833
      18    C7      20.973882   20.777834   22.627067 C.3        1 MOL1        -0.1684
      19    H12     21.522311   21.728651   22.670620 H          1 MOL1         0.0833
      20    H13     19.960293   21.027937   22.960823 H          1 MOL1         0.0833
      21    C8      20.956100   20.323166   21.146155 C.3        1 MOL1        -0.1684
      22    H14     21.987807   20.178630   20.797907 H          1 MOL1         0.0833
      23    H15     20.557384   21.157052   20.552306 H          1 MOL1         0.0833
      24    O1      21.549875   17.845504   25.001474 O.3        1 MOL1        -0.5508
      25    H16     21.287302   18.426002   25.745091 H          1 MOL1         0.3780
@<TRIPOS>BOND
    1     1     2    1
    2     1     3    1
    3     1     4    1
    4     4     5    1
    5     4     6    1
    6     4     7    1
    7     7     8    1
    8     7     9    1
    9     7    10    1
   10    10    11    1
   11    10    12    1
   12    10    13    1
   13    13    14    1
   14    13    15    1
   15    15    16    1
   16    15    17    1
   17    15    18    1
   18    18    19    1
   19    18    20    1
   20     1    21    1
   21    18    21    1
   22    21    22    1
   23    21    23    1
   24    13    24    1
   25    24    25    1
@<TRIPOS>SUBSTRUCTURE
       1 MOL1            1 RESIDUE      1      MOL     
@<SCITEGIC>MOL_PROPERTY
VConf Rank
SciTegic.value.IntegerValue
792

@<SCITEGIC>MOL_PROPERTY
Conf_Id
SciTegic.value.IntegerValue
165

@<SCITEGIC>MOL_PROPERTY
Delta U+W
SciTegic.value.DoubleValue
-1.999

@<SCITEGIC>MOL_PROPERTY
U+W
SciTegic.value.DoubleValue
8.915

@<SCITEGIC>MOL_PROPERTY
Grad RMS
SciTegic.value.DoubleValue
0.000000

@<SCITEGIC>MOL_PROPERTY
U
SciTegic.value.DoubleValue
10.935

@<SCITEGIC>MOL_PROPERTY
W
SciTegic.value.DoubleValue
-2.020

@<SCITEGIC>MOL_PROPERTY
W(PB)
SciTegic.value.DoubleValue
-4.135

@<SCITEGIC>MOL_PROPERTY
W(SA)
SciTegic.value.DoubleValue
2.115

@<SCITEGIC>MOL_PROPERTY
Valence
SciTegic.value.DoubleValue
16.757

@<SCITEGIC>MOL_PROPERTY
Coulomb
SciTegic.value.DoubleValue
-8.731

@<SCITEGIC>MOL_PROPERTY
VdW
SciTegic.value.DoubleValue
2.908

@<SCITEGIC>MOL_PROPERTY
VdW6
SciTegic.value.DoubleValue
-12.597

@<SCITEGIC>MOL_PROPERTY
VdW12
SciTegic.value.DoubleValue
15.506

@<SCITEGIC>MOL_PROPERTY
Bond
SciTegic.value.DoubleValue
0.434

@<SCITEGIC>MOL_PROPERTY
Angle
SciTegic.value.DoubleValue
5.069

@<SCITEGIC>MOL_PROPERTY
Pdih
SciTegic.value.DoubleValue
11.254

@<SCITEGIC>MOL_PROPERTY
Idih
SciTegic.value.DoubleValue
0.000

@<SCITEGIC>MOL_PROPERTY
Tether
SciTegic.value.DoubleValue
0.000

@<TRIPOS>MOLECULE
guest-s17_confgen4.mol2 : confsearch ligand conformer 793
          25          25           1
SMALL
USER_CHARGES
 
@<TRIPOS>ATOM
       1    C1      21.112469   20.821220   22.522856 C.3        1 MOL1        -0.1684
       2    H1      21.645669   21.770590   22.376303 H          1 MOL1         0.0833
       3    H2      20.296205   21.072055   23.209586 H          1 MOL1         0.0833
       4    C2      22.109969   19.838953   23.190386 C.3        1 MOL1        -0.1684
       5    H3      23.084042   19.966484   22.698529 H          1 MOL1         0.0833
       6    H4      22.264137   20.142102   24.234848 H          1 MOL1         0.0833
       7    C3      21.761780   18.330118   23.140187 C.3        1 MOL1        -0.1684
       8    H5      22.613482   17.783207   23.567028 H          1 MOL1         0.0833
       9    H6      21.705822   17.986523   22.100907 H          1 MOL1         0.0833
      10    C4      20.495734   17.896502   23.923217 C.3        1 MOL1        -0.1760
      11    H7      20.444523   16.799981   23.884039 H          1 MOL1         0.0833
      12    H8      20.627376   18.155787   24.981592 H          1 MOL1         0.0833
      13    C5      19.137528   18.461541   23.439721 C.3        1 MOL1         0.1219
      14    H9      19.032010   19.496096   23.786738 H          1 MOL1         0.0790
      15    C6      18.931305   18.422367   21.903453 C.3        1 MOL1        -0.1760
      16    H10     19.573982   17.662995   21.442543 H          1 MOL1         0.0833
      17    H11     17.904583   18.089389   21.699738 H          1 MOL1         0.0833
      18    C7      19.111408   19.790718   21.193404 C.3        1 MOL1        -0.1684
      19    H12     18.436376   20.527742   21.649600 H          1 MOL1         0.0833
      20    H13     18.765833   19.677147   20.156846 H          1 MOL1         0.0833
      21    C8      20.550512   20.368611   21.149952 C.3        1 MOL1        -0.1684
      22    H14     20.521177   21.252244   20.497769 H          1 MOL1         0.0833
      23    H15     21.235689   19.669916   20.652994 H          1 MOL1         0.0833
      24    O1      18.111989   17.688598   24.053190 O.3        1 MOL1        -0.5508
      25    H16     18.239936   17.767701   25.021597 H          1 MOL1         0.3780
@<TRIPOS>BOND
    1     1     2    1
    2     1     3    1
    3     1     4    1
    4     4     5    1
    5     4     6    1
    6     4     7    1
    7     7     8    1
    8     7     9    1
    9     7    10    1
   10    10    11    1
   11    10    12    1
   12    10    13    1
   13    13    14    1
   14    13    15    1
   15    15    16    1
   16    15    17    1
   17    15    18    1
   18    18    19    1
   19    18    20    1
   20     1    21    1
   21    18    21    1
   22    21    22    1
   23    21    23    1
   24    13    24    1
   25    24    25    1
@<TRIPOS>SUBSTRUCTURE
       1 MOL1            1 RESIDUE      1      MOL     
@<SCITEGIC>MOL_PROPERTY
VConf Rank
SciTegic.value.IntegerValue
793

@<SCITEGIC>MOL_PROPERTY
Conf_Id
SciTegic.value.IntegerValue
133

@<SCITEGIC>MOL_PROPERTY
Delta U+W
SciTegic.value.DoubleValue
-2.139

@<SCITEGIC>MOL_PROPERTY
U+W
SciTegic.value.DoubleValue
8.774

@<SCITEGIC>MOL_PROPERTY
Grad RMS
SciTegic.value.DoubleValue
0.000000

@<SCITEGIC>MOL_PROPERTY
U
SciTegic.value.DoubleValue
10.905

@<SCITEGIC>MOL_PROPERTY
W
SciTegic.value.DoubleValue
-2.131

@<SCITEGIC>MOL_PROPERTY
W(PB)
SciTegic.value.DoubleValue
-4.281

@<SCITEGIC>MOL_PROPERTY
W(SA)
SciTegic.value.DoubleValue
2.150

@<SCITEGIC>MOL_PROPERTY
Valence
SciTegic.value.DoubleValue
16.378

@<SCITEGIC>MOL_PROPERTY
Coulomb
SciTegic.value.DoubleValue
-8.448

@<SCITEGIC>MOL_PROPERTY
VdW
SciTegic.value.DoubleValue
2.976

@<SCITEGIC>MOL_PROPERTY
VdW6
SciTegic.value.DoubleValue
-12.570

@<SCITEGIC>MOL_PROPERTY
VdW12
SciTegic.value.DoubleValue
15.545

@<SCITEGIC>MOL_PROPERTY
Bond
SciTegic.value.DoubleValue
0.439

@<SCITEGIC>MOL_PROPERTY
Angle
SciTegic.value.DoubleValue
5.049

@<SCITEGIC>MOL_PROPERTY
Pdih
SciTegic.value.DoubleValue
10.889

@<SCITEGIC>MOL_PROPERTY
Idih
SciTegic.value.DoubleValue
0.000

@<SCITEGIC>MOL_PROPERTY
Tether
SciTegic.value.DoubleValue
0.000

@<TRIPOS>MOLECULE
guest-s17_confgen4.mol2 : confsearch ligand conformer 794
          25          25           1
SMALL
USER_CHARGES
 
@<TRIPOS>ATOM
       1    C1      21.381568   20.391410   21.744567 C.3        1 MOL1        -0.1684
       2    H1      22.084514   21.011819   21.171813 H          1 MOL1         0.0833
       3    H2      20.753144   21.114576   22.276467 H          1 MOL1         0.0833
       4    C2      22.200690   19.538614   22.748210 C.3        1 MOL1        -0.1684
       5    H3      22.420954   18.545585   22.335916 H          1 MOL1         0.0833
       6    H4      23.180195   20.021307   22.869000 H          1 MOL1         0.0833
       7    C3      21.577094   19.420641   24.163866 C.3        1 MOL1        -0.1684
       8    H5      21.412266   20.426262   24.574412 H          1 MOL1         0.0833
       9    H6      22.324321   18.953768   24.819957 H          1 MOL1         0.0833
      10    C4      20.266222   18.597961   24.281343 C.3        1 MOL1        -0.1760
      11    H7      20.417240   17.579113   23.905496 H          1 MOL1         0.0833
      12    H8      20.058632   18.479030   25.353394 H          1 MOL1         0.0833
      13    C5      19.030910   19.255326   23.613467 C.3        1 MOL1         0.1219
      14    H9      19.224451   20.326547   23.483525 H          1 MOL1         0.0790
      15    C6      18.630081   18.639547   22.250419 C.3        1 MOL1        -0.1760
      16    H10     18.113092   17.689529   22.442006 H          1 MOL1         0.0833
      17    H11     17.891062   19.295320   21.772371 H          1 MOL1         0.0833
      18    C7      19.771173   18.351466   21.240991 C.3        1 MOL1        -0.1684
      19    H12     19.320637   17.853620   20.371586 H          1 MOL1         0.0833
      20    H13     20.468487   17.612351   21.651790 H          1 MOL1         0.0833
      21    C8      20.544117   19.587363   20.716150 C.3        1 MOL1        -0.1684
      22    H14     19.843168   20.269255   20.215887 H          1 MOL1         0.0833
      23    H15     21.227196   19.236620   19.930409 H          1 MOL1         0.0833
      24    O1      17.916737   19.115973   24.487944 O.3        1 MOL1        -0.5508
      25    H16     17.164420   19.577911   24.062420 H          1 MOL1         0.3780
@<TRIPOS>BOND
    1     1     2    1
    2     1     3    1
    3     1     4    1
    4     4     5    1
    5     4     6    1
    6     4     7    1
    7     7     8    1
    8     7     9    1
    9     7    10    1
   10    10    11    1
   11    10    12    1
   12    10    13    1
   13    13    14    1
   14    13    15    1
   15    15    16    1
   16    15    17    1
   17    15    18    1
   18    18    19    1
   19    18    20    1
   20     1    21    1
   21    18    21    1
   22    21    22    1
   23    21    23    1
   24    13    24    1
   25    24    25    1
@<TRIPOS>SUBSTRUCTURE
       1 MOL1            1 RESIDUE      1      MOL     
@<SCITEGIC>MOL_PROPERTY
VConf Rank
SciTegic.value.IntegerValue
794

@<SCITEGIC>MOL_PROPERTY
Conf_Id
SciTegic.value.IntegerValue
95

@<SCITEGIC>MOL_PROPERTY
Delta U+W
SciTegic.value.DoubleValue
-2.190

@<SCITEGIC>MOL_PROPERTY
U+W
SciTegic.value.DoubleValue
8.723

@<SCITEGIC>MOL_PROPERTY
Grad RMS
SciTegic.value.DoubleValue
0.000000

@<SCITEGIC>MOL_PROPERTY
U
SciTegic.value.DoubleValue
10.905

@<SCITEGIC>MOL_PROPERTY
W
SciTegic.value.DoubleValue
-2.182

@<SCITEGIC>MOL_PROPERTY
W(PB)
SciTegic.value.DoubleValue
-4.296

@<SCITEGIC>MOL_PROPERTY
W(SA)
SciTegic.value.DoubleValue
2.114

@<SCITEGIC>MOL_PROPERTY
Valence
SciTegic.value.DoubleValue
16.377

@<SCITEGIC>MOL_PROPERTY
Coulomb
SciTegic.value.DoubleValue
-8.448

@<SCITEGIC>MOL_PROPERTY
VdW
SciTegic.value.DoubleValue
2.976

@<SCITEGIC>MOL_PROPERTY
VdW6
SciTegic.value.DoubleValue
-12.570

@<SCITEGIC>MOL_PROPERTY
VdW12
SciTegic.value.DoubleValue
15.546

@<SCITEGIC>MOL_PROPERTY
Bond
SciTegic.value.DoubleValue
0.439

@<SCITEGIC>MOL_PROPERTY
Angle
SciTegic.value.DoubleValue
5.049

@<SCITEGIC>MOL_PROPERTY
Pdih
SciTegic.value.DoubleValue
10.889

@<SCITEGIC>MOL_PROPERTY
Idih
SciTegic.value.DoubleValue
0.000

@<SCITEGIC>MOL_PROPERTY
Tether
SciTegic.value.DoubleValue
0.000

@<TRIPOS>MOLECULE
guest-s17_confgen4.mol2 : confsearch ligand conformer 795
          25          25           1
SMALL
USER_CHARGES
 
@<TRIPOS>ATOM
       1    C1      20.193670   20.991579   22.525529 C.3        1 MOL1        -0.1684
       2    H1      20.017504   22.074785   22.475207 H          1 MOL1         0.0833
       3    H2      21.110249   20.856086   21.942641 H          1 MOL1         0.0833
       4    C2      18.983835   20.300856   21.830243 C.3        1 MOL1        -0.1684
       5    H3      18.091922   20.903642   22.049516 H          1 MOL1         0.0833
       6    H4      19.116356   20.361265   20.741546 H          1 MOL1         0.0833
       7    C3      18.647942   18.838769   22.225176 C.3        1 MOL1        -0.1684
       8    H5      17.706600   18.567983   21.727814 H          1 MOL1         0.0833
       9    H6      18.394998   18.800863   23.289418 H          1 MOL1         0.0833
      10    C4      19.690972   17.739858   21.863231 C.3        1 MOL1        -0.1760
      11    H7      19.515647   16.861470   22.498107 H          1 MOL1         0.0833
      12    H8      19.471339   17.413866   20.838168 H          1 MOL1         0.0833
      13    C5      21.194919   18.110189   21.915111 C.3        1 MOL1         0.1219
      14    H9      21.358958   18.957863   21.241794 H          1 MOL1         0.0790
      15    C6      21.793239   18.433902   23.314330 C.3        1 MOL1        -0.1760
      16    H10     22.098264   17.486509   23.778787 H          1 MOL1         0.0833
      17    H11     22.720191   19.003118   23.169269 H          1 MOL1         0.0833
      18    C7      20.902552   19.175908   24.347346 C.3        1 MOL1        -0.1684
      19    H12     21.456378   19.215124   25.295212 H          1 MOL1         0.0833
      20    H13     20.032125   18.556399   24.585331 H          1 MOL1         0.0833
      21    C8      20.469858   20.632671   24.009524 C.3        1 MOL1        -0.1684
      22    H14     21.268810   21.301731   24.357236 H          1 MOL1         0.0833
      23    H15     19.589348   20.890625   24.613349 H          1 MOL1         0.0833
      24    O1      21.922793   17.006434   21.389240 O.3        1 MOL1        -0.5508
      25    H16     21.584612   16.850453   20.482951 H          1 MOL1         0.3780
@<TRIPOS>BOND
    1     1     2    1
    2     1     3    1
    3     1     4    1
    4     4     5    1
    5     4     6    1
    6     4     7    1
    7     7     8    1
    8     7     9    1
    9     7    10    1
   10    10    11    1
   11    10    12    1
   12    10    13    1
   13    13    14    1
   14    13    15    1
   15    15    16    1
   16    15    17    1
   17    15    18    1
   18    18    19    1
   19    18    20    1
   20     1    21    1
   21    18    21    1
   22    21    22    1
   23    21    23    1
   24    13    24    1
   25    24    25    1
@<TRIPOS>SUBSTRUCTURE
       1 MOL1            1 RESIDUE      1      MOL     
@<SCITEGIC>MOL_PROPERTY
VConf Rank
SciTegic.value.IntegerValue
795

@<SCITEGIC>MOL_PROPERTY
Conf_Id
SciTegic.value.IntegerValue
161

@<SCITEGIC>MOL_PROPERTY
Delta U+W
SciTegic.value.DoubleValue
2.120

@<SCITEGIC>MOL_PROPERTY
U+W
SciTegic.value.DoubleValue
13.033

@<SCITEGIC>MOL_PROPERTY
Grad RMS
SciTegic.value.DoubleValue
0.000000

@<SCITEGIC>MOL_PROPERTY
U
SciTegic.value.DoubleValue
15.076

@<SCITEGIC>MOL_PROPERTY
W
SciTegic.value.DoubleValue
-2.043

@<SCITEGIC>MOL_PROPERTY
W(PB)
SciTegic.value.DoubleValue
-4.186

@<SCITEGIC>MOL_PROPERTY
W(SA)
SciTegic.value.DoubleValue
2.143

@<SCITEGIC>MOL_PROPERTY
Valence
SciTegic.value.DoubleValue
18.884

@<SCITEGIC>MOL_PROPERTY
Coulomb
SciTegic.value.DoubleValue
-8.074

@<SCITEGIC>MOL_PROPERTY
VdW
SciTegic.value.DoubleValue
4.266

@<SCITEGIC>MOL_PROPERTY
VdW6
SciTegic.value.DoubleValue
-13.486

@<SCITEGIC>MOL_PROPERTY
VdW12
SciTegic.value.DoubleValue
17.752

@<SCITEGIC>MOL_PROPERTY
Bond
SciTegic.value.DoubleValue
0.713

@<SCITEGIC>MOL_PROPERTY
Angle
SciTegic.value.DoubleValue
8.955

@<SCITEGIC>MOL_PROPERTY
Pdih
SciTegic.value.DoubleValue
9.215

@<SCITEGIC>MOL_PROPERTY
Idih
SciTegic.value.DoubleValue
0.000

@<SCITEGIC>MOL_PROPERTY
Tether
SciTegic.value.DoubleValue
0.000

@<TRIPOS>MOLECULE
guest-s17_confgen4.mol2 : confsearch ligand conformer 796
          25          25           1
SMALL
USER_CHARGES
 
@<TRIPOS>ATOM
       1    C1      21.614022   17.712572   22.599601 C.3        1 MOL1        -0.1684
       2    H1      22.292768   16.896337   22.316666 H          1 MOL1         0.0833
       3    H2      21.520918   17.633235   23.690138 H          1 MOL1         0.0833
       4    C2      20.241927   17.447146   21.931333 C.3        1 MOL1        -0.1684
       5    H3      20.216772   17.860250   20.914033 H          1 MOL1         0.0833
       6    H4      20.154690   16.359215   21.804973 H          1 MOL1         0.0833
       7    C3      19.005740   17.904632   22.754667 C.3        1 MOL1        -0.1684
       8    H5      19.160078   17.735184   23.828796 H          1 MOL1         0.0833
       9    H6      18.174790   17.243239   22.473094 H          1 MOL1         0.0833
      10    C4      18.532891   19.357184   22.488248 C.3        1 MOL1        -0.1760
      11    H7      18.701280   19.616298   21.435882 H          1 MOL1         0.0833
      12    H8      17.442417   19.381273   22.614423 H          1 MOL1         0.0833
      13    C5      19.108595   20.447984   23.426625 C.3        1 MOL1         0.1219
      14    H9      18.665474   20.304512   24.422534 H          1 MOL1         0.0790
      15    C6      20.644850   20.464664   23.601341 C.3        1 MOL1        -0.1760
      16    H10     20.925229   21.406577   24.091515 H          1 MOL1         0.0833
      17    H11     20.929766   19.688265   24.319526 H          1 MOL1         0.0833
      18    C7      21.454386   20.325371   22.284345 C.3        1 MOL1        -0.1684
      19    H12     22.123479   21.191221   22.187658 H          1 MOL1         0.0833
      20    H13     20.798795   20.376894   21.407621 H          1 MOL1         0.0833
      21    C8      22.313319   19.040559   22.205778 C.3        1 MOL1        -0.1684
      22    H14     23.195391   19.166090   22.848430 H          1 MOL1         0.0833
      23    H15     22.700574   18.947807   21.181956 H          1 MOL1         0.0833
      24    O1      18.705933   21.714719   22.925016 O.3        1 MOL1        -0.5508
      25    H16     19.228856   21.858830   22.110404 H          1 MOL1         0.3780
@<TRIPOS>BOND
    1     1     2    1
    2     1     3    1
    3     1     4    1
    4     4     5    1
    5     4     6    1
    6     4     7    1
    7     7     8    1
    8     7     9    1
    9     7    10    1
   10    10    11    1
   11    10    12    1
   12    10    13    1
   13    13    14    1
   14    13    15    1
   15    15    16    1
   16    15    17    1
   17    15    18    1
   18    18    19    1
   19    18    20    1
   20     1    21    1
   21    18    21    1
   22    21    22    1
   23    21    23    1
   24    13    24    1
   25    24    25    1
@<TRIPOS>SUBSTRUCTURE
       1 MOL1            1 RESIDUE      1      MOL     
@<SCITEGIC>MOL_PROPERTY
VConf Rank
SciTegic.value.IntegerValue
796

@<SCITEGIC>MOL_PROPERTY
Conf_Id
SciTegic.value.IntegerValue
164

@<SCITEGIC>MOL_PROPERTY
Delta U+W
SciTegic.value.DoubleValue
0.008

@<SCITEGIC>MOL_PROPERTY
U+W
SciTegic.value.DoubleValue
10.922

@<SCITEGIC>MOL_PROPERTY
Grad RMS
SciTegic.value.DoubleValue
0.000000

@<SCITEGIC>MOL_PROPERTY
U
SciTegic.value.DoubleValue
12.433

@<SCITEGIC>MOL_PROPERTY
W
SciTegic.value.DoubleValue
-1.511

@<SCITEGIC>MOL_PROPERTY
W(PB)
SciTegic.value.DoubleValue
-3.669

@<SCITEGIC>MOL_PROPERTY
W(SA)
SciTegic.value.DoubleValue
2.157

@<SCITEGIC>MOL_PROPERTY
Valence
SciTegic.value.DoubleValue
19.007

@<SCITEGIC>MOL_PROPERTY
Coulomb
SciTegic.value.DoubleValue
-9.373

@<SCITEGIC>MOL_PROPERTY
VdW
SciTegic.value.DoubleValue
2.799

@<SCITEGIC>MOL_PROPERTY
VdW6
SciTegic.value.DoubleValue
-12.597

@<SCITEGIC>MOL_PROPERTY
VdW12
SciTegic.value.DoubleValue
15.396

@<SCITEGIC>MOL_PROPERTY
Bond
SciTegic.value.DoubleValue
0.425

@<SCITEGIC>MOL_PROPERTY
Angle
SciTegic.value.DoubleValue
4.784

@<SCITEGIC>MOL_PROPERTY
Pdih
SciTegic.value.DoubleValue
13.799

@<SCITEGIC>MOL_PROPERTY
Idih
SciTegic.value.DoubleValue
0.000

@<SCITEGIC>MOL_PROPERTY
Tether
SciTegic.value.DoubleValue
0.000

@<TRIPOS>MOLECULE
guest-s17_confgen4.mol2 : confsearch ligand conformer 797
          25          25           1
SMALL
USER_CHARGES
 
@<TRIPOS>ATOM
       1    C1      21.364051   20.382196   21.725548 C.3        1 MOL1        -0.1684
       2    H1      20.391701   20.419636   21.221509 H          1 MOL1         0.0833
       3    H2      21.991390   21.091429   21.168676 H          1 MOL1         0.0833
       4    C2      22.002363   18.979829   21.565413 C.3        1 MOL1        -0.1684
       5    H3      22.126920   18.796166   20.489469 H          1 MOL1         0.0833
       6    H4      23.017945   18.993505   21.983640 H          1 MOL1         0.0833
       7    C3      21.227888   17.778133   22.164477 C.3        1 MOL1        -0.1684
       8    H5      21.439734   17.678734   23.235133 H          1 MOL1         0.0833
       9    H6      21.646680   16.866850   21.715947 H          1 MOL1         0.0833
      10    C4      19.696758   17.783607   21.910728 C.3        1 MOL1        -0.1760
      11    H7      19.448897   18.369963   21.017681 H          1 MOL1         0.0833
      12    H8      19.402018   16.752849   21.672182 H          1 MOL1         0.0833
      13    C5      18.837239   18.231450   23.119503 C.3        1 MOL1         0.1219
      14    H9      19.123896   17.621693   23.988193 H          1 MOL1         0.0790
      15    C6      18.935212   19.723865   23.523951 C.3        1 MOL1        -0.1760
      16    H10     18.662291   20.374036   22.683968 H          1 MOL1         0.0833
      17    H11     18.166845   19.899813   24.288734 H          1 MOL1         0.0833
      18    C7      20.298121   20.147002   24.134046 C.3        1 MOL1        -0.1684
      19    H12     20.810985   19.280667   24.567056 H          1 MOL1         0.0833
      20    H13     20.100699   20.805724   24.990850 H          1 MOL1         0.0833
      21    C8      21.242599   20.915560   23.174856 C.3        1 MOL1        -0.1684
      22    H14     22.242355   20.969560   23.626607 H          1 MOL1         0.0833
      23    H15     20.887686   21.953494   23.114589 H          1 MOL1         0.0833
      24    O1      17.478330   17.958287   22.806538 O.3        1 MOL1        -0.5508
      25    H16     17.256037   18.514758   22.032127 H          1 MOL1         0.3780
@<TRIPOS>BOND
    1     1     2    1
    2     1     3    1
    3     1     4    1
    4     4     5    1
    5     4     6    1
    6     4     7    1
    7     7     8    1
    8     7     9    1
    9     7    10    1
   10    10    11    1
   11    10    12    1
   12    10    13    1
   13    13    14    1
   14    13    15    1
   15    15    16    1
   16    15    17    1
   17    15    18    1
   18    18    19    1
   19    18    20    1
   20     1    21    1
   21    18    21    1
   22    21    22    1
   23    21    23    1
   24    13    24    1
   25    24    25    1
@<TRIPOS>SUBSTRUCTURE
       1 MOL1            1 RESIDUE      1      MOL     
@<SCITEGIC>MOL_PROPERTY
VConf Rank
SciTegic.value.IntegerValue
797

@<SCITEGIC>MOL_PROPERTY
Conf_Id
SciTegic.value.IntegerValue
15

@<SCITEGIC>MOL_PROPERTY
Delta U+W
SciTegic.value.DoubleValue
-1.271

@<SCITEGIC>MOL_PROPERTY
U+W
SciTegic.value.DoubleValue
9.643

@<SCITEGIC>MOL_PROPERTY
Grad RMS
SciTegic.value.DoubleValue
0.000000

@<SCITEGIC>MOL_PROPERTY
U
SciTegic.value.DoubleValue
11.413

@<SCITEGIC>MOL_PROPERTY
W
SciTegic.value.DoubleValue
-1.770

@<SCITEGIC>MOL_PROPERTY
W(PB)
SciTegic.value.DoubleValue
-3.908

@<SCITEGIC>MOL_PROPERTY
W(SA)
SciTegic.value.DoubleValue
2.138

@<SCITEGIC>MOL_PROPERTY
Valence
SciTegic.value.DoubleValue
17.496

@<SCITEGIC>MOL_PROPERTY
Coulomb
SciTegic.value.DoubleValue
-8.736

@<SCITEGIC>MOL_PROPERTY
VdW
SciTegic.value.DoubleValue
2.653

@<SCITEGIC>MOL_PROPERTY
VdW6
SciTegic.value.DoubleValue
-12.485

@<SCITEGIC>MOL_PROPERTY
VdW12
SciTegic.value.DoubleValue
15.138

@<SCITEGIC>MOL_PROPERTY
Bond
SciTegic.value.DoubleValue
0.414

@<SCITEGIC>MOL_PROPERTY
Angle
SciTegic.value.DoubleValue
5.295

@<SCITEGIC>MOL_PROPERTY
Pdih
SciTegic.value.DoubleValue
11.787

@<SCITEGIC>MOL_PROPERTY
Idih
SciTegic.value.DoubleValue
0.000

@<SCITEGIC>MOL_PROPERTY
Tether
SciTegic.value.DoubleValue
0.000

@<TRIPOS>MOLECULE
guest-s17_confgen4.mol2 : confsearch ligand conformer 798
          25          25           1
SMALL
USER_CHARGES
 
@<TRIPOS>ATOM
       1    C1      19.254803   18.033052   23.684873 C.3        1 MOL1        -0.1684
       2    H1      18.789780   17.223145   24.263479 H          1 MOL1         0.0833
       3    H2      18.412393   18.582314   23.245758 H          1 MOL1         0.0833
       4    C2      20.024082   18.926329   24.693383 C.3        1 MOL1        -0.1684
       5    H3      19.288058   19.414987   25.346304 H          1 MOL1         0.0833
       6    H4      20.625673   18.283607   25.350476 H          1 MOL1         0.0833
       7    C3      20.951558   20.010469   24.093581 C.3        1 MOL1        -0.1684
       8    H5      21.888538   19.548588   23.761159 H          1 MOL1         0.0833
       9    H6      21.246671   20.692257   24.902816 H          1 MOL1         0.0833
      10    C4      20.303363   20.839989   22.954638 C.3        1 MOL1        -0.1760
      11    H7      19.232783   20.622003   22.872601 H          1 MOL1         0.0833
      12    H8      20.354884   21.902330   23.226619 H          1 MOL1         0.0833
      13    C5      20.984592   20.678407   21.576201 C.3        1 MOL1         0.1219
      14    H9      21.937519   21.225762   21.610291 H          1 MOL1         0.0790
      15    C6      21.306775   19.229381   21.127870 C.3        1 MOL1        -0.1760
      16    H10     21.622033   19.281674   20.077055 H          1 MOL1         0.0833
      17    H11     22.191272   18.859836   21.660425 H          1 MOL1         0.0833
      18    C7      20.159635   18.189150   21.232899 C.3        1 MOL1        -0.1684
      19    H12     20.322584   17.456533   20.430489 H          1 MOL1         0.0833
      20    H13     19.186995   18.647310   21.011825 H          1 MOL1         0.0833
      21    C8      20.109372   17.390353   22.564505 C.3        1 MOL1        -0.1684
      22    H14     21.119727   17.159407   22.927867 H          1 MOL1         0.0833
      23    H15     19.653886   16.417259   22.334731 H          1 MOL1         0.0833
      24    O1      20.149456   21.278125   20.595746 O.3        1 MOL1        -0.5508
      25    H16     19.358204   20.706279   20.532046 H          1 MOL1         0.3780
@<TRIPOS>BOND
    1     1     2    1
    2     1     3    1
    3     1     4    1
    4     4     5    1
    5     4     6    1
    6     4     7    1
    7     7     8    1
    8     7     9    1
    9     7    10    1
   10    10    11    1
   11    10    12    1
   12    10    13    1
   13    13    14    1
   14    13    15    1
   15    15    16    1
   16    15    17    1
   17    15    18    1
   18    18    19    1
   19    18    20    1
   20     1    21    1
   21    18    21    1
   22    21    22    1
   23    21    23    1
   24    13    24    1
   25    24    25    1
@<TRIPOS>SUBSTRUCTURE
       1 MOL1            1 RESIDUE      1      MOL     
@<SCITEGIC>MOL_PROPERTY
VConf Rank
SciTegic.value.IntegerValue
798

@<SCITEGIC>MOL_PROPERTY
Conf_Id
SciTegic.value.IntegerValue
115

@<SCITEGIC>MOL_PROPERTY
Delta U+W
SciTegic.value.DoubleValue
0.038

@<SCITEGIC>MOL_PROPERTY
U+W
SciTegic.value.DoubleValue
10.952

@<SCITEGIC>MOL_PROPERTY
Grad RMS
SciTegic.value.DoubleValue
0.000000

@<SCITEGIC>MOL_PROPERTY
U
SciTegic.value.DoubleValue
12.526

@<SCITEGIC>MOL_PROPERTY
W
SciTegic.value.DoubleValue
-1.575

@<SCITEGIC>MOL_PROPERTY
W(PB)
SciTegic.value.DoubleValue
-3.698

@<SCITEGIC>MOL_PROPERTY
W(SA)
SciTegic.value.DoubleValue
2.123

@<SCITEGIC>MOL_PROPERTY
Valence
SciTegic.value.DoubleValue
19.016

@<SCITEGIC>MOL_PROPERTY
Coulomb
SciTegic.value.DoubleValue
-9.226

@<SCITEGIC>MOL_PROPERTY
VdW
SciTegic.value.DoubleValue
2.737

@<SCITEGIC>MOL_PROPERTY
VdW6
SciTegic.value.DoubleValue
-12.612

@<SCITEGIC>MOL_PROPERTY
VdW12
SciTegic.value.DoubleValue
15.349

@<SCITEGIC>MOL_PROPERTY
Bond
SciTegic.value.DoubleValue
0.421

@<SCITEGIC>MOL_PROPERTY
Angle
SciTegic.value.DoubleValue
4.883

@<SCITEGIC>MOL_PROPERTY
Pdih
SciTegic.value.DoubleValue
13.711

@<SCITEGIC>MOL_PROPERTY
Idih
SciTegic.value.DoubleValue
0.000

@<SCITEGIC>MOL_PROPERTY
Tether
SciTegic.value.DoubleValue
0.000

@<TRIPOS>MOLECULE
guest-s17_confgen4.mol2 : confsearch ligand conformer 799
          25          25           1
SMALL
USER_CHARGES
 
@<TRIPOS>ATOM
       1    C1      20.937696   19.798812   24.638737 C.3        1 MOL1        -0.1684
       2    H1      20.750668   20.045248   25.692907 H          1 MOL1         0.0833
       3    H2      22.021154   19.635050   24.562734 H          1 MOL1         0.0833
       4    C2      20.526456   21.029899   23.797997 C.3        1 MOL1        -0.1684
       5    H3      19.467853   21.267414   23.969871 H          1 MOL1         0.0833
       6    H4      21.088332   21.892338   24.182045 H          1 MOL1         0.0833
       7    C3      20.808729   20.914799   22.282092 C.3        1 MOL1        -0.1684
       8    H5      21.790323   20.453094   22.110976 H          1 MOL1         0.0833
       9    H6      20.893888   21.935800   21.885269 H          1 MOL1         0.0833
      10    C4      19.693995   20.193648   21.477573 C.3        1 MOL1        -0.1760
      11    H7      18.777268   20.089818   22.071407 H          1 MOL1         0.0833
      12    H8      19.424377   20.845339   20.635453 H          1 MOL1         0.0833
      13    C5      20.108221   18.820989   20.901224 C.3        1 MOL1         0.1219
      14    H9      21.163877   18.866479   20.597592 H          1 MOL1         0.0790
      15    C6      19.914779   17.631494   21.867720 C.3        1 MOL1        -0.1760
      16    H10     18.853877   17.533289   22.133109 H          1 MOL1         0.0833
      17    H11     20.171756   16.715096   21.320371 H          1 MOL1         0.0833
      18    C7      20.783042   17.668644   23.148894 C.3        1 MOL1        -0.1684
      19    H12     21.802012   18.002075   22.911080 H          1 MOL1         0.0833
      20    H13     20.890808   16.633344   23.500705 H          1 MOL1         0.0833
      21    C8      20.175165   18.492846   24.313875 C.3        1 MOL1        -0.1684
      22    H14     20.208401   17.863209   25.213684 H          1 MOL1         0.0833
      23    H15     19.110437   18.702444   24.145798 H          1 MOL1         0.0833
      24    O1      19.312636   18.569122   19.749158 O.3        1 MOL1        -0.5508
      25    H16     19.626093   17.722470   19.368028 H          1 MOL1         0.3780
@<TRIPOS>BOND
    1     1     2    1
    2     1     3    1
    3     1     4    1
    4     4     5    1
    5     4     6    1
    6     4     7    1
    7     7     8    1
    8     7     9    1
    9     7    10    1
   10    10    11    1
   11    10    12    1
   12    10    13    1
   13    13    14    1
   14    13    15    1
   15    15    16    1
   16    15    17    1
   17    15    18    1
   18    18    19    1
   19    18    20    1
   20     1    21    1
   21    18    21    1
   22    21    22    1
   23    21    23    1
   24    13    24    1
   25    24    25    1
@<TRIPOS>SUBSTRUCTURE
       1 MOL1            1 RESIDUE      1      MOL     
@<SCITEGIC>MOL_PROPERTY
VConf Rank
SciTegic.value.IntegerValue
799

@<SCITEGIC>MOL_PROPERTY
Conf_Id
SciTegic.value.IntegerValue
30

@<SCITEGIC>MOL_PROPERTY
Delta U+W
SciTegic.value.DoubleValue
0.000

@<SCITEGIC>MOL_PROPERTY
U+W
SciTegic.value.DoubleValue
10.913

@<SCITEGIC>MOL_PROPERTY
Grad RMS
SciTegic.value.DoubleValue
0.000000

@<SCITEGIC>MOL_PROPERTY
U
SciTegic.value.DoubleValue
13.140

@<SCITEGIC>MOL_PROPERTY
W
SciTegic.value.DoubleValue
-2.227

@<SCITEGIC>MOL_PROPERTY
W(PB)
SciTegic.value.DoubleValue
-4.367

@<SCITEGIC>MOL_PROPERTY
W(SA)
SciTegic.value.DoubleValue
2.140

@<SCITEGIC>MOL_PROPERTY
Valence
SciTegic.value.DoubleValue
19.155

@<SCITEGIC>MOL_PROPERTY
Coulomb
SciTegic.value.DoubleValue
-8.157

@<SCITEGIC>MOL_PROPERTY
VdW
SciTegic.value.DoubleValue
2.142

@<SCITEGIC>MOL_PROPERTY
VdW6
SciTegic.value.DoubleValue
-11.576

@<SCITEGIC>MOL_PROPERTY
VdW12
SciTegic.value.DoubleValue
13.718

@<SCITEGIC>MOL_PROPERTY
Bond
SciTegic.value.DoubleValue
0.294

@<SCITEGIC>MOL_PROPERTY
Angle
SciTegic.value.DoubleValue
3.547

@<SCITEGIC>MOL_PROPERTY
Pdih
SciTegic.value.DoubleValue
15.314

@<SCITEGIC>MOL_PROPERTY
Idih
SciTegic.value.DoubleValue
0.000

@<SCITEGIC>MOL_PROPERTY
Tether
SciTegic.value.DoubleValue
0.000

@<TRIPOS>MOLECULE
guest-s17_confgen4.mol2 : confsearch ligand conformer 800
          25          25           1
SMALL
USER_CHARGES
 
@<TRIPOS>ATOM
       1    C1      19.257943   17.776836   23.808205 C.3        1 MOL1        -0.1684
       2    H1      19.124552   16.692047   23.697313 H          1 MOL1         0.0833
       3    H2      18.654787   18.062271   24.680845 H          1 MOL1         0.0833
       4    C2      18.664717   18.474754   22.559576 C.3        1 MOL1        -0.1684
       5    H3      17.700885   17.999183   22.332135 H          1 MOL1         0.0833
       6    H4      18.410305   19.512608   22.803888 H          1 MOL1         0.0833
       7    C3      19.562078   18.402155   21.298119 C.3        1 MOL1        -0.1684
       8    H5      18.983821   17.953079   20.479195 H          1 MOL1         0.0833
       9    H6      20.404543   17.718195   21.453326 H          1 MOL1         0.0833
      10    C4      20.088011   19.777986   20.816415 C.3        1 MOL1        -0.1760
      11    H7      20.853487   19.606816   20.047970 H          1 MOL1         0.0833
      12    H8      19.268071   20.306152   20.312525 H          1 MOL1         0.0833
      13    C5      20.662121   20.725847   21.899066 C.3        1 MOL1         0.1219
      14    H9      19.839905   21.104684   22.520702 H          1 MOL1         0.0790
      15    C6      21.731985   20.095809   22.824127 C.3        1 MOL1        -0.1760
      16    H10     22.304287   19.332872   22.281036 H          1 MOL1         0.0833
      17    H11     22.460894   20.875269   23.083223 H          1 MOL1         0.0833
      18    C7      21.187152   19.529516   24.165850 C.3        1 MOL1        -0.1684
      19    H12     20.380687   20.159247   24.565191 H          1 MOL1         0.0833
      20    H13     22.003384   19.602769   24.897721 H          1 MOL1         0.0833
      21    C8      20.754007   18.043113   24.123522 C.3        1 MOL1        -0.1684
      22    H14     20.955155   17.605067   25.110802 H          1 MOL1         0.0833
      23    H15     21.399381   17.484183   23.434015 H          1 MOL1         0.0833
      24    O1      21.248571   21.830932   21.221512 O.3        1 MOL1        -0.5508
      25    H16     21.537908   22.463909   21.911497 H          1 MOL1         0.3780
@<TRIPOS>BOND
    1     1     2    1
    2     1     3    1
    3     1     4    1
    4     4     5    1
    5     4     6    1
    6     4     7    1
    7     7     8    1
    8     7     9    1
    9     7    10    1
   10    10    11    1
   11    10    12    1
   12    10    13    1
   13    13    14    1
   14    13    15    1
   15    15    16    1
   16    15    17    1
   17    15    18    1
   18    18    19    1
   19    18    20    1
   20     1    21    1
   21    18    21    1
   22    21    22    1
   23    21    23    1
   24    13    24    1
   25    24    25    1
@<TRIPOS>SUBSTRUCTURE
       1 MOL1            1 RESIDUE      1      MOL     
@<SCITEGIC>MOL_PROPERTY
VConf Rank
SciTegic.value.IntegerValue
800

@<SCITEGIC>MOL_PROPERTY
Conf_Id
SciTegic.value.IntegerValue
162

@<SCITEGIC>MOL_PROPERTY
Delta U+W
SciTegic.value.DoubleValue
0.219

@<SCITEGIC>MOL_PROPERTY
U+W
SciTegic.value.DoubleValue
11.132

@<SCITEGIC>MOL_PROPERTY
Grad RMS
SciTegic.value.DoubleValue
0.000000

@<SCITEGIC>MOL_PROPERTY
U
SciTegic.value.DoubleValue
13.296

@<SCITEGIC>MOL_PROPERTY
W
SciTegic.value.DoubleValue
-2.164

@<SCITEGIC>MOL_PROPERTY
W(PB)
SciTegic.value.DoubleValue
-4.311

@<SCITEGIC>MOL_PROPERTY
W(SA)
SciTegic.value.DoubleValue
2.148

@<SCITEGIC>MOL_PROPERTY
Valence
SciTegic.value.DoubleValue
18.607

@<SCITEGIC>MOL_PROPERTY
Coulomb
SciTegic.value.DoubleValue
-8.339

@<SCITEGIC>MOL_PROPERTY
VdW
SciTegic.value.DoubleValue
3.028

@<SCITEGIC>MOL_PROPERTY
VdW6
SciTegic.value.DoubleValue
-12.271

@<SCITEGIC>MOL_PROPERTY
VdW12
SciTegic.value.DoubleValue
15.299

@<SCITEGIC>MOL_PROPERTY
Bond
SciTegic.value.DoubleValue
0.423

@<SCITEGIC>MOL_PROPERTY
Angle
SciTegic.value.DoubleValue
4.488

@<SCITEGIC>MOL_PROPERTY
Pdih
SciTegic.value.DoubleValue
13.696

@<SCITEGIC>MOL_PROPERTY
Idih
SciTegic.value.DoubleValue
0.000

@<SCITEGIC>MOL_PROPERTY
Tether
SciTegic.value.DoubleValue
0.000

@<TRIPOS>MOLECULE
guest-s17_confgen4.mol2 : confsearch ligand conformer 801
          25          25           1
SMALL
USER_CHARGES
 
@<TRIPOS>ATOM
       1    C1      20.014164   19.219617   20.697795 C.3        1 MOL1        -0.1684
       2    H1      18.942176   19.262911   20.928362 H          1 MOL1         0.0833
       3    H2      20.065682   19.248965   19.600776 H          1 MOL1         0.0833
       4    C2      20.723746   20.483808   21.243704 C.3        1 MOL1        -0.1684
       5    H3      21.803363   20.310787   21.347250 H          1 MOL1         0.0833
       6    H4      20.626663   21.261129   20.473323 H          1 MOL1         0.0833
       7    C3      20.120786   21.068544   22.551405 C.3        1 MOL1        -0.1684
       8    H5      19.026287   20.978087   22.558882 H          1 MOL1         0.0833
       9    H6      20.322677   22.148454   22.538559 H          1 MOL1         0.0833
      10    C4      20.729160   20.514359   23.865920 C.3        1 MOL1        -0.1760
      11    H7      21.793491   20.291833   23.721085 H          1 MOL1         0.0833
      12    H8      20.707887   21.320267   24.611087 H          1 MOL1         0.0833
      13    C5      20.001627   19.304159   24.504227 C.3        1 MOL1         0.1219
      14    H9      19.042584   19.661731   24.906060 H          1 MOL1         0.0790
      15    C6      19.691299   18.116603   23.562175 C.3        1 MOL1        -0.1760
      16    H10     19.376682   17.259742   24.171933 H          1 MOL1         0.0833
      17    H11     18.809447   18.361144   22.960416 H          1 MOL1         0.0833
      18    C7      20.873736   17.677849   22.658399 C.3        1 MOL1        -0.1684
      19    H12     21.086769   16.616803   22.845907 H          1 MOL1         0.0833
      20    H13     21.795635   18.201110   22.938417 H          1 MOL1         0.0833
      21    C8      20.614840   17.859897   21.143270 C.3        1 MOL1        -0.1684
      22    H14     19.941861   17.061312   20.802538 H          1 MOL1         0.0833
      23    H15     21.562360   17.699066   20.611242 H          1 MOL1         0.0833
      24    O1      20.804928   18.831811   25.579259 O.3        1 MOL1        -0.5508
      25    H16     20.332861   18.067334   25.968934 H          1 MOL1         0.3780
@<TRIPOS>BOND
    1     1     2    1
    2     1     3    1
    3     1     4    1
    4     4     5    1
    5     4     6    1
    6     4     7    1
    7     7     8    1
    8     7     9    1
    9     7    10    1
   10    10    11    1
   11    10    12    1
   12    10    13    1
   13    13    14    1
   14    13    15    1
   15    15    16    1
   16    15    17    1
   17    15    18    1
   18    18    19    1
   19    18    20    1
   20     1    21    1
   21    18    21    1
   22    21    22    1
   23    21    23    1
   24    13    24    1
   25    24    25    1
@<TRIPOS>SUBSTRUCTURE
       1 MOL1            1 RESIDUE      1      MOL     
@<SCITEGIC>MOL_PROPERTY
VConf Rank
SciTegic.value.IntegerValue
801

@<SCITEGIC>MOL_PROPERTY
Conf_Id
SciTegic.value.IntegerValue
155

@<SCITEGIC>MOL_PROPERTY
Delta U+W
SciTegic.value.DoubleValue
0.339

@<SCITEGIC>MOL_PROPERTY
U+W
SciTegic.value.DoubleValue
11.252

@<SCITEGIC>MOL_PROPERTY
Grad RMS
SciTegic.value.DoubleValue
0.000000

@<SCITEGIC>MOL_PROPERTY
U
SciTegic.value.DoubleValue
13.420

@<SCITEGIC>MOL_PROPERTY
W
SciTegic.value.DoubleValue
-2.167

@<SCITEGIC>MOL_PROPERTY
W(PB)
SciTegic.value.DoubleValue
-4.325

@<SCITEGIC>MOL_PROPERTY
W(SA)
SciTegic.value.DoubleValue
2.157

@<SCITEGIC>MOL_PROPERTY
Valence
SciTegic.value.DoubleValue
18.609

@<SCITEGIC>MOL_PROPERTY
Coulomb
SciTegic.value.DoubleValue
-8.052

@<SCITEGIC>MOL_PROPERTY
VdW
SciTegic.value.DoubleValue
2.863

@<SCITEGIC>MOL_PROPERTY
VdW6
SciTegic.value.DoubleValue
-12.524

@<SCITEGIC>MOL_PROPERTY
VdW12
SciTegic.value.DoubleValue
15.387

@<SCITEGIC>MOL_PROPERTY
Bond
SciTegic.value.DoubleValue
0.430

@<SCITEGIC>MOL_PROPERTY
Angle
SciTegic.value.DoubleValue
4.724

@<SCITEGIC>MOL_PROPERTY
Pdih
SciTegic.value.DoubleValue
13.455

@<SCITEGIC>MOL_PROPERTY
Idih
SciTegic.value.DoubleValue
0.000

@<SCITEGIC>MOL_PROPERTY
Tether
SciTegic.value.DoubleValue
0.000

@<TRIPOS>MOLECULE
guest-s17_confgen4.mol2 : confsearch ligand conformer 802
          25          25           1
SMALL
USER_CHARGES
 
@<TRIPOS>ATOM
       1    C1      19.204658   18.414108   21.239253 C.3        1 MOL1        -0.1684
       2    H1      18.131347   18.394539   21.471549 H          1 MOL1         0.0833
       3    H2      19.294685   17.974965   20.236342 H          1 MOL1         0.0833
       4    C2      19.677143   19.887768   21.130151 C.3        1 MOL1        -0.1684
       5    H3      20.715547   19.909843   20.784649 H          1 MOL1         0.0833
       6    H4      19.121953   20.353978   20.304847 H          1 MOL1         0.0833
       7    C3      19.489767   20.798217   22.378825 C.3        1 MOL1        -0.1684
       8    H5      18.474506   21.214956   22.332707 H          1 MOL1         0.0833
       9    H6      20.165250   21.660464   22.295319 H          1 MOL1         0.0833
      10    C4      19.654045   20.157876   23.784129 C.3        1 MOL1        -0.1760
      11    H7      19.348422   20.908786   24.524417 H          1 MOL1         0.0833
      12    H8      18.907709   19.368440   23.908735 H          1 MOL1         0.0833
      13    C5      21.064354   19.636694   24.188734 C.3        1 MOL1         0.1219
      14    H9      20.928608   18.876119   24.970954 H          1 MOL1         0.0790
      15    C6      21.951329   19.022633   23.076643 C.3        1 MOL1        -0.1760
      16    H10     22.151005   19.784491   22.317550 H          1 MOL1         0.0833
      17    H11     22.939608   18.827095   23.513331 H          1 MOL1         0.0833
      18    C7      21.476222   17.693418   22.416520 C.3        1 MOL1        -0.1684
      19    H12     21.845412   16.866913   23.038956 H          1 MOL1         0.0833
      20    H13     21.980748   17.578009   21.447780 H          1 MOL1         0.0833
      21    C8      19.952399   17.471982   22.227796 C.3        1 MOL1        -0.1684
      22    H14     19.462114   17.466048   23.206347 H          1 MOL1         0.0833
      23    H15     19.809659   16.445269   21.863974 H          1 MOL1         0.0833
      24    O1      21.790728   20.728892   24.741605 O.3        1 MOL1        -0.5508
      25    H16     21.251506   21.083369   25.478373 H          1 MOL1         0.3780
@<TRIPOS>BOND
    1     1     2    1
    2     1     3    1
    3     1     4    1
    4     4     5    1
    5     4     6    1
    6     4     7    1
    7     7     8    1
    8     7     9    1
    9     7    10    1
   10    10    11    1
   11    10    12    1
   12    10    13    1
   13    13    14    1
   14    13    15    1
   15    15    16    1
   16    15    17    1
   17    15    18    1
   18    18    19    1
   19    18    20    1
   20     1    21    1
   21    18    21    1
   22    21    22    1
   23    21    23    1
   24    13    24    1
   25    24    25    1
@<TRIPOS>SUBSTRUCTURE
       1 MOL1            1 RESIDUE      1      MOL     
@<SCITEGIC>MOL_PROPERTY
VConf Rank
SciTegic.value.IntegerValue
802

@<SCITEGIC>MOL_PROPERTY
Conf_Id
SciTegic.value.IntegerValue
146

@<SCITEGIC>MOL_PROPERTY
Delta U+W
SciTegic.value.DoubleValue
2.553

@<SCITEGIC>MOL_PROPERTY
U+W
SciTegic.value.DoubleValue
13.466

@<SCITEGIC>MOL_PROPERTY
Grad RMS
SciTegic.value.DoubleValue
0.000000

@<SCITEGIC>MOL_PROPERTY
U
SciTegic.value.DoubleValue
15.643

@<SCITEGIC>MOL_PROPERTY
W
SciTegic.value.DoubleValue
-2.176

@<SCITEGIC>MOL_PROPERTY
W(PB)
SciTegic.value.DoubleValue
-4.307

@<SCITEGIC>MOL_PROPERTY
W(SA)
SciTegic.value.DoubleValue
2.131

@<SCITEGIC>MOL_PROPERTY
Valence
SciTegic.value.DoubleValue
18.916

@<SCITEGIC>MOL_PROPERTY
Coulomb
SciTegic.value.DoubleValue
-7.506

@<SCITEGIC>MOL_PROPERTY
VdW
SciTegic.value.DoubleValue
4.232

@<SCITEGIC>MOL_PROPERTY
VdW6
SciTegic.value.DoubleValue
-13.632

@<SCITEGIC>MOL_PROPERTY
VdW12
SciTegic.value.DoubleValue
17.864

@<SCITEGIC>MOL_PROPERTY
Bond
SciTegic.value.DoubleValue
0.735

@<SCITEGIC>MOL_PROPERTY
Angle
SciTegic.value.DoubleValue
9.140

@<SCITEGIC>MOL_PROPERTY
Pdih
SciTegic.value.DoubleValue
9.042

@<SCITEGIC>MOL_PROPERTY
Idih
SciTegic.value.DoubleValue
0.000

@<SCITEGIC>MOL_PROPERTY
Tether
SciTegic.value.DoubleValue
0.000

@<TRIPOS>MOLECULE
guest-s17_confgen4.mol2 : confsearch ligand conformer 803
          25          25           1
SMALL
USER_CHARGES
 
@<TRIPOS>ATOM
       1    C1      18.605920   19.972832   23.582133 C.3        1 MOL1        -0.1684
       2    H1      18.434068   19.888582   24.663740 H          1 MOL1         0.0833
       3    H2      17.719942   20.483282   23.180391 H          1 MOL1         0.0833
       4    C2      18.645091   18.555125   22.958665 C.3        1 MOL1        -0.1684
       5    H3      17.669416   18.087992   23.150093 H          1 MOL1         0.0833
       6    H4      18.709615   18.620621   21.866560 H          1 MOL1         0.0833
       7    C3      19.729706   17.596546   23.511041 C.3        1 MOL1        -0.1684
       8    H5      19.556905   16.608434   23.062983 H          1 MOL1         0.0833
       9    H6      19.581128   17.463801   24.591201 H          1 MOL1         0.0833
      10    C4      21.208864   17.983407   23.250020 C.3        1 MOL1        -0.1760
      11    H7      21.545325   18.719190   23.987236 H          1 MOL1         0.0833
      12    H8      21.816654   17.091834   23.455510 H          1 MOL1         0.0833
      13    C5      21.514739   18.484936   21.815104 C.3        1 MOL1         0.1219
      14    H9      20.722430   18.151225   21.131638 H          1 MOL1         0.0790
      15    C6      21.676313   20.022092   21.701918 C.3        1 MOL1        -0.1760
      16    H10     22.445890   20.356797   22.410045 H          1 MOL1         0.0833
      17    H11     22.073274   20.248567   20.703683 H          1 MOL1         0.0833
      18    C7      20.395246   20.878583   21.893999 C.3        1 MOL1        -0.1684
      19    H12     19.621645   20.590479   21.170578 H          1 MOL1         0.0833
      20    H13     20.659356   21.912839   21.634110 H          1 MOL1         0.0833
      21    C8      19.831222   20.891323   23.338368 C.3        1 MOL1        -0.1684
      22    H14     19.516493   21.917440   23.573033 H          1 MOL1         0.0833
      23    H15     20.624647   20.677494   24.063334 H          1 MOL1         0.0833
      24    O1      22.741141   17.898480   21.393967 O.3        1 MOL1        -0.5508
      25    H16     22.886066   18.179994   20.466623 H          1 MOL1         0.3780
@<TRIPOS>BOND
    1     1     2    1
    2     1     3    1
    3     1     4    1
    4     4     5    1
    5     4     6    1
    6     4     7    1
    7     7     8    1
    8     7     9    1
    9     7    10    1
   10    10    11    1
   11    10    12    1
   12    10    13    1
   13    13    14    1
   14    13    15    1
   15    15    16    1
   16    15    17    1
   17    15    18    1
   18    18    19    1
   19    18    20    1
   20     1    21    1
   21    18    21    1
   22    21    22    1
   23    21    23    1
   24    13    24    1
   25    24    25    1
@<TRIPOS>SUBSTRUCTURE
       1 MOL1            1 RESIDUE      1      MOL     
@<SCITEGIC>MOL_PROPERTY
VConf Rank
SciTegic.value.IntegerValue
803

@<SCITEGIC>MOL_PROPERTY
Conf_Id
SciTegic.value.IntegerValue
62

@<SCITEGIC>MOL_PROPERTY
Delta U+W
SciTegic.value.DoubleValue
-1.779

@<SCITEGIC>MOL_PROPERTY
U+W
SciTegic.value.DoubleValue
9.134

@<SCITEGIC>MOL_PROPERTY
Grad RMS
SciTegic.value.DoubleValue
0.000000

@<SCITEGIC>MOL_PROPERTY
U
SciTegic.value.DoubleValue
11.364

@<SCITEGIC>MOL_PROPERTY
W
SciTegic.value.DoubleValue
-2.230

@<SCITEGIC>MOL_PROPERTY
W(PB)
SciTegic.value.DoubleValue
-4.359

@<SCITEGIC>MOL_PROPERTY
W(SA)
SciTegic.value.DoubleValue
2.129

@<SCITEGIC>MOL_PROPERTY
Valence
SciTegic.value.DoubleValue
16.582

@<SCITEGIC>MOL_PROPERTY
Coulomb
SciTegic.value.DoubleValue
-8.150

@<SCITEGIC>MOL_PROPERTY
VdW
SciTegic.value.DoubleValue
2.933

@<SCITEGIC>MOL_PROPERTY
VdW6
SciTegic.value.DoubleValue
-12.531

@<SCITEGIC>MOL_PROPERTY
VdW12
SciTegic.value.DoubleValue
15.464

@<SCITEGIC>MOL_PROPERTY
Bond
SciTegic.value.DoubleValue
0.439

@<SCITEGIC>MOL_PROPERTY
Angle
SciTegic.value.DoubleValue
5.099

@<SCITEGIC>MOL_PROPERTY
Pdih
SciTegic.value.DoubleValue
11.044

@<SCITEGIC>MOL_PROPERTY
Idih
SciTegic.value.DoubleValue
0.000

@<SCITEGIC>MOL_PROPERTY
Tether
SciTegic.value.DoubleValue
0.000

@<TRIPOS>MOLECULE
guest-s17_confgen4.mol2 : confsearch ligand conformer 804
          25          25           1
SMALL
USER_CHARGES
 
@<TRIPOS>ATOM
       1    C1      21.334921   20.792252   22.731856 C.3        1 MOL1        -0.1684
       2    H1      21.472860   20.354965   23.727284 H          1 MOL1         0.0833
       3    H2      21.887338   21.741036   22.767691 H          1 MOL1         0.0833
       4    C2      19.843331   21.136970   22.495246 C.3        1 MOL1        -0.1684
       5    H3      19.545318   21.856837   23.269756 H          1 MOL1         0.0833
       6    H4      19.741096   21.669375   21.539951 H          1 MOL1         0.0833
       7    C3      18.832994   19.961834   22.526781 C.3        1 MOL1        -0.1684
       8    H5      18.802450   19.454545   21.555845 H          1 MOL1         0.0833
       9    H6      17.831467   20.399156   22.639564 H          1 MOL1         0.0833
      10    C4      19.045494   18.935159   23.671375 C.3        1 MOL1        -0.1760
      11    H7      19.583879   19.388210   24.512884 H          1 MOL1         0.0833
      12    H8      18.053382   18.680186   24.066403 H          1 MOL1         0.0833
      13    C5      19.725459   17.610557   23.241875 C.3        1 MOL1         0.1219
      14    H9      19.162778   17.193338   22.394349 H          1 MOL1         0.0790
      15    C6      21.216177   17.703442   22.830729 C.3        1 MOL1        -0.1760
      16    H10     21.815705   18.119222   23.649559 H          1 MOL1         0.0833
      17    H11     21.577263   16.674319   22.702933 H          1 MOL1         0.0833
      18    C7      21.484260   18.457031   21.500389 C.3        1 MOL1        -0.1684
      19    H12     20.594450   18.436310   20.861050 H          1 MOL1         0.0833
      20    H13     22.241415   17.896277   20.935394 H          1 MOL1         0.0833
      21    C8      22.010277   19.906985   21.654862 C.3        1 MOL1        -0.1684
      22    H14     21.953338   20.412558   20.681395 H          1 MOL1         0.0833
      23    H15     23.080054   19.851581   21.898562 H          1 MOL1         0.0833
      24    O1      19.639276   16.706661   24.336394 O.3        1 MOL1        -0.5508
      25    H16     18.687213   16.602930   24.543670 H          1 MOL1         0.3780
@<TRIPOS>BOND
    1     1     2    1
    2     1     3    1
    3     1     4    1
    4     4     5    1
    5     4     6    1
    6     4     7    1
    7     7     8    1
    8     7     9    1
    9     7    10    1
   10    10    11    1
   11    10    12    1
   12    10    13    1
   13    13    14    1
   14    13    15    1
   15    15    16    1
   16    15    17    1
   17    15    18    1
   18    18    19    1
   19    18    20    1
   20     1    21    1
   21    18    21    1
   22    21    22    1
   23    21    23    1
   24    13    24    1
   25    24    25    1
@<TRIPOS>SUBSTRUCTURE
       1 MOL1            1 RESIDUE      1      MOL     
@<SCITEGIC>MOL_PROPERTY
VConf Rank
SciTegic.value.IntegerValue
804

@<SCITEGIC>MOL_PROPERTY
Conf_Id
SciTegic.value.IntegerValue
121

@<SCITEGIC>MOL_PROPERTY
Delta U+W
SciTegic.value.DoubleValue
-1.283

@<SCITEGIC>MOL_PROPERTY
U+W
SciTegic.value.DoubleValue
9.630

@<SCITEGIC>MOL_PROPERTY
Grad RMS
SciTegic.value.DoubleValue
0.000000

@<SCITEGIC>MOL_PROPERTY
U
SciTegic.value.DoubleValue
11.876

@<SCITEGIC>MOL_PROPERTY
W
SciTegic.value.DoubleValue
-2.246

@<SCITEGIC>MOL_PROPERTY
W(PB)
SciTegic.value.DoubleValue
-4.376

@<SCITEGIC>MOL_PROPERTY
W(SA)
SciTegic.value.DoubleValue
2.130

@<SCITEGIC>MOL_PROPERTY
Valence
SciTegic.value.DoubleValue
17.153

@<SCITEGIC>MOL_PROPERTY
Coulomb
SciTegic.value.DoubleValue
-7.966

@<SCITEGIC>MOL_PROPERTY
VdW
SciTegic.value.DoubleValue
2.689

@<SCITEGIC>MOL_PROPERTY
VdW6
SciTegic.value.DoubleValue
-12.458

@<SCITEGIC>MOL_PROPERTY
VdW12
SciTegic.value.DoubleValue
15.147

@<SCITEGIC>MOL_PROPERTY
Bond
SciTegic.value.DoubleValue
0.421

@<SCITEGIC>MOL_PROPERTY
Angle
SciTegic.value.DoubleValue
5.258

@<SCITEGIC>MOL_PROPERTY
Pdih
SciTegic.value.DoubleValue
11.475

@<SCITEGIC>MOL_PROPERTY
Idih
SciTegic.value.DoubleValue
0.000

@<SCITEGIC>MOL_PROPERTY
Tether
SciTegic.value.DoubleValue
0.000

@<TRIPOS>MOLECULE
guest-s17_confgen4.mol2 : confsearch ligand conformer 805
          25          25           1
SMALL
USER_CHARGES
 
@<TRIPOS>ATOM
       1    C1      18.721535   18.446362   23.110058 C.3        1 MOL1        -0.1684
       2    H1      18.926446   18.101214   22.090250 H          1 MOL1         0.0833
       3    H2      17.776530   17.957285   23.382837 H          1 MOL1         0.0833
       4    C2      18.468973   19.974689   23.122355 C.3        1 MOL1        -0.1684
       5    H3      17.602436   20.169779   22.475876 H          1 MOL1         0.0833
       6    H4      18.162620   20.283930   24.130819 H          1 MOL1         0.0833
       7    C3      19.628983   20.886494   22.647051 C.3        1 MOL1        -0.1684
       8    H5      20.336953   21.066255   23.464003 H          1 MOL1         0.0833
       9    H6      19.198151   21.874543   22.434709 H          1 MOL1         0.0833
      10    C4      20.376397   20.400805   21.376204 C.3        1 MOL1        -0.1760
      11    H7      19.739756   19.747582   20.767290 H          1 MOL1         0.0833
      12    H8      20.566244   21.282943   20.750423 H          1 MOL1         0.0833
      13    C5      21.748166   19.730701   21.639118 C.3        1 MOL1         0.1219
      14    H9      22.350816   20.415606   22.252875 H          1 MOL1         0.0790
      15    C6      21.716886   18.349490   22.341018 C.3        1 MOL1        -0.1760
      16    H10     21.116601   17.637446   21.761447 H          1 MOL1         0.0833
      17    H11     22.739106   17.949474   22.321076 H          1 MOL1         0.0833
      18    C7      21.266039   18.381039   23.825959 C.3        1 MOL1        -0.1684
      19    H12     21.442987   19.371345   24.260675 H          1 MOL1         0.0833
      20    H13     21.920867   17.709308   24.397798 H          1 MOL1         0.0833
      21    C8      19.807106   17.925851   24.084871 C.3        1 MOL1        -0.1684
      22    H14     19.528231   18.191096   25.113641 H          1 MOL1         0.0833
      23    H15     19.785799   16.828194   24.045065 H          1 MOL1         0.0833
      24    O1      22.389269   19.560954   20.381104 O.3        1 MOL1        -0.5508
      25    H16     23.281666   19.200187   20.564473 H          1 MOL1         0.3780
@<TRIPOS>BOND
    1     1     2    1
    2     1     3    1
    3     1     4    1
    4     4     5    1
    5     4     6    1
    6     4     7    1
    7     7     8    1
    8     7     9    1
    9     7    10    1
   10    10    11    1
   11    10    12    1
   12    10    13    1
   13    13    14    1
   14    13    15    1
   15    15    16    1
   16    15    17    1
   17    15    18    1
   18    18    19    1
   19    18    20    1
   20     1    21    1
   21    18    21    1
   22    21    22    1
   23    21    23    1
   24    13    24    1
   25    24    25    1
@<TRIPOS>SUBSTRUCTURE
       1 MOL1            1 RESIDUE      1      MOL     
@<SCITEGIC>MOL_PROPERTY
VConf Rank
SciTegic.value.IntegerValue
805

@<SCITEGIC>MOL_PROPERTY
Conf_Id
SciTegic.value.IntegerValue
24

@<SCITEGIC>MOL_PROPERTY
Delta U+W
SciTegic.value.DoubleValue
-1.236

@<SCITEGIC>MOL_PROPERTY
U+W
SciTegic.value.DoubleValue
9.678

@<SCITEGIC>MOL_PROPERTY
Grad RMS
SciTegic.value.DoubleValue
0.000000

@<SCITEGIC>MOL_PROPERTY
U
SciTegic.value.DoubleValue
11.876

@<SCITEGIC>MOL_PROPERTY
W
SciTegic.value.DoubleValue
-2.199

@<SCITEGIC>MOL_PROPERTY
W(PB)
SciTegic.value.DoubleValue
-4.335

@<SCITEGIC>MOL_PROPERTY
W(SA)
SciTegic.value.DoubleValue
2.137

@<SCITEGIC>MOL_PROPERTY
Valence
SciTegic.value.DoubleValue
17.153

@<SCITEGIC>MOL_PROPERTY
Coulomb
SciTegic.value.DoubleValue
-7.966

@<SCITEGIC>MOL_PROPERTY
VdW
SciTegic.value.DoubleValue
2.689

@<SCITEGIC>MOL_PROPERTY
VdW6
SciTegic.value.DoubleValue
-12.458

@<SCITEGIC>MOL_PROPERTY
VdW12
SciTegic.value.DoubleValue
15.147

@<SCITEGIC>MOL_PROPERTY
Bond
SciTegic.value.DoubleValue
0.421

@<SCITEGIC>MOL_PROPERTY
Angle
SciTegic.value.DoubleValue
5.258

@<SCITEGIC>MOL_PROPERTY
Pdih
SciTegic.value.DoubleValue
11.475

@<SCITEGIC>MOL_PROPERTY
Idih
SciTegic.value.DoubleValue
0.000

@<SCITEGIC>MOL_PROPERTY
Tether
SciTegic.value.DoubleValue
0.000

@<TRIPOS>MOLECULE
guest-s17_confgen4.mol2 : confsearch ligand conformer 806
          25          25           1
SMALL
USER_CHARGES
 
@<TRIPOS>ATOM
       1    C1      22.401354   19.371531   22.674292 C.3        1 MOL1        -0.1684
       2    H1      23.074201   18.510436   22.786402 H          1 MOL1         0.0833
       3    H2      23.052114   20.256395   22.654734 H          1 MOL1         0.0833
       4    C2      21.686508   19.274242   21.300345 C.3        1 MOL1        -0.1684
       5    H3      21.271968   20.248126   21.010516 H          1 MOL1         0.0833
       6    H4      22.462253   19.066843   20.550497 H          1 MOL1         0.0833
       7    C3      20.599390   18.178186   21.175861 C.3        1 MOL1        -0.1684
       8    H5      20.869974   17.291663   21.765198 H          1 MOL1         0.0833
       9    H6      20.602317   17.843775   20.129265 H          1 MOL1         0.0833
      10    C4      19.151092   18.644965   21.495982 C.3        1 MOL1        -0.1760
      11    H7      18.985970   19.672452   21.147439 H          1 MOL1         0.0833
      12    H8      18.479636   18.018123   20.893350 H          1 MOL1         0.0833
      13    C5      18.729604   18.499714   22.978658 C.3        1 MOL1         0.1219
      14    H9      19.291286   17.666286   23.420911 H          1 MOL1         0.0790
      15    C6      18.921452   19.766397   23.850734 C.3        1 MOL1        -0.1760
      16    H10     18.169424   20.516781   23.573701 H          1 MOL1         0.0833
      17    H11     18.703214   19.490035   24.890743 H          1 MOL1         0.0833
      18    C7      20.315781   20.440665   23.807723 C.3        1 MOL1        -0.1684
      19    H12     20.371002   21.161864   24.634512 H          1 MOL1         0.0833
      20    H13     20.404450   21.048952   22.900080 H          1 MOL1         0.0833
      21    C8      21.501333   19.450496   23.931758 C.3        1 MOL1        -0.1684
      22    H14     21.151166   18.446296   24.197503 H          1 MOL1         0.0833
      23    H15     22.129161   19.758912   24.778861 H          1 MOL1         0.0833
      24    O1      17.348325   18.164959   23.020088 O.3        1 MOL1        -0.5508
      25    H16     16.869891   18.910830   22.603254 H          1 MOL1         0.3780
@<TRIPOS>BOND
    1     1     2    1
    2     1     3    1
    3     1     4    1
    4     4     5    1
    5     4     6    1
    6     4     7    1
    7     7     8    1
    8     7     9    1
    9     7    10    1
   10    10    11    1
   11    10    12    1
   12    10    13    1
   13    13    14    1
   14    13    15    1
   15    15    16    1
   16    15    17    1
   17    15    18    1
   18    18    19    1
   19    18    20    1
   20     1    21    1
   21    18    21    1
   22    21    22    1
   23    21    23    1
   24    13    24    1
   25    24    25    1
@<TRIPOS>SUBSTRUCTURE
       1 MOL1            1 RESIDUE      1      MOL     
@<SCITEGIC>MOL_PROPERTY
VConf Rank
SciTegic.value.IntegerValue
806

@<SCITEGIC>MOL_PROPERTY
Conf_Id
SciTegic.value.IntegerValue
167

@<SCITEGIC>MOL_PROPERTY
Delta U+W
SciTegic.value.DoubleValue
0.388

@<SCITEGIC>MOL_PROPERTY
U+W
SciTegic.value.DoubleValue
11.301

@<SCITEGIC>MOL_PROPERTY
Grad RMS
SciTegic.value.DoubleValue
0.000000

@<SCITEGIC>MOL_PROPERTY
U
SciTegic.value.DoubleValue
13.202

@<SCITEGIC>MOL_PROPERTY
W
SciTegic.value.DoubleValue
-1.901

@<SCITEGIC>MOL_PROPERTY
W(PB)
SciTegic.value.DoubleValue
-4.065

@<SCITEGIC>MOL_PROPERTY
W(SA)
SciTegic.value.DoubleValue
2.163

@<SCITEGIC>MOL_PROPERTY
Valence
SciTegic.value.DoubleValue
18.957

@<SCITEGIC>MOL_PROPERTY
Coulomb
SciTegic.value.DoubleValue
-8.753

@<SCITEGIC>MOL_PROPERTY
VdW
SciTegic.value.DoubleValue
2.998

@<SCITEGIC>MOL_PROPERTY
VdW6
SciTegic.value.DoubleValue
-12.294

@<SCITEGIC>MOL_PROPERTY
VdW12
SciTegic.value.DoubleValue
15.292

@<SCITEGIC>MOL_PROPERTY
Bond
SciTegic.value.DoubleValue
0.419

@<SCITEGIC>MOL_PROPERTY
Angle
SciTegic.value.DoubleValue
4.543

@<SCITEGIC>MOL_PROPERTY
Pdih
SciTegic.value.DoubleValue
13.996

@<SCITEGIC>MOL_PROPERTY
Idih
SciTegic.value.DoubleValue
0.000

@<SCITEGIC>MOL_PROPERTY
Tether
SciTegic.value.DoubleValue
0.000

@<TRIPOS>MOLECULE
guest-s17_confgen4.mol2 : confsearch ligand conformer 807
          25          25           1
SMALL
USER_CHARGES
 
@<TRIPOS>ATOM
       1    C1      21.275803   20.683676   23.763614 C.3        1 MOL1        -0.1684
       2    H1      22.346920   20.605474   23.994041 H          1 MOL1         0.0833
       3    H2      20.946407   21.633372   24.206892 H          1 MOL1         0.0833
       4    C2      20.521458   19.538432   24.487965 C.3        1 MOL1        -0.1684
       5    H3      21.089856   18.603407   24.429176 H          1 MOL1         0.0833
       6    H4      20.513030   19.785257   25.558498 H          1 MOL1         0.0833
       7    C3      19.055695   19.313785   24.034186 C.3        1 MOL1        -0.1684
       8    H5      18.626891   20.233302   23.615393 H          1 MOL1         0.0833
       9    H6      18.460351   19.103419   24.933195 H          1 MOL1         0.0833
      10    C4      18.849220   18.118252   23.064487 C.3        1 MOL1        -0.1760
      11    H7      19.248923   17.203879   23.522091 H          1 MOL1         0.0833
      12    H8      17.767781   17.953247   22.969356 H          1 MOL1         0.0833
      13    C5      19.428396   18.268234   21.635688 C.3        1 MOL1         0.1219
      14    H9      19.053185   19.200185   21.192022 H          1 MOL1         0.0790
      15    C6      20.977735   18.244300   21.574829 C.3        1 MOL1        -0.1760
      16    H10     21.381822   17.749230   22.463588 H          1 MOL1         0.0833
      17    H11     21.301721   17.609646   20.739251 H          1 MOL1         0.0833
      18    C7      21.647379   19.629715   21.382561 C.3        1 MOL1        -0.1684
      19    H12     21.547360   19.909232   20.324822 H          1 MOL1         0.0833
      20    H13     22.726338   19.532266   21.563955 H          1 MOL1         0.0833
      21    C8      21.090068   20.801181   22.229874 C.3        1 MOL1        -0.1684
      22    H14     20.037449   20.985912   21.986937 H          1 MOL1         0.0833
      23    H15     21.611588   21.712798   21.907703 H          1 MOL1         0.0833
      24    O1      18.935764   17.179985   20.862908 O.3        1 MOL1        -0.5508
      25    H16     19.250874   17.321658   19.945765 H          1 MOL1         0.3780
@<TRIPOS>BOND
    1     1     2    1
    2     1     3    1
    3     1     4    1
    4     4     5    1
    5     4     6    1
    6     4     7    1
    7     7     8    1
    8     7     9    1
    9     7    10    1
   10    10    11    1
   11    10    12    1
   12    10    13    1
   13    13    14    1
   14    13    15    1
   15    15    16    1
   16    15    17    1
   17    15    18    1
   18    18    19    1
   19    18    20    1
   20     1    21    1
   21    18    21    1
   22    21    22    1
   23    21    23    1
   24    13    24    1
   25    24    25    1
@<TRIPOS>SUBSTRUCTURE
       1 MOL1            1 RESIDUE      1      MOL     
@<SCITEGIC>MOL_PROPERTY
VConf Rank
SciTegic.value.IntegerValue
807

@<SCITEGIC>MOL_PROPERTY
Conf_Id
SciTegic.value.IntegerValue
60

@<SCITEGIC>MOL_PROPERTY
Delta U+W
SciTegic.value.DoubleValue
-1.838

@<SCITEGIC>MOL_PROPERTY
U+W
SciTegic.value.DoubleValue
9.075

@<SCITEGIC>MOL_PROPERTY
Grad RMS
SciTegic.value.DoubleValue
0.000000

@<SCITEGIC>MOL_PROPERTY
U
SciTegic.value.DoubleValue
11.150

@<SCITEGIC>MOL_PROPERTY
W
SciTegic.value.DoubleValue
-2.074

@<SCITEGIC>MOL_PROPERTY
W(PB)
SciTegic.value.DoubleValue
-4.196

@<SCITEGIC>MOL_PROPERTY
W(SA)
SciTegic.value.DoubleValue
2.121

@<SCITEGIC>MOL_PROPERTY
Valence
SciTegic.value.DoubleValue
16.582

@<SCITEGIC>MOL_PROPERTY
Coulomb
SciTegic.value.DoubleValue
-8.361

@<SCITEGIC>MOL_PROPERTY
VdW
SciTegic.value.DoubleValue
2.928

@<SCITEGIC>MOL_PROPERTY
VdW6
SciTegic.value.DoubleValue
-12.539

@<SCITEGIC>MOL_PROPERTY
VdW12
SciTegic.value.DoubleValue
15.467

@<SCITEGIC>MOL_PROPERTY
Bond
SciTegic.value.DoubleValue
0.441

@<SCITEGIC>MOL_PROPERTY
Angle
SciTegic.value.DoubleValue
5.093

@<SCITEGIC>MOL_PROPERTY
Pdih
SciTegic.value.DoubleValue
11.049

@<SCITEGIC>MOL_PROPERTY
Idih
SciTegic.value.DoubleValue
0.000

@<SCITEGIC>MOL_PROPERTY
Tether
SciTegic.value.DoubleValue
0.000

@<TRIPOS>MOLECULE
guest-s17_confgen4.mol2 : confsearch ligand conformer 808
          25          25           1
SMALL
USER_CHARGES
 
@<TRIPOS>ATOM
       1    C1      21.705217   20.138668   21.453132 C.3        1 MOL1        -0.1684
       2    H1      21.640973   20.087512   20.357796 H          1 MOL1         0.0833
       3    H2      22.606394   20.728609   21.669391 H          1 MOL1         0.0833
       4    C2      21.938704   18.715149   22.018587 C.3        1 MOL1        -0.1684
       5    H3      22.888222   18.351389   21.602753 H          1 MOL1         0.0833
       6    H4      22.110641   18.758623   23.100112 H          1 MOL1         0.0833
       7    C3      20.855493   17.659887   21.681029 C.3        1 MOL1        -0.1684
       8    H5      21.215117   16.687933   22.045612 H          1 MOL1         0.0833
       9    H6      20.776207   17.557844   20.590225 H          1 MOL1         0.0833
      10    C4      19.439793   17.895209   22.268547 C.3        1 MOL1        -0.1760
      11    H7      18.887922   18.610181   21.650059 H          1 MOL1         0.0833
      12    H8      18.883544   16.954746   22.158738 H          1 MOL1         0.0833
      13    C5      19.412518   18.341943   23.753272 C.3        1 MOL1         0.1219
      14    H9      20.365175   18.086114   24.236128 H          1 MOL1         0.0790
      15    C6      19.132149   19.852042   23.954268 C.3        1 MOL1        -0.1760
      16    H10     18.196636   20.116707   23.444356 H          1 MOL1         0.0833
      17    H11     18.942987   20.015758   25.023473 H          1 MOL1         0.0833
      18    C7      20.252422   20.837127   23.522014 C.3        1 MOL1        -0.1684
      19    H12     21.189102   20.617592   24.050413 H          1 MOL1         0.0833
      20    H13     19.953537   21.835025   23.870972 H          1 MOL1         0.0833
      21    C8      20.483980   20.928717   21.991380 C.3        1 MOL1        -0.1684
      22    H14     20.644548   21.984489   21.733319 H          1 MOL1         0.0833
      23    H15     19.573992   20.651422   21.447474 H          1 MOL1         0.0833
      24    O1      18.374949   17.627187   24.414134 O.3        1 MOL1        -0.5508
      25    H16     18.598491   16.675814   24.340412 H          1 MOL1         0.3780
@<TRIPOS>BOND
    1     1     2    1
    2     1     3    1
    3     1     4    1
    4     4     5    1
    5     4     6    1
    6     4     7    1
    7     7     8    1
    8     7     9    1
    9     7    10    1
   10    10    11    1
   11    10    12    1
   12    10    13    1
   13    13    14    1
   14    13    15    1
   15    15    16    1
   16    15    17    1
   17    15    18    1
   18    18    19    1
   19    18    20    1
   20     1    21    1
   21    18    21    1
   22    21    22    1
   23    21    23    1
   24    13    24    1
   25    24    25    1
@<TRIPOS>SUBSTRUCTURE
       1 MOL1            1 RESIDUE      1      MOL     
@<SCITEGIC>MOL_PROPERTY
VConf Rank
SciTegic.value.IntegerValue
808

@<SCITEGIC>MOL_PROPERTY
Conf_Id
SciTegic.value.IntegerValue
129

@<SCITEGIC>MOL_PROPERTY
Delta U+W
SciTegic.value.DoubleValue
-1.846

@<SCITEGIC>MOL_PROPERTY
U+W
SciTegic.value.DoubleValue
9.067

@<SCITEGIC>MOL_PROPERTY
Grad RMS
SciTegic.value.DoubleValue
0.000000

@<SCITEGIC>MOL_PROPERTY
U
SciTegic.value.DoubleValue
11.150

@<SCITEGIC>MOL_PROPERTY
W
SciTegic.value.DoubleValue
-2.083

@<SCITEGIC>MOL_PROPERTY
W(PB)
SciTegic.value.DoubleValue
-4.217

@<SCITEGIC>MOL_PROPERTY
W(SA)
SciTegic.value.DoubleValue
2.134

@<SCITEGIC>MOL_PROPERTY
Valence
SciTegic.value.DoubleValue
16.583

@<SCITEGIC>MOL_PROPERTY
Coulomb
SciTegic.value.DoubleValue
-8.361

@<SCITEGIC>MOL_PROPERTY
VdW
SciTegic.value.DoubleValue
2.928

@<SCITEGIC>MOL_PROPERTY
VdW6
SciTegic.value.DoubleValue
-12.539

@<SCITEGIC>MOL_PROPERTY
VdW12
SciTegic.value.DoubleValue
15.467

@<SCITEGIC>MOL_PROPERTY
Bond
SciTegic.value.DoubleValue
0.441

@<SCITEGIC>MOL_PROPERTY
Angle
SciTegic.value.DoubleValue
5.093

@<SCITEGIC>MOL_PROPERTY
Pdih
SciTegic.value.DoubleValue
11.049

@<SCITEGIC>MOL_PROPERTY
Idih
SciTegic.value.DoubleValue
0.000

@<SCITEGIC>MOL_PROPERTY
Tether
SciTegic.value.DoubleValue
0.000

@<TRIPOS>MOLECULE
guest-s17_confgen4.mol2 : confsearch ligand conformer 809
          25          25           1
SMALL
USER_CHARGES
 
@<TRIPOS>ATOM
       1    C1      20.217983   20.712117   21.228755 C.3        1 MOL1        -0.1684
       2    H1      19.379280   21.419891   21.182506 H          1 MOL1         0.0833
       3    H2      20.904153   21.013266   20.425387 H          1 MOL1         0.0833
       4    C2      19.706083   19.289620   20.890116 C.3        1 MOL1        -0.1684
       5    H3      19.299377   19.324085   19.870210 H          1 MOL1         0.0833
       6    H4      20.545003   18.587052   20.828367 H          1 MOL1         0.0833
       7    C3      18.592929   18.727784   21.809625 C.3        1 MOL1        -0.1684
       8    H5      18.257657   17.774714   21.377997 H          1 MOL1         0.0833
       9    H6      17.720752   19.394451   21.772761 H          1 MOL1         0.0833
      10    C4      18.968323   18.470993   23.292329 C.3        1 MOL1        -0.1760
      11    H7      18.912358   19.403576   23.863027 H          1 MOL1         0.0833
      12    H8      18.177313   17.838252   23.717250 H          1 MOL1         0.0833
      13    C5      20.342835   17.787766   23.512535 C.3        1 MOL1         0.1219
      14    H9      20.657646   17.283552   22.589208 H          1 MOL1         0.0790
      15    C6      21.465044   18.749896   23.977133 C.3        1 MOL1        -0.1760
      16    H10     21.141489   19.278389   24.883347 H          1 MOL1         0.0833
      17    H11     22.324919   18.137543   24.280240 H          1 MOL1         0.0833
      18    C7      21.975705   19.784949   22.938427 C.3        1 MOL1        -0.1684
      19    H12     22.346594   19.281264   22.036464 H          1 MOL1         0.0833
      20    H13     22.857303   20.271667   23.377580 H          1 MOL1         0.0833
      21    C8      20.959513   20.899286   22.577663 C.3        1 MOL1        -0.1684
      22    H14     21.504285   21.851403   22.516454 H          1 MOL1         0.0833
      23    H15     20.244083   21.047152   23.394423 H          1 MOL1         0.0833
      24    O1      20.190378   16.798231   24.522357 O.3        1 MOL1        -0.5508
      25    H16     19.914364   17.271512   25.334000 H          1 MOL1         0.3780
@<TRIPOS>BOND
    1     1     2    1
    2     1     3    1
    3     1     4    1
    4     4     5    1
    5     4     6    1
    6     4     7    1
    7     7     8    1
    8     7     9    1
    9     7    10    1
   10    10    11    1
   11    10    12    1
   12    10    13    1
   13    13    14    1
   14    13    15    1
   15    15    16    1
   16    15    17    1
   17    15    18    1
   18    18    19    1
   19    18    20    1
   20     1    21    1
   21    18    21    1
   22    21    22    1
   23    21    23    1
   24    13    24    1
   25    24    25    1
@<TRIPOS>SUBSTRUCTURE
       1 MOL1            1 RESIDUE      1      MOL     
@<SCITEGIC>MOL_PROPERTY
VConf Rank
SciTegic.value.IntegerValue
809

@<SCITEGIC>MOL_PROPERTY
Conf_Id
SciTegic.value.IntegerValue
140

@<SCITEGIC>MOL_PROPERTY
Delta U+W
SciTegic.value.DoubleValue
-1.702

@<SCITEGIC>MOL_PROPERTY
U+W
SciTegic.value.DoubleValue
9.211

@<SCITEGIC>MOL_PROPERTY
Grad RMS
SciTegic.value.DoubleValue
0.000000

@<SCITEGIC>MOL_PROPERTY
U
SciTegic.value.DoubleValue
11.181

@<SCITEGIC>MOL_PROPERTY
W
SciTegic.value.DoubleValue
-1.969

@<SCITEGIC>MOL_PROPERTY
W(PB)
SciTegic.value.DoubleValue
-4.093

@<SCITEGIC>MOL_PROPERTY
W(SA)
SciTegic.value.DoubleValue
2.124

@<SCITEGIC>MOL_PROPERTY
Valence
SciTegic.value.DoubleValue
16.954

@<SCITEGIC>MOL_PROPERTY
Coulomb
SciTegic.value.DoubleValue
-8.661

@<SCITEGIC>MOL_PROPERTY
VdW
SciTegic.value.DoubleValue
2.887

@<SCITEGIC>MOL_PROPERTY
VdW6
SciTegic.value.DoubleValue
-12.561

@<SCITEGIC>MOL_PROPERTY
VdW12
SciTegic.value.DoubleValue
15.448

@<SCITEGIC>MOL_PROPERTY
Bond
SciTegic.value.DoubleValue
0.433

@<SCITEGIC>MOL_PROPERTY
Angle
SciTegic.value.DoubleValue
5.120

@<SCITEGIC>MOL_PROPERTY
Pdih
SciTegic.value.DoubleValue
11.401

@<SCITEGIC>MOL_PROPERTY
Idih
SciTegic.value.DoubleValue
0.000

@<SCITEGIC>MOL_PROPERTY
Tether
SciTegic.value.DoubleValue
0.000

@<TRIPOS>MOLECULE
guest-s17_confgen4.mol2 : confsearch ligand conformer 810
          25          25           1
SMALL
USER_CHARGES
 
@<TRIPOS>ATOM
       1    C1      21.317895   17.732479   23.690631 C.3        1 MOL1        -0.1684
       2    H1      21.304637   17.710589   24.788744 H          1 MOL1         0.0833
       3    H2      21.956480   16.892244   23.385453 H          1 MOL1         0.0833
       4    C2      22.004662   19.041541   23.222490 C.3        1 MOL1        -0.1684
       5    H3      21.687427   19.887315   23.842839 H          1 MOL1         0.0833
       6    H4      23.077658   18.935736   23.433527 H          1 MOL1         0.0833
       7    C3      21.840337   19.377653   21.717640 C.3        1 MOL1        -0.1684
       8    H5      21.659744   18.470000   21.127431 H          1 MOL1         0.0833
       9    H6      22.803572   19.765530   21.358900 H          1 MOL1         0.0833
      10    C4      20.771472   20.459812   21.405432 C.3        1 MOL1        -0.1760
      11    H7      21.001882   21.369011   21.975944 H          1 MOL1         0.0833
      12    H8      20.882524   20.735316   20.348076 H          1 MOL1         0.0833
      13    C5      19.290390   20.067356   21.636222 C.3        1 MOL1         0.1219
      14    H9      19.071883   19.140944   21.088601 H          1 MOL1         0.0790
      15    C6      18.901217   19.897059   23.127568 C.3        1 MOL1        -0.1760
      16    H10     19.596599   20.450578   23.766786 H          1 MOL1         0.0833
      17    H11     17.925996   20.370946   23.303611 H          1 MOL1         0.0833
      18    C7      18.783082   18.428376   23.611600 C.3        1 MOL1        -0.1684
      19    H12     17.823430   18.032288   23.252109 H          1 MOL1         0.0833
      20    H13     18.717330   18.418300   24.707991 H          1 MOL1         0.0833
      21    C8      19.892049   17.447054   23.156114 C.3        1 MOL1        -0.1684
      22    H14     19.904460   17.360930   22.063580 H          1 MOL1         0.0833
      23    H15     19.606352   16.446569   23.508553 H          1 MOL1         0.0833
      24    O1      18.488202   21.103151   21.083244 O.3        1 MOL1        -0.5508
      25    H16     18.703464   21.916838   21.583762 H          1 MOL1         0.3780
@<TRIPOS>BOND
    1     1     2    1
    2     1     3    1
    3     1     4    1
    4     4     5    1
    5     4     6    1
    6     4     7    1
    7     7     8    1
    8     7     9    1
    9     7    10    1
   10    10    11    1
   11    10    12    1
   12    10    13    1
   13    13    14    1
   14    13    15    1
   15    15    16    1
   16    15    17    1
   17    15    18    1
   18    18    19    1
   19    18    20    1
   20     1    21    1
   21    18    21    1
   22    21    22    1
   23    21    23    1
   24    13    24    1
   25    24    25    1
@<TRIPOS>SUBSTRUCTURE
       1 MOL1            1 RESIDUE      1      MOL     
@<SCITEGIC>MOL_PROPERTY
VConf Rank
SciTegic.value.IntegerValue
810

@<SCITEGIC>MOL_PROPERTY
Conf_Id
SciTegic.value.IntegerValue
68

@<SCITEGIC>MOL_PROPERTY
Delta U+W
SciTegic.value.DoubleValue
-1.765

@<SCITEGIC>MOL_PROPERTY
U+W
SciTegic.value.DoubleValue
9.148

@<SCITEGIC>MOL_PROPERTY
Grad RMS
SciTegic.value.DoubleValue
0.000000

@<SCITEGIC>MOL_PROPERTY
U
SciTegic.value.DoubleValue
11.181

@<SCITEGIC>MOL_PROPERTY
W
SciTegic.value.DoubleValue
-2.032

@<SCITEGIC>MOL_PROPERTY
W(PB)
SciTegic.value.DoubleValue
-4.147

@<SCITEGIC>MOL_PROPERTY
W(SA)
SciTegic.value.DoubleValue
2.114

@<SCITEGIC>MOL_PROPERTY
Valence
SciTegic.value.DoubleValue
16.955

@<SCITEGIC>MOL_PROPERTY
Coulomb
SciTegic.value.DoubleValue
-8.661

@<SCITEGIC>MOL_PROPERTY
VdW
SciTegic.value.DoubleValue
2.887

@<SCITEGIC>MOL_PROPERTY
VdW6
SciTegic.value.DoubleValue
-12.561

@<SCITEGIC>MOL_PROPERTY
VdW12
SciTegic.value.DoubleValue
15.448

@<SCITEGIC>MOL_PROPERTY
Bond
SciTegic.value.DoubleValue
0.433

@<SCITEGIC>MOL_PROPERTY
Angle
SciTegic.value.DoubleValue
5.121

@<SCITEGIC>MOL_PROPERTY
Pdih
SciTegic.value.DoubleValue
11.402

@<SCITEGIC>MOL_PROPERTY
Idih
SciTegic.value.DoubleValue
0.000

@<SCITEGIC>MOL_PROPERTY
Tether
SciTegic.value.DoubleValue
0.000

@<TRIPOS>MOLECULE
guest-s17_confgen4.mol2 : confsearch ligand conformer 811
          25          25           1
SMALL
USER_CHARGES
 
@<TRIPOS>ATOM
       1    C1      21.858327   20.069748   22.346106 C.3        1 MOL1        -0.1684
       2    H1      22.802093   20.547249   22.048830 H          1 MOL1         0.0833
       3    H2      21.884544   20.075925   23.441627 H          1 MOL1         0.0833
       4    C2      21.865122   18.615011   21.808521 C.3        1 MOL1        -0.1684
       5    H3      21.352812   18.548594   20.840150 H          1 MOL1         0.0833
       6    H4      22.909299   18.345800   21.598189 H          1 MOL1         0.0833
       7    C3      21.314598   17.553208   22.796499 C.3        1 MOL1        -0.1684
       8    H5      21.875021   17.608113   23.739890 H          1 MOL1         0.0833
       9    H6      21.537620   16.561820   22.379074 H          1 MOL1         0.0833
      10    C4      19.793533   17.606329   23.099965 C.3        1 MOL1        -0.1760
      11    H7      19.216070   17.522596   22.171482 H          1 MOL1         0.0833
      12    H8      19.553493   16.699506   23.671511 H          1 MOL1         0.0833
      13    C5      19.344802   18.842255   23.922167 C.3        1 MOL1         0.1219
      14    H9      20.216654   19.267643   24.432523 H          1 MOL1         0.0790
      15    C6      18.647766   19.952029   23.097191 C.3        1 MOL1        -0.1760
      16    H10     17.617065   19.636038   22.888910 H          1 MOL1         0.0833
      17    H11     18.565984   20.849730   23.723712 H          1 MOL1         0.0833
      18    C7      19.295238   20.340021   21.742825 C.3        1 MOL1        -0.1684
      19    H12     18.635642   21.076652   21.264254 H          1 MOL1         0.0833
      20    H13     19.295504   19.483717   21.058681 H          1 MOL1         0.0833
      21    C8      20.709307   20.968264   21.819360 C.3        1 MOL1        -0.1684
      22    H14     20.667702   21.884588   22.423683 H          1 MOL1         0.0833
      23    H15     20.978069   21.294493   20.805289 H          1 MOL1         0.0833
      24    O1      18.428277   18.413031   24.921383 O.3        1 MOL1        -0.5508
      25    H16     17.666053   18.020774   24.448056 H          1 MOL1         0.3780
@<TRIPOS>BOND
    1     1     2    1
    2     1     3    1
    3     1     4    1
    4     4     5    1
    5     4     6    1
    6     4     7    1
    7     7     8    1
    8     7     9    1
    9     7    10    1
   10    10    11    1
   11    10    12    1
   12    10    13    1
   13    13    14    1
   14    13    15    1
   15    15    16    1
   16    15    17    1
   17    15    18    1
   18    18    19    1
   19    18    20    1
   20     1    21    1
   21    18    21    1
   22    21    22    1
   23    21    23    1
   24    13    24    1
   25    24    25    1
@<TRIPOS>SUBSTRUCTURE
       1 MOL1            1 RESIDUE      1      MOL     
@<SCITEGIC>MOL_PROPERTY
VConf Rank
SciTegic.value.IntegerValue
811

@<SCITEGIC>MOL_PROPERTY
Conf_Id
SciTegic.value.IntegerValue
165

@<SCITEGIC>MOL_PROPERTY
Delta U+W
SciTegic.value.DoubleValue
-1.999

@<SCITEGIC>MOL_PROPERTY
U+W
SciTegic.value.DoubleValue
8.915

@<SCITEGIC>MOL_PROPERTY
Grad RMS
SciTegic.value.DoubleValue
0.000000

@<SCITEGIC>MOL_PROPERTY
U
SciTegic.value.DoubleValue
10.935

@<SCITEGIC>MOL_PROPERTY
W
SciTegic.value.DoubleValue
-2.020

@<SCITEGIC>MOL_PROPERTY
W(PB)
SciTegic.value.DoubleValue
-4.135

@<SCITEGIC>MOL_PROPERTY
W(SA)
SciTegic.value.DoubleValue
2.115

@<SCITEGIC>MOL_PROPERTY
Valence
SciTegic.value.DoubleValue
16.757

@<SCITEGIC>MOL_PROPERTY
Coulomb
SciTegic.value.DoubleValue
-8.731

@<SCITEGIC>MOL_PROPERTY
VdW
SciTegic.value.DoubleValue
2.908

@<SCITEGIC>MOL_PROPERTY
VdW6
SciTegic.value.DoubleValue
-12.597

@<SCITEGIC>MOL_PROPERTY
VdW12
SciTegic.value.DoubleValue
15.506

@<SCITEGIC>MOL_PROPERTY
Bond
SciTegic.value.DoubleValue
0.434

@<SCITEGIC>MOL_PROPERTY
Angle
SciTegic.value.DoubleValue
5.069

@<SCITEGIC>MOL_PROPERTY
Pdih
SciTegic.value.DoubleValue
11.254

@<SCITEGIC>MOL_PROPERTY
Idih
SciTegic.value.DoubleValue
0.000

@<SCITEGIC>MOL_PROPERTY
Tether
SciTegic.value.DoubleValue
0.000

@<TRIPOS>MOLECULE
guest-s17_confgen4.mol2 : confsearch ligand conformer 812
          25          25           1
SMALL
USER_CHARGES
 
@<TRIPOS>ATOM
       1    C1      19.070983   18.085275   23.460285 C.3        1 MOL1        -0.1684
       2    H1      18.323144   17.387538   23.861513 H          1 MOL1         0.0833
       3    H2      19.414560   18.647318   24.335994 H          1 MOL1         0.0833
       4    C2      18.333428   19.017242   22.463840 C.3        1 MOL1        -0.1684
       5    H3      17.643090   18.397512   21.875305 H          1 MOL1         0.0833
       6    H4      17.698039   19.712420   23.029150 H          1 MOL1         0.0833
       7    C3      19.203892   19.816788   21.462163 C.3        1 MOL1        -0.1684
       8    H5      18.520523   20.339364   20.779066 H          1 MOL1         0.0833
       9    H6      19.768711   19.133049   20.818134 H          1 MOL1         0.0833
      10    C4      20.145731   20.883417   22.078015 C.3        1 MOL1        -0.1760
      11    H7      20.607713   21.433180   21.246843 H          1 MOL1         0.0833
      12    H8      19.540415   21.616524   22.626527 H          1 MOL1         0.0833
      13    C5      21.274434   20.376648   23.009131 C.3        1 MOL1         0.1219
      14    H9      20.852803   20.140242   23.993102 H          1 MOL1         0.0790
      15    C6      22.041802   19.137796   22.479436 C.3        1 MOL1        -0.1760
      16    H10     21.948163   19.057000   21.390023 H          1 MOL1         0.0833
      17    H11     23.114061   19.289237   22.663445 H          1 MOL1         0.0833
      18    C7      21.651820   17.798214   23.159455 C.3        1 MOL1        -0.1684
      19    H12     21.782973   17.891433   24.246237 H          1 MOL1         0.0833
      20    H13     22.377204   17.037741   22.839658 H          1 MOL1         0.0833
      21    C8      20.231647   17.251572   22.857529 C.3        1 MOL1        -0.1684
      22    H14     20.176463   16.244969   23.294240 H          1 MOL1         0.0833
      23    H15     20.093082   17.102582   21.779007 H          1 MOL1         0.0833
      24    O1      22.200435   21.444427   23.176111 O.3        1 MOL1        -0.5508
      25    H16     21.698424   22.197103   23.552812 H          1 MOL1         0.3780
@<TRIPOS>BOND
    1     1     2    1
    2     1     3    1
    3     1     4    1
    4     4     5    1
    5     4     6    1
    6     4     7    1
    7     7     8    1
    8     7     9    1
    9     7    10    1
   10    10    11    1
   11    10    12    1
   12    10    13    1
   13    13    14    1
   14    13    15    1
   15    15    16    1
   16    15    17    1
   17    15    18    1
   18    18    19    1
   19    18    20    1
   20     1    21    1
   21    18    21    1
   22    21    22    1
   23    21    23    1
   24    13    24    1
   25    24    25    1
@<TRIPOS>SUBSTRUCTURE
       1 MOL1            1 RESIDUE      1      MOL     
@<SCITEGIC>MOL_PROPERTY
VConf Rank
SciTegic.value.IntegerValue
812

@<SCITEGIC>MOL_PROPERTY
Conf_Id
SciTegic.value.IntegerValue
133

@<SCITEGIC>MOL_PROPERTY
Delta U+W
SciTegic.value.DoubleValue
-2.139

@<SCITEGIC>MOL_PROPERTY
U+W
SciTegic.value.DoubleValue
8.774

@<SCITEGIC>MOL_PROPERTY
Grad RMS
SciTegic.value.DoubleValue
0.000000

@<SCITEGIC>MOL_PROPERTY
U
SciTegic.value.DoubleValue
10.905

@<SCITEGIC>MOL_PROPERTY
W
SciTegic.value.DoubleValue
-2.131

@<SCITEGIC>MOL_PROPERTY
W(PB)
SciTegic.value.DoubleValue
-4.281

@<SCITEGIC>MOL_PROPERTY
W(SA)
SciTegic.value.DoubleValue
2.150

@<SCITEGIC>MOL_PROPERTY
Valence
SciTegic.value.DoubleValue
16.378

@<SCITEGIC>MOL_PROPERTY
Coulomb
SciTegic.value.DoubleValue
-8.448

@<SCITEGIC>MOL_PROPERTY
VdW
SciTegic.value.DoubleValue
2.976

@<SCITEGIC>MOL_PROPERTY
VdW6
SciTegic.value.DoubleValue
-12.570

@<SCITEGIC>MOL_PROPERTY
VdW12
SciTegic.value.DoubleValue
15.545

@<SCITEGIC>MOL_PROPERTY
Bond
SciTegic.value.DoubleValue
0.439

@<SCITEGIC>MOL_PROPERTY
Angle
SciTegic.value.DoubleValue
5.049

@<SCITEGIC>MOL_PROPERTY
Pdih
SciTegic.value.DoubleValue
10.889

@<SCITEGIC>MOL_PROPERTY
Idih
SciTegic.value.DoubleValue
0.000

@<SCITEGIC>MOL_PROPERTY
Tether
SciTegic.value.DoubleValue
0.000

@<TRIPOS>MOLECULE
guest-s17_confgen4.mol2 : confsearch ligand conformer 813
          25          25           1
SMALL
USER_CHARGES
 
@<TRIPOS>ATOM
       1    C1      20.342637   19.718237   20.889941 C.3        1 MOL1        -0.1684
       2    H1      20.294760   20.046833   19.842650 H          1 MOL1         0.0833
       3    H2      21.218278   19.060498   20.927833 H          1 MOL1         0.0833
       4    C2      19.048844   18.922512   21.203698 C.3        1 MOL1        -0.1684
       5    H3      18.286578   19.569469   21.656475 H          1 MOL1         0.0833
       6    H4      18.618208   18.601460   20.245320 H          1 MOL1         0.0833
       7    C3      19.261056   17.643178   22.055251 C.3        1 MOL1        -0.1684
       8    H5      19.990391   16.990267   21.556487 H          1 MOL1         0.0833
       9    H6      18.316455   17.082373   22.056317 H          1 MOL1         0.0833
      10    C4      19.687140   17.852614   23.532945 C.3        1 MOL1        -0.1760
      11    H7      18.955149   18.476846   24.058913 H          1 MOL1         0.0833
      12    H8      19.630954   16.871570   24.023787 H          1 MOL1         0.0833
      13    C5      21.122062   18.410597   23.716890 C.3        1 MOL1         0.1219
      14    H9      21.694030   18.231389   22.798961 H          1 MOL1         0.0790
      15    C6      21.188321   19.915747   24.074498 C.3        1 MOL1        -0.1760
      16    H10     20.929351   20.027777   25.136053 H          1 MOL1         0.0833
      17    H11     22.228127   20.254043   23.979223 H          1 MOL1         0.0833
      18    C7      20.273839   20.875237   23.270057 C.3        1 MOL1        -0.1684
      19    H12     20.392872   21.878529   23.701259 H          1 MOL1         0.0833
      20    H13     19.219050   20.627172   23.434913 H          1 MOL1         0.0833
      21    C8      20.570100   20.986362   21.753408 C.3        1 MOL1        -0.1684
      22    H14     21.601327   21.336022   21.608916 H          1 MOL1         0.0833
      23    H15     19.928704   21.783048   21.352275 H          1 MOL1         0.0833
      24    O1      21.753825   17.693957   24.771790 O.3        1 MOL1        -0.5508
      25    H16     22.670310   18.035174   24.835547 H          1 MOL1         0.3780
@<TRIPOS>BOND
    1     1     2    1
    2     1     3    1
    3     1     4    1
    4     4     5    1
    5     4     6    1
    6     4     7    1
    7     7     8    1
    8     7     9    1
    9     7    10    1
   10    10    11    1
   11    10    12    1
   12    10    13    1
   13    13    14    1
   14    13    15    1
   15    15    16    1
   16    15    17    1
   17    15    18    1
   18    18    19    1
   19    18    20    1
   20     1    21    1
   21    18    21    1
   22    21    22    1
   23    21    23    1
   24    13    24    1
   25    24    25    1
@<TRIPOS>SUBSTRUCTURE
       1 MOL1            1 RESIDUE      1      MOL     
@<SCITEGIC>MOL_PROPERTY
VConf Rank
SciTegic.value.IntegerValue
813

@<SCITEGIC>MOL_PROPERTY
Conf_Id
SciTegic.value.IntegerValue
95

@<SCITEGIC>MOL_PROPERTY
Delta U+W
SciTegic.value.DoubleValue
-2.190

@<SCITEGIC>MOL_PROPERTY
U+W
SciTegic.value.DoubleValue
8.723

@<SCITEGIC>MOL_PROPERTY
Grad RMS
SciTegic.value.DoubleValue
0.000000

@<SCITEGIC>MOL_PROPERTY
U
SciTegic.value.DoubleValue
10.905

@<SCITEGIC>MOL_PROPERTY
W
SciTegic.value.DoubleValue
-2.182

@<SCITEGIC>MOL_PROPERTY
W(PB)
SciTegic.value.DoubleValue
-4.296

@<SCITEGIC>MOL_PROPERTY
W(SA)
SciTegic.value.DoubleValue
2.114

@<SCITEGIC>MOL_PROPERTY
Valence
SciTegic.value.DoubleValue
16.377

@<SCITEGIC>MOL_PROPERTY
Coulomb
SciTegic.value.DoubleValue
-8.448

@<SCITEGIC>MOL_PROPERTY
VdW
SciTegic.value.DoubleValue
2.976

@<SCITEGIC>MOL_PROPERTY
VdW6
SciTegic.value.DoubleValue
-12.570

@<SCITEGIC>MOL_PROPERTY
VdW12
SciTegic.value.DoubleValue
15.546

@<SCITEGIC>MOL_PROPERTY
Bond
SciTegic.value.DoubleValue
0.439

@<SCITEGIC>MOL_PROPERTY
Angle
SciTegic.value.DoubleValue
5.049

@<SCITEGIC>MOL_PROPERTY
Pdih
SciTegic.value.DoubleValue
10.889

@<SCITEGIC>MOL_PROPERTY
Idih
SciTegic.value.DoubleValue
0.000

@<SCITEGIC>MOL_PROPERTY
Tether
SciTegic.value.DoubleValue
0.000

@<TRIPOS>MOLECULE
guest-s17_confgen4.mol2 : confsearch ligand conformer 814
          25          25           1
SMALL
USER_CHARGES
 
@<TRIPOS>ATOM
       1    C1      20.538965   18.558026   24.361837 C.3        1 MOL1        -0.1684
       2    H1      20.744977   18.094372   25.336253 H          1 MOL1         0.0833
       3    H2      19.716297   19.247197   24.577465 H          1 MOL1         0.0833
       4    C2      20.076487   17.420154   23.404978 C.3        1 MOL1        -0.1684
       5    H3      20.638138   16.515659   23.675860 H          1 MOL1         0.0833
       6    H4      19.024437   17.183952   23.614430 H          1 MOL1         0.0833
       7    C3      20.261477   17.625282   21.878480 C.3        1 MOL1        -0.1684
       8    H5      19.993565   16.682887   21.381557 H          1 MOL1         0.0833
       9    H6      21.327112   17.738043   21.655468 H          1 MOL1         0.0833
      10    C4      19.430058   18.754452   21.200070 C.3        1 MOL1        -0.1760
      11    H7      19.909481   19.026377   20.250553 H          1 MOL1         0.0833
      12    H8      18.459279   18.319522   20.928618 H          1 MOL1         0.0833
      13    C5      19.144977   20.043944   22.011015 C.3        1 MOL1         0.1219
      14    H9      18.626451   19.757831   22.931931 H          1 MOL1         0.0790
      15    C6      20.366724   20.942005   22.359459 C.3        1 MOL1        -0.1760
      16    H10     20.542905   21.616876   21.511034 H          1 MOL1         0.0833
      17    H11     20.088751   21.590906   23.199666 H          1 MOL1         0.0833
      18    C7      21.722839   20.256609   22.679146 C.3        1 MOL1        -0.1684
      19    H12     22.476266   21.048156   22.791013 H          1 MOL1         0.0833
      20    H13     22.063773   19.701699   21.799425 H          1 MOL1         0.0833
      21    C8      21.797497   19.369910   23.956525 C.3        1 MOL1        -0.1684
      22    H14     22.038210   20.029969   24.801065 H          1 MOL1         0.0833
      23    H15     22.653537   18.687715   23.865692 H          1 MOL1         0.0833
      24    O1      18.242638   20.835659   21.247088 O.3        1 MOL1        -0.5508
      25    H16     17.448241   20.284746   21.087448 H          1 MOL1         0.3780
@<TRIPOS>BOND
    1     1     2    1
    2     1     3    1
    3     1     4    1
    4     4     5    1
    5     4     6    1
    6     4     7    1
    7     7     8    1
    8     7     9    1
    9     7    10    1
   10    10    11    1
   11    10    12    1
   12    10    13    1
   13    13    14    1
   14    13    15    1
   15    15    16    1
   16    15    17    1
   17    15    18    1
   18    18    19    1
   19    18    20    1
   20     1    21    1
   21    18    21    1
   22    21    22    1
   23    21    23    1
   24    13    24    1
   25    24    25    1
@<TRIPOS>SUBSTRUCTURE
       1 MOL1            1 RESIDUE      1      MOL     
@<SCITEGIC>MOL_PROPERTY
VConf Rank
SciTegic.value.IntegerValue
814

@<SCITEGIC>MOL_PROPERTY
Conf_Id
SciTegic.value.IntegerValue
161

@<SCITEGIC>MOL_PROPERTY
Delta U+W
SciTegic.value.DoubleValue
2.120

@<SCITEGIC>MOL_PROPERTY
U+W
SciTegic.value.DoubleValue
13.033

@<SCITEGIC>MOL_PROPERTY
Grad RMS
SciTegic.value.DoubleValue
0.000000

@<SCITEGIC>MOL_PROPERTY
U
SciTegic.value.DoubleValue
15.076

@<SCITEGIC>MOL_PROPERTY
W
SciTegic.value.DoubleValue
-2.043

@<SCITEGIC>MOL_PROPERTY
W(PB)
SciTegic.value.DoubleValue
-4.186

@<SCITEGIC>MOL_PROPERTY
W(SA)
SciTegic.value.DoubleValue
2.143

@<SCITEGIC>MOL_PROPERTY
Valence
SciTegic.value.DoubleValue
18.884

@<SCITEGIC>MOL_PROPERTY
Coulomb
SciTegic.value.DoubleValue
-8.074

@<SCITEGIC>MOL_PROPERTY
VdW
SciTegic.value.DoubleValue
4.266

@<SCITEGIC>MOL_PROPERTY
VdW6
SciTegic.value.DoubleValue
-13.486

@<SCITEGIC>MOL_PROPERTY
VdW12
SciTegic.value.DoubleValue
17.752

@<SCITEGIC>MOL_PROPERTY
Bond
SciTegic.value.DoubleValue
0.713

@<SCITEGIC>MOL_PROPERTY
Angle
SciTegic.value.DoubleValue
8.955

@<SCITEGIC>MOL_PROPERTY
Pdih
SciTegic.value.DoubleValue
9.215

@<SCITEGIC>MOL_PROPERTY
Idih
SciTegic.value.DoubleValue
0.000

@<SCITEGIC>MOL_PROPERTY
Tether
SciTegic.value.DoubleValue
0.000

@<TRIPOS>MOLECULE
guest-s17_confgen4.mol2 : confsearch ligand conformer 815
          25          25           1
SMALL
USER_CHARGES
 
@<TRIPOS>ATOM
       1    C1      19.620546   17.922527   23.973160 C.3        1 MOL1        -0.1684
       2    H1      19.082298   17.131167   24.512628 H          1 MOL1         0.0833
       3    H2      20.136185   18.493287   24.755838 H          1 MOL1         0.0833
       4    C2      18.572242   18.819464   23.268715 C.3        1 MOL1        -0.1684
       5    H3      18.308250   18.411542   22.283781 H          1 MOL1         0.0833
       6    H4      17.650751   18.759586   23.864064 H          1 MOL1         0.0833
       7    C3      18.947764   20.324424   23.171705 C.3        1 MOL1        -0.1684
       8    H5      19.472042   20.661253   24.076118 H          1 MOL1         0.0833
       9    H6      18.003796   20.886488   23.157286 H          1 MOL1         0.0833
      10    C4      19.731314   20.730936   21.896844 C.3        1 MOL1        -0.1760
      11    H7      19.398684   20.123819   21.046118 H          1 MOL1         0.0833
      12    H8      19.441816   21.758764   21.641118 H          1 MOL1         0.0833
      13    C5      21.276833   20.724756   22.011568 C.3        1 MOL1         0.1219
      14    H9      21.570018   21.558931   22.664995 H          1 MOL1         0.0790
      15    C6      21.919301   19.440112   22.584114 C.3        1 MOL1        -0.1760
      16    H10     23.000331   19.482383   22.395241 H          1 MOL1         0.0833
      17    H11     21.832533   19.454999   23.675907 H          1 MOL1         0.0833
      18    C7      21.360838   18.114119   22.001799 C.3        1 MOL1        -0.1684
      19    H12     22.192153   17.539628   21.570981 H          1 MOL1         0.0833
      20    H13     20.683854   18.303374   21.160980 H          1 MOL1         0.0833
      21    C8      20.645410   17.220686   23.043249 C.3        1 MOL1        -0.1684
      22    H14     21.404032   16.737237   23.673789 H          1 MOL1         0.0833
      23    H15     20.139075   16.406100   22.507659 H          1 MOL1         0.0833
      24    O1      21.813440   20.948702   20.715317 O.3        1 MOL1        -0.5508
      25    H16     21.649438   20.125772   20.211631 H          1 MOL1         0.3780
@<TRIPOS>BOND
    1     1     2    1
    2     1     3    1
    3     1     4    1
    4     4     5    1
    5     4     6    1
    6     4     7    1
    7     7     8    1
    8     7     9    1
    9     7    10    1
   10    10    11    1
   11    10    12    1
   12    10    13    1
   13    13    14    1
   14    13    15    1
   15    15    16    1
   16    15    17    1
   17    15    18    1
   18    18    19    1
   19    18    20    1
   20     1    21    1
   21    18    21    1
   22    21    22    1
   23    21    23    1
   24    13    24    1
   25    24    25    1
@<TRIPOS>SUBSTRUCTURE
       1 MOL1            1 RESIDUE      1      MOL     
@<SCITEGIC>MOL_PROPERTY
VConf Rank
SciTegic.value.IntegerValue
815

@<SCITEGIC>MOL_PROPERTY
Conf_Id
SciTegic.value.IntegerValue
164

@<SCITEGIC>MOL_PROPERTY
Delta U+W
SciTegic.value.DoubleValue
0.008

@<SCITEGIC>MOL_PROPERTY
U+W
SciTegic.value.DoubleValue
10.922

@<SCITEGIC>MOL_PROPERTY
Grad RMS
SciTegic.value.DoubleValue
0.000000

@<SCITEGIC>MOL_PROPERTY
U
SciTegic.value.DoubleValue
12.433

@<SCITEGIC>MOL_PROPERTY
W
SciTegic.value.DoubleValue
-1.511

@<SCITEGIC>MOL_PROPERTY
W(PB)
SciTegic.value.DoubleValue
-3.669

@<SCITEGIC>MOL_PROPERTY
W(SA)
SciTegic.value.DoubleValue
2.157

@<SCITEGIC>MOL_PROPERTY
Valence
SciTegic.value.DoubleValue
19.007

@<SCITEGIC>MOL_PROPERTY
Coulomb
SciTegic.value.DoubleValue
-9.373

@<SCITEGIC>MOL_PROPERTY
VdW
SciTegic.value.DoubleValue
2.799

@<SCITEGIC>MOL_PROPERTY
VdW6
SciTegic.value.DoubleValue
-12.597

@<SCITEGIC>MOL_PROPERTY
VdW12
SciTegic.value.DoubleValue
15.396

@<SCITEGIC>MOL_PROPERTY
Bond
SciTegic.value.DoubleValue
0.425

@<SCITEGIC>MOL_PROPERTY
Angle
SciTegic.value.DoubleValue
4.784

@<SCITEGIC>MOL_PROPERTY
Pdih
SciTegic.value.DoubleValue
13.799

@<SCITEGIC>MOL_PROPERTY
Idih
SciTegic.value.DoubleValue
0.000

@<SCITEGIC>MOL_PROPERTY
Tether
SciTegic.value.DoubleValue
0.000

@<TRIPOS>MOLECULE
guest-s17_confgen4.mol2 : confsearch ligand conformer 816
          25          25           1
SMALL
USER_CHARGES
 
@<TRIPOS>ATOM
       1    C1      21.145747   18.420611   24.046468 C.3        1 MOL1        -0.1684
       2    H1      21.921283   18.529202   23.279871 H          1 MOL1         0.0833
       3    H2      21.658405   17.942761   24.892349 H          1 MOL1         0.0833
       4    C2      20.043470   17.444035   23.565837 C.3        1 MOL1        -0.1684
       5    H3      20.523746   16.474802   23.373939 H          1 MOL1         0.0833
       6    H4      19.333641   17.266456   24.385053 H          1 MOL1         0.0833
       7    C3      19.253216   17.841315   22.292876 C.3        1 MOL1        -0.1684
       8    H5      18.439205   18.530604   22.544531 H          1 MOL1         0.0833
       9    H6      18.745171   16.936692   21.931555 H          1 MOL1         0.0833
      10    C4      20.110516   18.412114   21.131842 C.3        1 MOL1        -0.1760
      11    H7      21.148133   18.063970   21.202040 H          1 MOL1         0.0833
      12    H8      19.722772   17.982541   20.198375 H          1 MOL1         0.0833
      13    C5      20.055923   19.952791   20.977542 C.3        1 MOL1         0.1219
      14    H9      19.000287   20.253684   20.916759 H          1 MOL1         0.0790
      15    C6      20.731411   20.785229   22.096131 C.3        1 MOL1        -0.1760
      16    H10     21.789452   20.515148   22.198036 H          1 MOL1         0.0833
      17    H11     20.729810   21.831582   21.762390 H          1 MOL1         0.0833
      18    C7      20.011278   20.738640   23.470183 C.3        1 MOL1        -0.1684
      19    H12     18.951831   20.489914   23.340680 H          1 MOL1         0.0833
      20    H13     20.005667   21.754243   23.889141 H          1 MOL1         0.0833
      21    C8      20.662924   19.811598   24.527878 C.3        1 MOL1        -0.1684
      22    H14     19.966000   19.683337   25.367135 H          1 MOL1         0.0833
      23    H15     21.534126   20.336477   24.943102 H          1 MOL1         0.0833
      24    O1      20.690196   20.285522   19.750275 O.3        1 MOL1        -0.5508
      25    H16     21.624433   20.005541   19.837436 H          1 MOL1         0.3780
@<TRIPOS>BOND
    1     1     2    1
    2     1     3    1
    3     1     4    1
    4     4     5    1
    5     4     6    1
    6     4     7    1
    7     7     8    1
    8     7     9    1
    9     7    10    1
   10    10    11    1
   11    10    12    1
   12    10    13    1
   13    13    14    1
   14    13    15    1
   15    15    16    1
   16    15    17    1
   17    15    18    1
   18    18    19    1
   19    18    20    1
   20     1    21    1
   21    18    21    1
   22    21    22    1
   23    21    23    1
   24    13    24    1
   25    24    25    1
@<TRIPOS>SUBSTRUCTURE
       1 MOL1            1 RESIDUE      1      MOL     
@<SCITEGIC>MOL_PROPERTY
VConf Rank
SciTegic.value.IntegerValue
816

@<SCITEGIC>MOL_PROPERTY
Conf_Id
SciTegic.value.IntegerValue
15

@<SCITEGIC>MOL_PROPERTY
Delta U+W
SciTegic.value.DoubleValue
-1.271

@<SCITEGIC>MOL_PROPERTY
U+W
SciTegic.value.DoubleValue
9.643

@<SCITEGIC>MOL_PROPERTY
Grad RMS
SciTegic.value.DoubleValue
0.000000

@<SCITEGIC>MOL_PROPERTY
U
SciTegic.value.DoubleValue
11.413

@<SCITEGIC>MOL_PROPERTY
W
SciTegic.value.DoubleValue
-1.770

@<SCITEGIC>MOL_PROPERTY
W(PB)
SciTegic.value.DoubleValue
-3.908

@<SCITEGIC>MOL_PROPERTY
W(SA)
SciTegic.value.DoubleValue
2.138

@<SCITEGIC>MOL_PROPERTY
Valence
SciTegic.value.DoubleValue
17.496

@<SCITEGIC>MOL_PROPERTY
Coulomb
SciTegic.value.DoubleValue
-8.736

@<SCITEGIC>MOL_PROPERTY
VdW
SciTegic.value.DoubleValue
2.653

@<SCITEGIC>MOL_PROPERTY
VdW6
SciTegic.value.DoubleValue
-12.485

@<SCITEGIC>MOL_PROPERTY
VdW12
SciTegic.value.DoubleValue
15.138

@<SCITEGIC>MOL_PROPERTY
Bond
SciTegic.value.DoubleValue
0.414

@<SCITEGIC>MOL_PROPERTY
Angle
SciTegic.value.DoubleValue
5.295

@<SCITEGIC>MOL_PROPERTY
Pdih
SciTegic.value.DoubleValue
11.787

@<SCITEGIC>MOL_PROPERTY
Idih
SciTegic.value.DoubleValue
0.000

@<SCITEGIC>MOL_PROPERTY
Tether
SciTegic.value.DoubleValue
0.000

@<TRIPOS>MOLECULE
guest-s17_confgen4.mol2 : confsearch ligand conformer 817
          25          25           1
SMALL
USER_CHARGES
 
@<TRIPOS>ATOM
       1    C1      22.157214   18.955168   22.094694 C.3        1 MOL1        -0.1684
       2    H1      23.142136   18.897057   21.611441 H          1 MOL1         0.0833
       3    H2      22.118819   18.081221   22.757194 H          1 MOL1         0.0833
       4    C2      22.134350   20.268631   22.919993 C.3        1 MOL1        -0.1684
       5    H3      22.859619   20.169169   23.739088 H          1 MOL1         0.0833
       6    H4      22.504874   21.089820   22.291396 H          1 MOL1         0.0833
       7    C3      20.769478   20.690956   23.515055 C.3        1 MOL1        -0.1684
       8    H5      20.154886   21.151282   22.732657 H          1 MOL1         0.0833
       9    H6      20.948520   21.495880   24.240885 H          1 MOL1         0.0833
      10    C4      20.003908   19.542821   24.222969 C.3        1 MOL1        -0.1760
      11    H7      20.636344   18.653611   24.321565 H          1 MOL1         0.0833
      12    H8      19.790058   19.852620   25.254225 H          1 MOL1         0.0833
      13    C5      18.658437   19.165895   23.561227 C.3        1 MOL1         0.1219
      14    H9      17.939091   19.964546   23.792587 H          1 MOL1         0.0790
      15    C6      18.668222   18.993304   22.020255 C.3        1 MOL1        -0.1760
      16    H10     17.696084   18.566185   21.739454 H          1 MOL1         0.0833
      17    H11     18.686169   19.975475   21.532883 H          1 MOL1         0.0833
      18    C7      19.779470   18.090736   21.420637 C.3        1 MOL1        -0.1684
      19    H12     19.361165   17.635096   20.512586 H          1 MOL1         0.0833
      20    H13     20.008984   17.248672   22.086267 H          1 MOL1         0.0833
      21    C8      21.076066   18.831978   20.992643 C.3        1 MOL1        -0.1684
      22    H14     20.847339   19.814500   20.558455 H          1 MOL1         0.0833
      23    H15     21.520306   18.249037   20.174105 H          1 MOL1         0.0833
      24    O1      18.199685   17.955668   24.147149 O.3        1 MOL1        -0.5508
      25    H16     18.813415   17.259216   23.838226 H          1 MOL1         0.3780
@<TRIPOS>BOND
    1     1     2    1
    2     1     3    1
    3     1     4    1
    4     4     5    1
    5     4     6    1
    6     4     7    1
    7     7     8    1
    8     7     9    1
    9     7    10    1
   10    10    11    1
   11    10    12    1
   12    10    13    1
   13    13    14    1
   14    13    15    1
   15    15    16    1
   16    15    17    1
   17    15    18    1
   18    18    19    1
   19    18    20    1
   20     1    21    1
   21    18    21    1
   22    21    22    1
   23    21    23    1
   24    13    24    1
   25    24    25    1
@<TRIPOS>SUBSTRUCTURE
       1 MOL1            1 RESIDUE      1      MOL     
@<SCITEGIC>MOL_PROPERTY
VConf Rank
SciTegic.value.IntegerValue
817

@<SCITEGIC>MOL_PROPERTY
Conf_Id
SciTegic.value.IntegerValue
115

@<SCITEGIC>MOL_PROPERTY
Delta U+W
SciTegic.value.DoubleValue
0.038

@<SCITEGIC>MOL_PROPERTY
U+W
SciTegic.value.DoubleValue
10.952

@<SCITEGIC>MOL_PROPERTY
Grad RMS
SciTegic.value.DoubleValue
0.000000

@<SCITEGIC>MOL_PROPERTY
U
SciTegic.value.DoubleValue
12.526

@<SCITEGIC>MOL_PROPERTY
W
SciTegic.value.DoubleValue
-1.575

@<SCITEGIC>MOL_PROPERTY
W(PB)
SciTegic.value.DoubleValue
-3.698

@<SCITEGIC>MOL_PROPERTY
W(SA)
SciTegic.value.DoubleValue
2.123

@<SCITEGIC>MOL_PROPERTY
Valence
SciTegic.value.DoubleValue
19.016

@<SCITEGIC>MOL_PROPERTY
Coulomb
SciTegic.value.DoubleValue
-9.226

@<SCITEGIC>MOL_PROPERTY
VdW
SciTegic.value.DoubleValue
2.737

@<SCITEGIC>MOL_PROPERTY
VdW6
SciTegic.value.DoubleValue
-12.612

@<SCITEGIC>MOL_PROPERTY
VdW12
SciTegic.value.DoubleValue
15.349

@<SCITEGIC>MOL_PROPERTY
Bond
SciTegic.value.DoubleValue
0.421

@<SCITEGIC>MOL_PROPERTY
Angle
SciTegic.value.DoubleValue
4.883

@<SCITEGIC>MOL_PROPERTY
Pdih
SciTegic.value.DoubleValue
13.711

@<SCITEGIC>MOL_PROPERTY
Idih
SciTegic.value.DoubleValue
0.000

@<SCITEGIC>MOL_PROPERTY
Tether
SciTegic.value.DoubleValue
0.000

@<TRIPOS>MOLECULE
guest-s17_confgen4.mol2 : confsearch ligand conformer 818
          25          25           1
SMALL
USER_CHARGES
 
@<TRIPOS>ATOM
       1    C1      18.856540   18.842123   21.163245 C.3        1 MOL1        -0.1684
       2    H1      18.527883   18.503053   20.171276 H          1 MOL1         0.0833
       3    H2      17.941927   18.914940   21.767113 H          1 MOL1         0.0833
       4    C2      19.488307   20.242398   20.985377 C.3        1 MOL1        -0.1684
       5    H3      20.331175   20.189416   20.282980 H          1 MOL1         0.0833
       6    H4      18.738692   20.881438   20.498854 H          1 MOL1         0.0833
       7    C3      19.927500   20.936712   22.295313 C.3        1 MOL1        -0.1684
       8    H5      19.172980   20.785183   23.078713 H          1 MOL1         0.0833
       9    H6      19.937703   22.018962   22.106116 H          1 MOL1         0.0833
      10    C4      21.344572   20.536186   22.786666 C.3        1 MOL1        -0.1760
      11    H7      21.902812   20.006393   22.004684 H          1 MOL1         0.0833
      12    H8      21.903247   21.464705   22.966376 H          1 MOL1         0.0833
      13    C5      21.358424   19.713690   24.094818 C.3        1 MOL1         0.1219
      14    H9      20.551755   20.073082   24.749642 H          1 MOL1         0.0790
      15    C6      21.204221   18.189126   23.898963 C.3        1 MOL1        -0.1760
      16    H10     22.037457   17.802660   23.297339 H          1 MOL1         0.0833
      17    H11     21.303774   17.716969   24.885152 H          1 MOL1         0.0833
      18    C7      19.854214   17.730072   23.296120 C.3        1 MOL1        -0.1684
      19    H12     19.024698   18.297269   23.739087 H          1 MOL1         0.0833
      20    H13     19.693929   16.689006   23.608724 H          1 MOL1         0.0833
      21    C8      19.798022   17.762241   21.746342 C.3        1 MOL1        -0.1684
      22    H14     19.421689   16.785886   21.411217 H          1 MOL1         0.0833
      23    H15     20.801310   17.851925   21.309079 H          1 MOL1         0.0833
      24    O1      22.605256   19.937308   24.742161 O.3        1 MOL1        -0.5508
      25    H16     22.573754   19.452013   25.592943 H          1 MOL1         0.3780
@<TRIPOS>BOND
    1     1     2    1
    2     1     3    1
    3     1     4    1
    4     4     5    1
    5     4     6    1
    6     4     7    1
    7     7     8    1
    8     7     9    1
    9     7    10    1
   10    10    11    1
   11    10    12    1
   12    10    13    1
   13    13    14    1
   14    13    15    1
   15    15    16    1
   16    15    17    1
   17    15    18    1
   18    18    19    1
   19    18    20    1
   20     1    21    1
   21    18    21    1
   22    21    22    1
   23    21    23    1
   24    13    24    1
   25    24    25    1
@<TRIPOS>SUBSTRUCTURE
       1 MOL1            1 RESIDUE      1      MOL     
@<SCITEGIC>MOL_PROPERTY
VConf Rank
SciTegic.value.IntegerValue
818

@<SCITEGIC>MOL_PROPERTY
Conf_Id
SciTegic.value.IntegerValue
30

@<SCITEGIC>MOL_PROPERTY
Delta U+W
SciTegic.value.DoubleValue
0.000

@<SCITEGIC>MOL_PROPERTY
U+W
SciTegic.value.DoubleValue
10.913

@<SCITEGIC>MOL_PROPERTY
Grad RMS
SciTegic.value.DoubleValue
0.000000

@<SCITEGIC>MOL_PROPERTY
U
SciTegic.value.DoubleValue
13.140

@<SCITEGIC>MOL_PROPERTY
W
SciTegic.value.DoubleValue
-2.227

@<SCITEGIC>MOL_PROPERTY
W(PB)
SciTegic.value.DoubleValue
-4.367

@<SCITEGIC>MOL_PROPERTY
W(SA)
SciTegic.value.DoubleValue
2.140

@<SCITEGIC>MOL_PROPERTY
Valence
SciTegic.value.DoubleValue
19.155

@<SCITEGIC>MOL_PROPERTY
Coulomb
SciTegic.value.DoubleValue
-8.157

@<SCITEGIC>MOL_PROPERTY
VdW
SciTegic.value.DoubleValue
2.142

@<SCITEGIC>MOL_PROPERTY
VdW6
SciTegic.value.DoubleValue
-11.576

@<SCITEGIC>MOL_PROPERTY
VdW12
SciTegic.value.DoubleValue
13.718

@<SCITEGIC>MOL_PROPERTY
Bond
SciTegic.value.DoubleValue
0.294

@<SCITEGIC>MOL_PROPERTY
Angle
SciTegic.value.DoubleValue
3.547

@<SCITEGIC>MOL_PROPERTY
Pdih
SciTegic.value.DoubleValue
15.314

@<SCITEGIC>MOL_PROPERTY
Idih
SciTegic.value.DoubleValue
0.000

@<SCITEGIC>MOL_PROPERTY
Tether
SciTegic.value.DoubleValue
0.000

@<TRIPOS>MOLECULE
guest-s17_confgen4.mol2 : confsearch ligand conformer 819
          25          25           1
SMALL
USER_CHARGES
 
@<TRIPOS>ATOM
       1    C1      18.780535   17.851065   22.081965 C.3        1 MOL1        -0.1684
       2    H1      17.825693   17.553578   22.536537 H          1 MOL1         0.0833
       3    H2      18.902849   17.207109   21.200414 H          1 MOL1         0.0833
       4    C2      19.920619   17.529298   23.079341 C.3        1 MOL1        -0.1684
       5    H3      19.730306   16.532707   23.500598 H          1 MOL1         0.0833
       6    H4      20.866595   17.423820   22.535688 H          1 MOL1         0.0833
       7    C3      20.056640   18.541409   24.245073 C.3        1 MOL1        -0.1684
       8    H5      19.993475   17.994943   25.195899 H          1 MOL1         0.0833
       9    H6      19.208383   19.235465   24.264617 H          1 MOL1         0.0833
      10    C4      21.384840   19.339771   24.237371 C.3        1 MOL1        -0.1760
      11    H7      21.306812   20.149637   24.974791 H          1 MOL1         0.0833
      12    H8      22.187404   18.682118   24.595909 H          1 MOL1         0.0833
      13    C5      21.836082   19.934398   22.879808 C.3        1 MOL1         0.1219
      14    H9      22.163027   19.120238   22.219325 H          1 MOL1         0.0790
      15    C6      20.764134   20.771495   22.139882 C.3        1 MOL1        -0.1760
      16    H10     20.103016   21.268241   22.861490 H          1 MOL1         0.0833
      17    H11     21.274336   21.584657   21.606535 H          1 MOL1         0.0833
      18    C7      19.938984   19.989656   21.078936 C.3        1 MOL1        -0.1684
      19    H12     20.563814   19.258050   20.549067 H          1 MOL1         0.0833
      20    H13     19.631011   20.717007   20.315163 H          1 MOL1         0.0833
      21    C8      18.646210   19.324188   21.612498 C.3        1 MOL1        -0.1684
      22    H14     17.902831   19.335039   20.803588 H          1 MOL1         0.0833
      23    H15     18.205406   19.943135   22.404285 H          1 MOL1         0.0833
      24    O1      22.958133   20.769752   23.139422 O.3        1 MOL1        -0.5508
      25    H16     23.287499   21.078522   22.269575 H          1 MOL1         0.3780
@<TRIPOS>BOND
    1     1     2    1
    2     1     3    1
    3     1     4    1
    4     4     5    1
    5     4     6    1
    6     4     7    1
    7     7     8    1
    8     7     9    1
    9     7    10    1
   10    10    11    1
   11    10    12    1
   12    10    13    1
   13    13    14    1
   14    13    15    1
   15    15    16    1
   16    15    17    1
   17    15    18    1
   18    18    19    1
   19    18    20    1
   20     1    21    1
   21    18    21    1
   22    21    22    1
   23    21    23    1
   24    13    24    1
   25    24    25    1
@<TRIPOS>SUBSTRUCTURE
       1 MOL1            1 RESIDUE      1      MOL     
@<SCITEGIC>MOL_PROPERTY
VConf Rank
SciTegic.value.IntegerValue
819

@<SCITEGIC>MOL_PROPERTY
Conf_Id
SciTegic.value.IntegerValue
162

@<SCITEGIC>MOL_PROPERTY
Delta U+W
SciTegic.value.DoubleValue
0.219

@<SCITEGIC>MOL_PROPERTY
U+W
SciTegic.value.DoubleValue
11.132

@<SCITEGIC>MOL_PROPERTY
Grad RMS
SciTegic.value.DoubleValue
0.000000

@<SCITEGIC>MOL_PROPERTY
U
SciTegic.value.DoubleValue
13.296

@<SCITEGIC>MOL_PROPERTY
W
SciTegic.value.DoubleValue
-2.164

@<SCITEGIC>MOL_PROPERTY
W(PB)
SciTegic.value.DoubleValue
-4.311

@<SCITEGIC>MOL_PROPERTY
W(SA)
SciTegic.value.DoubleValue
2.148

@<SCITEGIC>MOL_PROPERTY
Valence
SciTegic.value.DoubleValue
18.607

@<SCITEGIC>MOL_PROPERTY
Coulomb
SciTegic.value.DoubleValue
-8.339

@<SCITEGIC>MOL_PROPERTY
VdW
SciTegic.value.DoubleValue
3.028

@<SCITEGIC>MOL_PROPERTY
VdW6
SciTegic.value.DoubleValue
-12.271

@<SCITEGIC>MOL_PROPERTY
VdW12
SciTegic.value.DoubleValue
15.299

@<SCITEGIC>MOL_PROPERTY
Bond
SciTegic.value.DoubleValue
0.423

@<SCITEGIC>MOL_PROPERTY
Angle
SciTegic.value.DoubleValue
4.488

@<SCITEGIC>MOL_PROPERTY
Pdih
SciTegic.value.DoubleValue
13.696

@<SCITEGIC>MOL_PROPERTY
Idih
SciTegic.value.DoubleValue
0.000

@<SCITEGIC>MOL_PROPERTY
Tether
SciTegic.value.DoubleValue
0.000

@<TRIPOS>MOLECULE
guest-s17_confgen4.mol2 : confsearch ligand conformer 820
          25          25           1
SMALL
USER_CHARGES
 
@<TRIPOS>ATOM
       1    C1      21.739341   17.969469   21.971361 C.3        1 MOL1        -0.1684
       2    H1      21.144350   17.152830   22.399473 H          1 MOL1         0.0833
       3    H2      22.579116   17.470075   21.469017 H          1 MOL1         0.0833
       4    C2      20.913865   18.716540   20.894245 C.3        1 MOL1        -0.1684
       5    H3      21.325874   19.718290   20.712651 H          1 MOL1         0.0833
       6    H4      21.052360   18.170105   19.951183 H          1 MOL1         0.0833
       7    C3      19.383441   18.778147   21.158004 C.3        1 MOL1        -0.1684
       8    H5      19.021257   17.846359   21.612712 H          1 MOL1         0.0833
       9    H6      18.894185   18.831037   20.175679 H          1 MOL1         0.0833
      10    C4      18.900563   20.010524   21.966252 C.3        1 MOL1        -0.1760
      11    H7      19.522575   20.881917   21.727361 H          1 MOL1         0.0833
      12    H8      17.896499   20.273562   21.608647 H          1 MOL1         0.0833
      13    C5      18.787923   19.825931   23.500711 C.3        1 MOL1         0.1219
      14    H9      17.937160   19.157742   23.697733 H          1 MOL1         0.0790
      15    C6      20.022260   19.220183   24.210313 C.3        1 MOL1        -0.1760
      16    H10     19.896302   19.340413   25.294139 H          1 MOL1         0.0833
      17    H11     20.025172   18.135999   24.055028 H          1 MOL1         0.0833
      18    C7      21.381379   19.842508   23.794399 C.3        1 MOL1        -0.1684
      19    H12     21.880818   20.231997   24.691739 H          1 MOL1         0.0833
      20    H13     21.230679   20.720832   23.155693 H          1 MOL1         0.0833
      21    C8      22.344055   18.852691   23.094899 C.3        1 MOL1        -0.1684
      22    H14     22.779301   18.188733   23.854147 H          1 MOL1         0.0833
      23    H15     23.185301   19.425780   22.681876 H          1 MOL1         0.0833
      24    O1      18.516190   21.099859   24.072872 O.3        1 MOL1        -0.5508
      25    H16     18.450743   20.965795   25.040788 H          1 MOL1         0.3780
@<TRIPOS>BOND
    1     1     2    1
    2     1     3    1
    3     1     4    1
    4     4     5    1
    5     4     6    1
    6     4     7    1
    7     7     8    1
    8     7     9    1
    9     7    10    1
   10    10    11    1
   11    10    12    1
   12    10    13    1
   13    13    14    1
   14    13    15    1
   15    15    16    1
   16    15    17    1
   17    15    18    1
   18    18    19    1
   19    18    20    1
   20     1    21    1
   21    18    21    1
   22    21    22    1
   23    21    23    1
   24    13    24    1
   25    24    25    1
@<TRIPOS>SUBSTRUCTURE
       1 MOL1            1 RESIDUE      1      MOL     
@<SCITEGIC>MOL_PROPERTY
VConf Rank
SciTegic.value.IntegerValue
820

@<SCITEGIC>MOL_PROPERTY
Conf_Id
SciTegic.value.IntegerValue
155

@<SCITEGIC>MOL_PROPERTY
Delta U+W
SciTegic.value.DoubleValue
0.339

@<SCITEGIC>MOL_PROPERTY
U+W
SciTegic.value.DoubleValue
11.252

@<SCITEGIC>MOL_PROPERTY
Grad RMS
SciTegic.value.DoubleValue
0.000000

@<SCITEGIC>MOL_PROPERTY
U
SciTegic.value.DoubleValue
13.420

@<SCITEGIC>MOL_PROPERTY
W
SciTegic.value.DoubleValue
-2.167

@<SCITEGIC>MOL_PROPERTY
W(PB)
SciTegic.value.DoubleValue
-4.325

@<SCITEGIC>MOL_PROPERTY
W(SA)
SciTegic.value.DoubleValue
2.157

@<SCITEGIC>MOL_PROPERTY
Valence
SciTegic.value.DoubleValue
18.609

@<SCITEGIC>MOL_PROPERTY
Coulomb
SciTegic.value.DoubleValue
-8.052

@<SCITEGIC>MOL_PROPERTY
VdW
SciTegic.value.DoubleValue
2.863

@<SCITEGIC>MOL_PROPERTY
VdW6
SciTegic.value.DoubleValue
-12.524

@<SCITEGIC>MOL_PROPERTY
VdW12
SciTegic.value.DoubleValue
15.387

@<SCITEGIC>MOL_PROPERTY
Bond
SciTegic.value.DoubleValue
0.430

@<SCITEGIC>MOL_PROPERTY
Angle
SciTegic.value.DoubleValue
4.724

@<SCITEGIC>MOL_PROPERTY
Pdih
SciTegic.value.DoubleValue
13.455

@<SCITEGIC>MOL_PROPERTY
Idih
SciTegic.value.DoubleValue
0.000

@<SCITEGIC>MOL_PROPERTY
Tether
SciTegic.value.DoubleValue
0.000

@<TRIPOS>MOLECULE
guest-s17_confgen4.mol2 : confsearch ligand conformer 821
          25          25           1
SMALL
USER_CHARGES
 
@<TRIPOS>ATOM
       1    C1      19.978598   19.935868   24.513161 C.3        1 MOL1        -0.1684
       2    H1      20.687635   19.603306   25.283232 H          1 MOL1         0.0833
       3    H2      19.272130   20.597614   25.032563 H          1 MOL1         0.0833
       4    C2      20.727943   20.806191   23.470165 C.3        1 MOL1        -0.1684
       5    H3      20.004101   21.233840   22.769230 H          1 MOL1         0.0833
       6    H4      21.126236   21.684684   23.995835 H          1 MOL1         0.0833
       7    C3      21.916919   20.151958   22.707583 C.3        1 MOL1        -0.1684
       8    H5      22.815250   20.280443   23.326490 H          1 MOL1         0.0833
       9    H6      22.108653   20.723626   21.789350 H          1 MOL1         0.0833
      10    C4      21.820304   18.642375   22.355833 C.3        1 MOL1        -0.1760
      11    H7      22.795596   18.335833   21.955661 H          1 MOL1         0.0833
      12    H8      21.737747   18.062804   23.279432 H          1 MOL1         0.0833
      13    C5      20.727545   18.197885   21.339659 C.3        1 MOL1         0.1219
      14    H9      20.517063   17.133679   21.518358 H          1 MOL1         0.0790
      15    C6      19.378098   18.959008   21.354735 C.3        1 MOL1        -0.1760
      16    H10     19.558721   20.011136   21.116151 H          1 MOL1         0.0833
      17    H11     18.786466   18.598329   20.502968 H          1 MOL1         0.0833
      18    C7      18.479475   18.823941   22.620648 C.3        1 MOL1        -0.1684
      19    H12     17.864085   17.923008   22.492380 H          1 MOL1         0.0833
      20    H13     17.769943   19.662017   22.643383 H          1 MOL1         0.0833
      21    C8      19.173126   18.704988   24.003177 C.3        1 MOL1        -0.1684
      22    H14     19.789244   17.800586   24.024003 H          1 MOL1         0.0833
      23    H15     18.392605   18.499961   24.748582 H          1 MOL1         0.0833
      24    O1      21.267181   18.338090   20.029957 O.3        1 MOL1        -0.5508
      25    H16     22.094060   17.813700   20.006953 H          1 MOL1         0.3780
@<TRIPOS>BOND
    1     1     2    1
    2     1     3    1
    3     1     4    1
    4     4     5    1
    5     4     6    1
    6     4     7    1
    7     7     8    1
    8     7     9    1
    9     7    10    1
   10    10    11    1
   11    10    12    1
   12    10    13    1
   13    13    14    1
   14    13    15    1
   15    15    16    1
   16    15    17    1
   17    15    18    1
   18    18    19    1
   19    18    20    1
   20     1    21    1
   21    18    21    1
   22    21    22    1
   23    21    23    1
   24    13    24    1
   25    24    25    1
@<TRIPOS>SUBSTRUCTURE
       1 MOL1            1 RESIDUE      1      MOL     
@<SCITEGIC>MOL_PROPERTY
VConf Rank
SciTegic.value.IntegerValue
821

@<SCITEGIC>MOL_PROPERTY
Conf_Id
SciTegic.value.IntegerValue
146

@<SCITEGIC>MOL_PROPERTY
Delta U+W
SciTegic.value.DoubleValue
2.553

@<SCITEGIC>MOL_PROPERTY
U+W
SciTegic.value.DoubleValue
13.466

@<SCITEGIC>MOL_PROPERTY
Grad RMS
SciTegic.value.DoubleValue
0.000000

@<SCITEGIC>MOL_PROPERTY
U
SciTegic.value.DoubleValue
15.643

@<SCITEGIC>MOL_PROPERTY
W
SciTegic.value.DoubleValue
-2.176

@<SCITEGIC>MOL_PROPERTY
W(PB)
SciTegic.value.DoubleValue
-4.307

@<SCITEGIC>MOL_PROPERTY
W(SA)
SciTegic.value.DoubleValue
2.131

@<SCITEGIC>MOL_PROPERTY
Valence
SciTegic.value.DoubleValue
18.916

@<SCITEGIC>MOL_PROPERTY
Coulomb
SciTegic.value.DoubleValue
-7.506

@<SCITEGIC>MOL_PROPERTY
VdW
SciTegic.value.DoubleValue
4.232

@<SCITEGIC>MOL_PROPERTY
VdW6
SciTegic.value.DoubleValue
-13.632

@<SCITEGIC>MOL_PROPERTY
VdW12
SciTegic.value.DoubleValue
17.864

@<SCITEGIC>MOL_PROPERTY
Bond
SciTegic.value.DoubleValue
0.735

@<SCITEGIC>MOL_PROPERTY
Angle
SciTegic.value.DoubleValue
9.140

@<SCITEGIC>MOL_PROPERTY
Pdih
SciTegic.value.DoubleValue
9.042

@<SCITEGIC>MOL_PROPERTY
Idih
SciTegic.value.DoubleValue
0.000

@<SCITEGIC>MOL_PROPERTY
Tether
SciTegic.value.DoubleValue
0.000

@<TRIPOS>MOLECULE
guest-s17_confgen4.mol2 : confsearch ligand conformer 822
          25          25           1
SMALL
USER_CHARGES
 
@<TRIPOS>ATOM
       1    C1      20.947584   20.156327   24.416956 C.3        1 MOL1        -0.1684
       2    H1      20.480632   21.067510   24.814706 H          1 MOL1         0.0833
       3    H2      21.745081   19.898072   25.127037 H          1 MOL1         0.0833
       4    C2      21.622896   20.478223   23.060314 C.3        1 MOL1        -0.1684
       5    H3      22.389043   21.242087   23.250918 H          1 MOL1         0.0833
       6    H4      22.184270   19.609351   22.698280 H          1 MOL1         0.0833
       7    C3      20.693573   21.026966   21.948728 C.3        1 MOL1        -0.1684
       8    H5      21.328236   21.315015   21.099486 H          1 MOL1         0.0833
       9    H6      20.221168   21.955794   22.295936 H          1 MOL1         0.0833
      10    C4      19.594045   20.071338   21.416266 C.3        1 MOL1        -0.1760
      11    H7      18.727240   20.079001   22.084593 H          1 MOL1         0.0833
      12    H8      19.219957   20.501261   20.477246 H          1 MOL1         0.0833
      13    C5      20.057191   18.614512   21.156977 C.3        1 MOL1         0.1219
      14    H9      21.150422   18.588268   21.054986 H          1 MOL1         0.0790
      15    C6      19.619353   17.606281   22.249466 C.3        1 MOL1        -0.1760
      16    H10     18.529449   17.658588   22.372325 H          1 MOL1         0.0833
      17    H11     19.827780   16.593865   21.879448 H          1 MOL1         0.0833
      18    C7      20.299111   17.738299   23.639467 C.3        1 MOL1        -0.1684
      19    H12     21.389525   17.649931   23.550092 H          1 MOL1         0.0833
      20    H13     19.988820   16.866712   24.231953 H          1 MOL1         0.0833
      21    C8      19.906013   19.007815   24.438397 C.3        1 MOL1        -0.1684
      22    H14     19.765311   18.720003   25.489304 H          1 MOL1         0.0833
      23    H15     18.922260   19.372462   24.122033 H          1 MOL1         0.0833
      24    O1      19.485595   18.181157   19.927819 O.3        1 MOL1        -0.5508
      25    H16     19.836541   17.283059   19.753241 H          1 MOL1         0.3780
@<TRIPOS>BOND
    1     1     2    1
    2     1     3    1
    3     1     4    1
    4     4     5    1
    5     4     6    1
    6     4     7    1
    7     7     8    1
    8     7     9    1
    9     7    10    1
   10    10    11    1
   11    10    12    1
   12    10    13    1
   13    13    14    1
   14    13    15    1
   15    15    16    1
   16    15    17    1
   17    15    18    1
   18    18    19    1
   19    18    20    1
   20     1    21    1
   21    18    21    1
   22    21    22    1
   23    21    23    1
   24    13    24    1
   25    24    25    1
@<TRIPOS>SUBSTRUCTURE
       1 MOL1            1 RESIDUE      1      MOL     
@<SCITEGIC>MOL_PROPERTY
VConf Rank
SciTegic.value.IntegerValue
822

@<SCITEGIC>MOL_PROPERTY
Conf_Id
SciTegic.value.IntegerValue
62

@<SCITEGIC>MOL_PROPERTY
Delta U+W
SciTegic.value.DoubleValue
-1.779

@<SCITEGIC>MOL_PROPERTY
U+W
SciTegic.value.DoubleValue
9.134

@<SCITEGIC>MOL_PROPERTY
Grad RMS
SciTegic.value.DoubleValue
0.000000

@<SCITEGIC>MOL_PROPERTY
U
SciTegic.value.DoubleValue
11.364

@<SCITEGIC>MOL_PROPERTY
W
SciTegic.value.DoubleValue
-2.230

@<SCITEGIC>MOL_PROPERTY
W(PB)
SciTegic.value.DoubleValue
-4.359

@<SCITEGIC>MOL_PROPERTY
W(SA)
SciTegic.value.DoubleValue
2.129

@<SCITEGIC>MOL_PROPERTY
Valence
SciTegic.value.DoubleValue
16.582

@<SCITEGIC>MOL_PROPERTY
Coulomb
SciTegic.value.DoubleValue
-8.150

@<SCITEGIC>MOL_PROPERTY
VdW
SciTegic.value.DoubleValue
2.933

@<SCITEGIC>MOL_PROPERTY
VdW6
SciTegic.value.DoubleValue
-12.531

@<SCITEGIC>MOL_PROPERTY
VdW12
SciTegic.value.DoubleValue
15.464

@<SCITEGIC>MOL_PROPERTY
Bond
SciTegic.value.DoubleValue
0.439

@<SCITEGIC>MOL_PROPERTY
Angle
SciTegic.value.DoubleValue
5.099

@<SCITEGIC>MOL_PROPERTY
Pdih
SciTegic.value.DoubleValue
11.044

@<SCITEGIC>MOL_PROPERTY
Idih
SciTegic.value.DoubleValue
0.000

@<SCITEGIC>MOL_PROPERTY
Tether
SciTegic.value.DoubleValue
0.000

@<TRIPOS>MOLECULE
guest-s17_confgen4.mol2 : confsearch ligand conformer 823
          25          25           1
SMALL
USER_CHARGES
 
@<TRIPOS>ATOM
       1    C1      18.839183   19.047696   23.732118 C.3        1 MOL1        -0.1684
       2    H1      18.646108   18.376071   22.887864 H          1 MOL1         0.0833
       3    H2      17.935435   18.978602   24.352686 H          1 MOL1         0.0833
       4    C2      18.949994   20.513097   23.242244 C.3        1 MOL1        -0.1684
       5    H3      17.996381   20.772418   22.762388 H          1 MOL1         0.0833
       6    H4      19.036580   21.180337   24.110454 H          1 MOL1         0.0833
       7    C3      20.087976   20.839411   22.241627 C.3        1 MOL1        -0.1684
       8    H5      21.029786   21.014646   22.773868 H          1 MOL1         0.0833
       9    H6      19.847550   21.808353   21.782964 H          1 MOL1         0.0833
      10    C4      20.289470   19.801618   21.105098 C.3        1 MOL1        -0.1760
      11    H7      19.369478   19.232832   20.922483 H          1 MOL1         0.0833
      12    H8      20.469689   20.364846   20.180090 H          1 MOL1         0.0833
      13    C5      21.490478   18.842484   21.302675 C.3        1 MOL1         0.1219
      14    H9      22.388435   19.448700   21.490177 H          1 MOL1         0.0790
      15    C6      21.362642   17.805335   22.446304 C.3        1 MOL1        -0.1760
      16    H10     20.474477   17.178857   22.299751 H          1 MOL1         0.0833
      17    H11     22.216428   17.120965   22.354125 H          1 MOL1         0.0833
      18    C7      21.398868   18.400854   23.879348 C.3        1 MOL1        -0.1684
      19    H12     21.917320   19.366333   23.881188 H          1 MOL1         0.0833
      20    H13     22.026278   17.751112   24.504760 H          1 MOL1         0.0833
      21    C8      20.022270   18.520532   24.581897 C.3        1 MOL1        -0.1684
      22    H14     20.132521   19.145874   25.478153 H          1 MOL1         0.0833
      23    H15     19.744761   17.522731   24.948317 H          1 MOL1         0.0833
      24    O1      21.671141   18.121821   20.090061 O.3        1 MOL1        -0.5508
      25    H16     21.818947   18.786208   19.385156 H          1 MOL1         0.3780
@<TRIPOS>BOND
    1     1     2    1
    2     1     3    1
    3     1     4    1
    4     4     5    1
    5     4     6    1
    6     4     7    1
    7     7     8    1
    8     7     9    1
    9     7    10    1
   10    10    11    1
   11    10    12    1
   12    10    13    1
   13    13    14    1
   14    13    15    1
   15    15    16    1
   16    15    17    1
   17    15    18    1
   18    18    19    1
   19    18    20    1
   20     1    21    1
   21    18    21    1
   22    21    22    1
   23    21    23    1
   24    13    24    1
   25    24    25    1
@<TRIPOS>SUBSTRUCTURE
       1 MOL1            1 RESIDUE      1      MOL     
@<SCITEGIC>MOL_PROPERTY
VConf Rank
SciTegic.value.IntegerValue
823

@<SCITEGIC>MOL_PROPERTY
Conf_Id
SciTegic.value.IntegerValue
121

@<SCITEGIC>MOL_PROPERTY
Delta U+W
SciTegic.value.DoubleValue
-1.283

@<SCITEGIC>MOL_PROPERTY
U+W
SciTegic.value.DoubleValue
9.630

@<SCITEGIC>MOL_PROPERTY
Grad RMS
SciTegic.value.DoubleValue
0.000000

@<SCITEGIC>MOL_PROPERTY
U
SciTegic.value.DoubleValue
11.876

@<SCITEGIC>MOL_PROPERTY
W
SciTegic.value.DoubleValue
-2.246

@<SCITEGIC>MOL_PROPERTY
W(PB)
SciTegic.value.DoubleValue
-4.376

@<SCITEGIC>MOL_PROPERTY
W(SA)
SciTegic.value.DoubleValue
2.130

@<SCITEGIC>MOL_PROPERTY
Valence
SciTegic.value.DoubleValue
17.153

@<SCITEGIC>MOL_PROPERTY
Coulomb
SciTegic.value.DoubleValue
-7.966

@<SCITEGIC>MOL_PROPERTY
VdW
SciTegic.value.DoubleValue
2.689

@<SCITEGIC>MOL_PROPERTY
VdW6
SciTegic.value.DoubleValue
-12.458

@<SCITEGIC>MOL_PROPERTY
VdW12
SciTegic.value.DoubleValue
15.147

@<SCITEGIC>MOL_PROPERTY
Bond
SciTegic.value.DoubleValue
0.421

@<SCITEGIC>MOL_PROPERTY
Angle
SciTegic.value.DoubleValue
5.258

@<SCITEGIC>MOL_PROPERTY
Pdih
SciTegic.value.DoubleValue
11.475

@<SCITEGIC>MOL_PROPERTY
Idih
SciTegic.value.DoubleValue
0.000

@<SCITEGIC>MOL_PROPERTY
Tether
SciTegic.value.DoubleValue
0.000

@<TRIPOS>MOLECULE
guest-s17_confgen4.mol2 : confsearch ligand conformer 824
          25          25           1
SMALL
USER_CHARGES
 
@<TRIPOS>ATOM
       1    C1      20.134097   20.469962   24.073507 C.3        1 MOL1        -0.1684
       2    H1      19.973017   21.072195   23.172123 H          1 MOL1         0.0833
       3    H2      19.993447   21.173793   24.905058 H          1 MOL1         0.0833
       4    C2      21.599587   19.971719   24.135268 C.3        1 MOL1        -0.1684
       5    H3      22.247752   20.858555   24.152229 H          1 MOL1         0.0833
       6    H4      21.769500   19.461446   25.092991 H          1 MOL1         0.0833
       7    C3      22.083108   19.053964   22.983375 C.3        1 MOL1        -0.1684
       8    H5      21.793878   18.013983   23.172403 H          1 MOL1         0.0833
       9    H6      23.181176   19.043902   23.016457 H          1 MOL1         0.0833
      10    C4      21.645483   19.490308   21.559415 C.3        1 MOL1        -0.1760
      11    H7      21.436254   20.566208   21.521324 H          1 MOL1         0.0833
      12    H8      22.504490   19.339977   20.892093 H          1 MOL1         0.0833
      13    C5      20.464082   18.685746   20.962016 C.3        1 MOL1         0.1219
      14    H9      20.713598   17.616620   21.022771 H          1 MOL1         0.0790
      15    C6      19.079792   18.899863   21.624800 C.3        1 MOL1        -0.1760
      16    H10     18.797411   19.959289   21.591184 H          1 MOL1         0.0833
      17    H11     18.336604   18.382631   21.003925 H          1 MOL1         0.0833
      18    C7      18.949368   18.332654   23.063748 C.3        1 MOL1        -0.1684
      19    H12     19.674665   17.527489   23.226988 H          1 MOL1         0.0833
      20    H13     17.970282   17.842090   23.151853 H          1 MOL1         0.0833
      21    C8      19.037527   19.383154   24.200143 C.3        1 MOL1        -0.1684
      22    H14     19.152980   18.861316   25.159753 H          1 MOL1         0.0833
      23    H15     18.068913   19.898369   24.256971 H          1 MOL1         0.0833
      24    O1      20.347680   19.050302   19.592354 O.3        1 MOL1        -0.5508
      25    H16     19.643873   18.487036   19.208248 H          1 MOL1         0.3780
@<TRIPOS>BOND
    1     1     2    1
    2     1     3    1
    3     1     4    1
    4     4     5    1
    5     4     6    1
    6     4     7    1
    7     7     8    1
    8     7     9    1
    9     7    10    1
   10    10    11    1
   11    10    12    1
   12    10    13    1
   13    13    14    1
   14    13    15    1
   15    15    16    1
   16    15    17    1
   17    15    18    1
   18    18    19    1
   19    18    20    1
   20     1    21    1
   21    18    21    1
   22    21    22    1
   23    21    23    1
   24    13    24    1
   25    24    25    1
@<TRIPOS>SUBSTRUCTURE
       1 MOL1            1 RESIDUE      1      MOL     
@<SCITEGIC>MOL_PROPERTY
VConf Rank
SciTegic.value.IntegerValue
824

@<SCITEGIC>MOL_PROPERTY
Conf_Id
SciTegic.value.IntegerValue
24

@<SCITEGIC>MOL_PROPERTY
Delta U+W
SciTegic.value.DoubleValue
-1.236

@<SCITEGIC>MOL_PROPERTY
U+W
SciTegic.value.DoubleValue
9.678

@<SCITEGIC>MOL_PROPERTY
Grad RMS
SciTegic.value.DoubleValue
0.000000

@<SCITEGIC>MOL_PROPERTY
U
SciTegic.value.DoubleValue
11.876

@<SCITEGIC>MOL_PROPERTY
W
SciTegic.value.DoubleValue
-2.199

@<SCITEGIC>MOL_PROPERTY
W(PB)
SciTegic.value.DoubleValue
-4.335

@<SCITEGIC>MOL_PROPERTY
W(SA)
SciTegic.value.DoubleValue
2.137

@<SCITEGIC>MOL_PROPERTY
Valence
SciTegic.value.DoubleValue
17.153

@<SCITEGIC>MOL_PROPERTY
Coulomb
SciTegic.value.DoubleValue
-7.966

@<SCITEGIC>MOL_PROPERTY
VdW
SciTegic.value.DoubleValue
2.689

@<SCITEGIC>MOL_PROPERTY
VdW6
SciTegic.value.DoubleValue
-12.458

@<SCITEGIC>MOL_PROPERTY
VdW12
SciTegic.value.DoubleValue
15.147

@<SCITEGIC>MOL_PROPERTY
Bond
SciTegic.value.DoubleValue
0.421

@<SCITEGIC>MOL_PROPERTY
Angle
SciTegic.value.DoubleValue
5.258

@<SCITEGIC>MOL_PROPERTY
Pdih
SciTegic.value.DoubleValue
11.475

@<SCITEGIC>MOL_PROPERTY
Idih
SciTegic.value.DoubleValue
0.000

@<SCITEGIC>MOL_PROPERTY
Tether
SciTegic.value.DoubleValue
0.000

@<TRIPOS>MOLECULE
guest-s17_confgen4.mol2 : confsearch ligand conformer 825
          25          25           1
SMALL
USER_CHARGES
 
@<TRIPOS>ATOM
       1    C1      21.347832   19.916995   20.943559 C.3        1 MOL1        -0.1684
       2    H1      20.998514   19.785557   19.910370 H          1 MOL1         0.0833
       3    H2      22.328815   20.405303   20.865573 H          1 MOL1         0.0833
       4    C2      20.387416   20.889785   21.678052 C.3        1 MOL1        -0.1684
       5    H3      20.864803   21.298363   22.577751 H          1 MOL1         0.0833
       6    H4      20.245685   21.757276   21.018932 H          1 MOL1         0.0833
       7    C3      18.988421   20.326640   22.030671 C.3        1 MOL1        -0.1684
       8    H5      18.643212   19.627170   21.257348 H          1 MOL1         0.0833
       9    H6      18.286344   21.170982   21.993578 H          1 MOL1         0.0833
      10    C4      18.866541   19.700906   23.448955 C.3        1 MOL1        -0.1760
      11    H7      19.470461   20.259499   24.175408 H          1 MOL1         0.0833
      12    H8      17.823383   19.840286   23.764146 H          1 MOL1         0.0833
      13    C5      19.185644   18.187863   23.526096 C.3        1 MOL1         0.1219
      14    H9      18.947810   17.731337   22.556202 H          1 MOL1         0.0790
      15    C6      20.644212   17.835719   23.913889 C.3        1 MOL1        -0.1760
      16    H10     20.802006   18.057245   24.977561 H          1 MOL1         0.0833
      17    H11     20.762240   16.748915   23.811187 H          1 MOL1         0.0833
      18    C7      21.769703   18.527092   23.104003 C.3        1 MOL1        -0.1684
      19    H12     22.714375   18.012041   23.325531 H          1 MOL1         0.0833
      20    H13     21.915802   19.549202   23.472291 H          1 MOL1         0.0833
      21    C8      21.544627   18.515114   21.570853 C.3        1 MOL1        -0.1684
      22    H14     20.701299   17.869108   21.300431 H          1 MOL1         0.0833
      23    H15     22.416378   18.048939   21.091685 H          1 MOL1         0.0833
      24    O1      18.336374   17.601087   24.503922 O.3        1 MOL1        -0.5508
      25    H16     18.550966   18.036499   25.354415 H          1 MOL1         0.3780
@<TRIPOS>BOND
    1     1     2    1
    2     1     3    1
    3     1     4    1
    4     4     5    1
    5     4     6    1
    6     4     7    1
    7     7     8    1
    8     7     9    1
    9     7    10    1
   10    10    11    1
   11    10    12    1
   12    10    13    1
   13    13    14    1
   14    13    15    1
   15    15    16    1
   16    15    17    1
   17    15    18    1
   18    18    19    1
   19    18    20    1
   20     1    21    1
   21    18    21    1
   22    21    22    1
   23    21    23    1
   24    13    24    1
   25    24    25    1
@<TRIPOS>SUBSTRUCTURE
       1 MOL1            1 RESIDUE      1      MOL     
@<SCITEGIC>MOL_PROPERTY
VConf Rank
SciTegic.value.IntegerValue
825

@<SCITEGIC>MOL_PROPERTY
Conf_Id
SciTegic.value.IntegerValue
167

@<SCITEGIC>MOL_PROPERTY
Delta U+W
SciTegic.value.DoubleValue
0.388

@<SCITEGIC>MOL_PROPERTY
U+W
SciTegic.value.DoubleValue
11.301

@<SCITEGIC>MOL_PROPERTY
Grad RMS
SciTegic.value.DoubleValue
0.000000

@<SCITEGIC>MOL_PROPERTY
U
SciTegic.value.DoubleValue
13.202

@<SCITEGIC>MOL_PROPERTY
W
SciTegic.value.DoubleValue
-1.901

@<SCITEGIC>MOL_PROPERTY
W(PB)
SciTegic.value.DoubleValue
-4.065

@<SCITEGIC>MOL_PROPERTY
W(SA)
SciTegic.value.DoubleValue
2.163

@<SCITEGIC>MOL_PROPERTY
Valence
SciTegic.value.DoubleValue
18.957

@<SCITEGIC>MOL_PROPERTY
Coulomb
SciTegic.value.DoubleValue
-8.753

@<SCITEGIC>MOL_PROPERTY
VdW
SciTegic.value.DoubleValue
2.998

@<SCITEGIC>MOL_PROPERTY
VdW6
SciTegic.value.DoubleValue
-12.294

@<SCITEGIC>MOL_PROPERTY
VdW12
SciTegic.value.DoubleValue
15.292

@<SCITEGIC>MOL_PROPERTY
Bond
SciTegic.value.DoubleValue
0.419

@<SCITEGIC>MOL_PROPERTY
Angle
SciTegic.value.DoubleValue
4.543

@<SCITEGIC>MOL_PROPERTY
Pdih
SciTegic.value.DoubleValue
13.996

@<SCITEGIC>MOL_PROPERTY
Idih
SciTegic.value.DoubleValue
0.000

@<SCITEGIC>MOL_PROPERTY
Tether
SciTegic.value.DoubleValue
0.000

@<TRIPOS>MOLECULE
guest-s17_confgen4.mol2 : confsearch ligand conformer 826
          25          25           1
SMALL
USER_CHARGES
 
@<TRIPOS>ATOM
       1    C1      21.975015   20.356910   22.182407 C.3        1 MOL1        -0.1684
       2    H1      22.255573   20.550960   21.138312 H          1 MOL1         0.0833
       3    H2      22.719249   20.887214   22.792172 H          1 MOL1         0.0833
       4    C2      22.124893   18.840103   22.469005 C.3        1 MOL1        -0.1684
       5    H3      21.761150   18.248743   21.621191 H          1 MOL1         0.0833
       6    H4      23.201535   18.625021   22.509206 H          1 MOL1         0.0833
       7    C3      21.485357   18.345045   23.792165 C.3        1 MOL1        -0.1684
       8    H5      21.418117   19.158143   24.526413 H          1 MOL1         0.0833
       9    H6      22.172804   17.612864   24.237398 H          1 MOL1         0.0833
      10    C4      20.113211   17.636164   23.627991 C.3        1 MOL1        -0.1760
      11    H7      20.215331   16.802533   22.920973 H          1 MOL1         0.0833
      12    H8      19.861425   17.176638   24.592991 H          1 MOL1         0.0833
      13    C5      18.915017   18.521048   23.202881 C.3        1 MOL1         0.1219
      14    H9      18.834775   19.372286   23.892164 H          1 MOL1         0.0790
      15    C6      18.993977   19.034277   21.741687 C.3        1 MOL1        -0.1760
      16    H10     19.654517   18.390831   21.151823 H          1 MOL1         0.0833
      17    H11     18.011698   18.927629   21.262420 H          1 MOL1         0.0833
      18    C7      19.417306   20.518426   21.590499 C.3        1 MOL1        -0.1684
      19    H12     18.546473   21.144010   21.829747 H          1 MOL1         0.0833
      20    H13     19.646165   20.717971   20.534867 H          1 MOL1         0.0833
      21    C8      20.596873   21.003893   22.470164 C.3        1 MOL1        -0.1684
      22    H14     20.347884   20.912211   23.533530 H          1 MOL1         0.0833
      23    H15     20.703530   22.084562   22.304035 H          1 MOL1         0.0833
      24    O1      17.738456   17.732037   23.334509 O.3        1 MOL1        -0.5508
      25    H16     16.981680   18.320325   23.130246 H          1 MOL1         0.3780
@<TRIPOS>BOND
    1     1     2    1
    2     1     3    1
    3     1     4    1
    4     4     5    1
    5     4     6    1
    6     4     7    1
    7     7     8    1
    8     7     9    1
    9     7    10    1
   10    10    11    1
   11    10    12    1
   12    10    13    1
   13    13    14    1
   14    13    15    1
   15    15    16    1
   16    15    17    1
   17    15    18    1
   18    18    19    1
   19    18    20    1
   20     1    21    1
   21    18    21    1
   22    21    22    1
   23    21    23    1
   24    13    24    1
   25    24    25    1
@<TRIPOS>SUBSTRUCTURE
       1 MOL1            1 RESIDUE      1      MOL     
@<SCITEGIC>MOL_PROPERTY
VConf Rank
SciTegic.value.IntegerValue
826

@<SCITEGIC>MOL_PROPERTY
Conf_Id
SciTegic.value.IntegerValue
60

@<SCITEGIC>MOL_PROPERTY
Delta U+W
SciTegic.value.DoubleValue
-1.838

@<SCITEGIC>MOL_PROPERTY
U+W
SciTegic.value.DoubleValue
9.075

@<SCITEGIC>MOL_PROPERTY
Grad RMS
SciTegic.value.DoubleValue
0.000000

@<SCITEGIC>MOL_PROPERTY
U
SciTegic.value.DoubleValue
11.150

@<SCITEGIC>MOL_PROPERTY
W
SciTegic.value.DoubleValue
-2.074

@<SCITEGIC>MOL_PROPERTY
W(PB)
SciTegic.value.DoubleValue
-4.196

@<SCITEGIC>MOL_PROPERTY
W(SA)
SciTegic.value.DoubleValue
2.121

@<SCITEGIC>MOL_PROPERTY
Valence
SciTegic.value.DoubleValue
16.582

@<SCITEGIC>MOL_PROPERTY
Coulomb
SciTegic.value.DoubleValue
-8.361

@<SCITEGIC>MOL_PROPERTY
VdW
SciTegic.value.DoubleValue
2.928

@<SCITEGIC>MOL_PROPERTY
VdW6
SciTegic.value.DoubleValue
-12.539

@<SCITEGIC>MOL_PROPERTY
VdW12
SciTegic.value.DoubleValue
15.467

@<SCITEGIC>MOL_PROPERTY
Bond
SciTegic.value.DoubleValue
0.441

@<SCITEGIC>MOL_PROPERTY
Angle
SciTegic.value.DoubleValue
5.093

@<SCITEGIC>MOL_PROPERTY
Pdih
SciTegic.value.DoubleValue
11.049

@<SCITEGIC>MOL_PROPERTY
Idih
SciTegic.value.DoubleValue
0.000

@<SCITEGIC>MOL_PROPERTY
Tether
SciTegic.value.DoubleValue
0.000

@<TRIPOS>MOLECULE
guest-s17_confgen4.mol2 : confsearch ligand conformer 827
          25          25           1
SMALL
USER_CHARGES
 
@<TRIPOS>ATOM
       1    C1      20.661552   18.411944   24.536727 C.3        1 MOL1        -0.1684
       2    H1      21.320910   18.919132   25.254022 H          1 MOL1         0.0833
       3    H2      20.323323   17.496787   25.041708 H          1 MOL1         0.0833
       4    C2      21.488555   17.978183   23.300369 C.3        1 MOL1        -0.1684
       5    H3      22.263621   17.284692   23.654156 H          1 MOL1         0.0833
       6    H4      20.871908   17.378441   22.621248 H          1 MOL1         0.0833
       7    C3      22.206182   19.112547   22.526355 C.3        1 MOL1        -0.1684
       8    H5      22.836845   18.642510   21.759364 H          1 MOL1         0.0833
       9    H6      22.897976   19.631986   23.203226 H          1 MOL1         0.0833
      10    C4      21.305345   20.162105   21.825155 C.3        1 MOL1        -0.1760
      11    H7      20.968446   20.913367   22.546527 H          1 MOL1         0.0833
      12    H8      21.943085   20.721608   21.127885 H          1 MOL1         0.0833
      13    C5      20.091111   19.576132   21.058998 C.3        1 MOL1         0.1219
      14    H9      20.261279   18.511245   20.851123 H          1 MOL1         0.0790
      15    C6      18.739179   19.738405   21.797477 C.3        1 MOL1        -0.1760
      16    H10     18.582544   20.798655   22.035342 H          1 MOL1         0.0833
      17    H11     17.940845   19.472280   21.092052 H          1 MOL1         0.0833
      18    C7      18.533213   18.885740   23.079190 C.3        1 MOL1        -0.1684
      19    H12     18.644734   17.816525   22.857580 H          1 MOL1         0.0833
      20    H13     17.483737   19.008198   23.380039 H          1 MOL1         0.0833
      21    C8      19.415185   19.300079   24.285546 C.3        1 MOL1        -0.1684
      22    H14     18.797151   19.251267   25.192566 H          1 MOL1         0.0833
      23    H15     19.701491   20.355002   24.208288 H          1 MOL1         0.0833
      24    O1      19.978508   20.257771   19.815273 O.3        1 MOL1        -0.5508
      25    H16     20.811989   20.091089   19.327377 H          1 MOL1         0.3780
@<TRIPOS>BOND
    1     1     2    1
    2     1     3    1
    3     1     4    1
    4     4     5    1
    5     4     6    1
    6     4     7    1
    7     7     8    1
    8     7     9    1
    9     7    10    1
   10    10    11    1
   11    10    12    1
   12    10    13    1
   13    13    14    1
   14    13    15    1
   15    15    16    1
   16    15    17    1
   17    15    18    1
   18    18    19    1
   19    18    20    1
   20     1    21    1
   21    18    21    1
   22    21    22    1
   23    21    23    1
   24    13    24    1
   25    24    25    1
@<TRIPOS>SUBSTRUCTURE
       1 MOL1            1 RESIDUE      1      MOL     
@<SCITEGIC>MOL_PROPERTY
VConf Rank
SciTegic.value.IntegerValue
827

@<SCITEGIC>MOL_PROPERTY
Conf_Id
SciTegic.value.IntegerValue
129

@<SCITEGIC>MOL_PROPERTY
Delta U+W
SciTegic.value.DoubleValue
-1.846

@<SCITEGIC>MOL_PROPERTY
U+W
SciTegic.value.DoubleValue
9.067

@<SCITEGIC>MOL_PROPERTY
Grad RMS
SciTegic.value.DoubleValue
0.000000

@<SCITEGIC>MOL_PROPERTY
U
SciTegic.value.DoubleValue
11.150

@<SCITEGIC>MOL_PROPERTY
W
SciTegic.value.DoubleValue
-2.083

@<SCITEGIC>MOL_PROPERTY
W(PB)
SciTegic.value.DoubleValue
-4.217

@<SCITEGIC>MOL_PROPERTY
W(SA)
SciTegic.value.DoubleValue
2.134

@<SCITEGIC>MOL_PROPERTY
Valence
SciTegic.value.DoubleValue
16.583

@<SCITEGIC>MOL_PROPERTY
Coulomb
SciTegic.value.DoubleValue
-8.361

@<SCITEGIC>MOL_PROPERTY
VdW
SciTegic.value.DoubleValue
2.928

@<SCITEGIC>MOL_PROPERTY
VdW6
SciTegic.value.DoubleValue
-12.539

@<SCITEGIC>MOL_PROPERTY
VdW12
SciTegic.value.DoubleValue
15.467

@<SCITEGIC>MOL_PROPERTY
Bond
SciTegic.value.DoubleValue
0.441

@<SCITEGIC>MOL_PROPERTY
Angle
SciTegic.value.DoubleValue
5.093

@<SCITEGIC>MOL_PROPERTY
Pdih
SciTegic.value.DoubleValue
11.049

@<SCITEGIC>MOL_PROPERTY
Idih
SciTegic.value.DoubleValue
0.000

@<SCITEGIC>MOL_PROPERTY
Tether
SciTegic.value.DoubleValue
0.000

@<TRIPOS>MOLECULE
guest-s17_confgen4.mol2 : confsearch ligand conformer 828
          25          25           1
SMALL
USER_CHARGES
 
@<TRIPOS>ATOM
       1    C1      21.412997   19.686363   24.295269 C.3        1 MOL1        -0.1684
       2    H1      21.201597   19.239982   25.276371 H          1 MOL1         0.0833
       3    H2      22.284034   20.338182   24.448062 H          1 MOL1         0.0833
       4    C2      20.226360   20.591052   23.878561 C.3        1 MOL1        -0.1684
       5    H3      20.135395   21.379354   24.638239 H          1 MOL1         0.0833
       6    H4      20.462495   21.127261   22.952321 H          1 MOL1         0.0833
       7    C3      18.845202   19.897831   23.768490 C.3        1 MOL1        -0.1684
       8    H5      18.096721   20.680318   23.582632 H          1 MOL1         0.0833
       9    H6      18.581280   19.458127   24.739830 H          1 MOL1         0.0833
      10    C4      18.686001   18.817923   22.666796 C.3        1 MOL1        -0.1760
      11    H7      19.092381   17.862222   23.013248 H          1 MOL1         0.0833
      12    H8      17.608956   18.635495   22.551427 H          1 MOL1         0.0833
      13    C5      19.291504   19.191628   21.289014 C.3        1 MOL1         0.1219
      14    H9      19.413504   20.280863   21.221544 H          1 MOL1         0.0790
      15    C6      20.646655   18.505954   20.981901 C.3        1 MOL1        -0.1760
      16    H10     20.535950   17.417978   21.078175 H          1 MOL1         0.0833
      17    H11     20.881038   18.689260   19.924689 H          1 MOL1         0.0833
      18    C7      21.871749   18.969346   21.815826 C.3        1 MOL1        -0.1684
      19    H12     22.033139   20.049278   21.704046 H          1 MOL1         0.0833
      20    H13     22.759214   18.499568   21.370090 H          1 MOL1         0.0833
      21    C8      21.831032   18.562845   23.311702 C.3        1 MOL1        -0.1684
      22    H14     22.838502   18.236732   23.604457 H          1 MOL1         0.0833
      23    H15     21.205723   17.674018   23.452328 H          1 MOL1         0.0833
      24    O1      18.376246   18.789487   20.277703 O.3        1 MOL1        -0.5508
      25    H16     18.287697   17.817346   20.355440 H          1 MOL1         0.3780
@<TRIPOS>BOND
    1     1     2    1
    2     1     3    1
    3     1     4    1
    4     4     5    1
    5     4     6    1
    6     4     7    1
    7     7     8    1
    8     7     9    1
    9     7    10    1
   10    10    11    1
   11    10    12    1
   12    10    13    1
   13    13    14    1
   14    13    15    1
   15    15    16    1
   16    15    17    1
   17    15    18    1
   18    18    19    1
   19    18    20    1
   20     1    21    1
   21    18    21    1
   22    21    22    1
   23    21    23    1
   24    13    24    1
   25    24    25    1
@<TRIPOS>SUBSTRUCTURE
       1 MOL1            1 RESIDUE      1      MOL     
@<SCITEGIC>MOL_PROPERTY
VConf Rank
SciTegic.value.IntegerValue
828

@<SCITEGIC>MOL_PROPERTY
Conf_Id
SciTegic.value.IntegerValue
140

@<SCITEGIC>MOL_PROPERTY
Delta U+W
SciTegic.value.DoubleValue
-1.702

@<SCITEGIC>MOL_PROPERTY
U+W
SciTegic.value.DoubleValue
9.211

@<SCITEGIC>MOL_PROPERTY
Grad RMS
SciTegic.value.DoubleValue
0.000000

@<SCITEGIC>MOL_PROPERTY
U
SciTegic.value.DoubleValue
11.181

@<SCITEGIC>MOL_PROPERTY
W
SciTegic.value.DoubleValue
-1.969

@<SCITEGIC>MOL_PROPERTY
W(PB)
SciTegic.value.DoubleValue
-4.093

@<SCITEGIC>MOL_PROPERTY
W(SA)
SciTegic.value.DoubleValue
2.124

@<SCITEGIC>MOL_PROPERTY
Valence
SciTegic.value.DoubleValue
16.954

@<SCITEGIC>MOL_PROPERTY
Coulomb
SciTegic.value.DoubleValue
-8.661

@<SCITEGIC>MOL_PROPERTY
VdW
SciTegic.value.DoubleValue
2.887

@<SCITEGIC>MOL_PROPERTY
VdW6
SciTegic.value.DoubleValue
-12.561

@<SCITEGIC>MOL_PROPERTY
VdW12
SciTegic.value.DoubleValue
15.448

@<SCITEGIC>MOL_PROPERTY
Bond
SciTegic.value.DoubleValue
0.433

@<SCITEGIC>MOL_PROPERTY
Angle
SciTegic.value.DoubleValue
5.120

@<SCITEGIC>MOL_PROPERTY
Pdih
SciTegic.value.DoubleValue
11.401

@<SCITEGIC>MOL_PROPERTY
Idih
SciTegic.value.DoubleValue
0.000

@<SCITEGIC>MOL_PROPERTY
Tether
SciTegic.value.DoubleValue
0.000

@<TRIPOS>MOLECULE
guest-s17_confgen4.mol2 : confsearch ligand conformer 829
          25          25           1
SMALL
USER_CHARGES
 
@<TRIPOS>ATOM
       1    C1      20.096063   19.291770   20.596167 C.3        1 MOL1        -0.1684
       2    H1      19.921976   20.255091   20.097955 H          1 MOL1         0.0833
       3    H2      20.124078   18.543503   19.792282 H          1 MOL1         0.0833
       4    C2      18.879416   18.967035   21.501023 C.3        1 MOL1        -0.1684
       5    H3      18.535065   19.866987   22.022857 H          1 MOL1         0.0833
       6    H4      18.045737   18.701025   20.836742 H          1 MOL1         0.0833
       7    C3      19.087709   17.802156   22.503130 C.3        1 MOL1        -0.1684
       8    H5      19.859641   17.107809   22.147041 H          1 MOL1         0.0833
       9    H6      18.160222   17.213641   22.522665 H          1 MOL1         0.0833
      10    C4      19.375031   18.243724   23.963773 C.3        1 MOL1        -0.1760
      11    H7      18.565980   18.901586   24.307093 H          1 MOL1         0.0833
      12    H8      19.317943   17.346780   24.595015 H          1 MOL1         0.0833
      13    C5      20.741540   18.922547   24.233482 C.3        1 MOL1         0.1219
      14    H9      21.546872   18.275407   23.861295 H          1 MOL1         0.0790
      15    C6      20.882224   20.338670   23.617546 C.3        1 MOL1        -0.1760
      16    H10     19.894090   20.776878   23.444040 H          1 MOL1         0.0833
      17    H11     21.356734   21.006296   24.349483 H          1 MOL1         0.0833
      18    C7      21.733823   20.409987   22.323341 C.3        1 MOL1        -0.1684
      19    H12     22.792186   20.364299   22.614602 H          1 MOL1         0.0833
      20    H13     21.595162   21.395681   21.858931 H          1 MOL1         0.0833
      21    C8      21.494424   19.306122   21.262945 C.3        1 MOL1        -0.1684
      22    H14     21.730274   18.318605   21.675725 H          1 MOL1         0.0833
      23    H15     22.234296   19.455442   20.464760 H          1 MOL1         0.0833
      24    O1      20.885870   19.035110   25.643679 O.3        1 MOL1        -0.5508
      25    H16     20.156386   19.611463   25.951273 H          1 MOL1         0.3780
@<TRIPOS>BOND
    1     1     2    1
    2     1     3    1
    3     1     4    1
    4     4     5    1
    5     4     6    1
    6     4     7    1
    7     7     8    1
    8     7     9    1
    9     7    10    1
   10    10    11    1
   11    10    12    1
   12    10    13    1
   13    13    14    1
   14    13    15    1
   15    15    16    1
   16    15    17    1
   17    15    18    1
   18    18    19    1
   19    18    20    1
   20     1    21    1
   21    18    21    1
   22    21    22    1
   23    21    23    1
   24    13    24    1
   25    24    25    1
@<TRIPOS>SUBSTRUCTURE
       1 MOL1            1 RESIDUE      1      MOL     
@<SCITEGIC>MOL_PROPERTY
VConf Rank
SciTegic.value.IntegerValue
829

@<SCITEGIC>MOL_PROPERTY
Conf_Id
SciTegic.value.IntegerValue
68

@<SCITEGIC>MOL_PROPERTY
Delta U+W
SciTegic.value.DoubleValue
-1.765

@<SCITEGIC>MOL_PROPERTY
U+W
SciTegic.value.DoubleValue
9.148

@<SCITEGIC>MOL_PROPERTY
Grad RMS
SciTegic.value.DoubleValue
0.000000

@<SCITEGIC>MOL_PROPERTY
U
SciTegic.value.DoubleValue
11.181

@<SCITEGIC>MOL_PROPERTY
W
SciTegic.value.DoubleValue
-2.032

@<SCITEGIC>MOL_PROPERTY
W(PB)
SciTegic.value.DoubleValue
-4.147

@<SCITEGIC>MOL_PROPERTY
W(SA)
SciTegic.value.DoubleValue
2.114

@<SCITEGIC>MOL_PROPERTY
Valence
SciTegic.value.DoubleValue
16.955

@<SCITEGIC>MOL_PROPERTY
Coulomb
SciTegic.value.DoubleValue
-8.661

@<SCITEGIC>MOL_PROPERTY
VdW
SciTegic.value.DoubleValue
2.887

@<SCITEGIC>MOL_PROPERTY
VdW6
SciTegic.value.DoubleValue
-12.561

@<SCITEGIC>MOL_PROPERTY
VdW12
SciTegic.value.DoubleValue
15.448

@<SCITEGIC>MOL_PROPERTY
Bond
SciTegic.value.DoubleValue
0.433

@<SCITEGIC>MOL_PROPERTY
Angle
SciTegic.value.DoubleValue
5.121

@<SCITEGIC>MOL_PROPERTY
Pdih
SciTegic.value.DoubleValue
11.402

@<SCITEGIC>MOL_PROPERTY
Idih
SciTegic.value.DoubleValue
0.000

@<SCITEGIC>MOL_PROPERTY
Tether
SciTegic.value.DoubleValue
0.000

@<TRIPOS>MOLECULE
guest-s17_confgen4.mol2 : confsearch ligand conformer 830
          25          25           1
SMALL
USER_CHARGES
 
@<TRIPOS>ATOM
       1    C1      20.513622   20.006849   24.316593 C.3        1 MOL1        -0.1684
       2    H1      20.760123   20.550841   25.238757 H          1 MOL1         0.0833
       3    H2      19.920516   19.150599   24.657113 H          1 MOL1         0.0833
       4    C2      21.840271   19.529158   23.670748 C.3        1 MOL1        -0.1684
       5    H3      22.189294   20.240508   22.911288 H          1 MOL1         0.0833
       6    H4      22.612113   19.544468   24.452441 H          1 MOL1         0.0833
       7    C3      21.804048   18.087412   23.099208 C.3        1 MOL1        -0.1684
       8    H5      21.498338   17.389328   23.890595 H          1 MOL1         0.0833
       9    H6      22.833629   17.805467   22.839780 H          1 MOL1         0.0833
      10    C4      20.921112   17.857643   21.843746 C.3        1 MOL1        -0.1760
      11    H7      21.231437   18.525910   21.031542 H          1 MOL1         0.0833
      12    H8      21.142116   16.843830   21.483258 H          1 MOL1         0.0833
      13    C5      19.395950   17.969346   22.101214 C.3        1 MOL1         0.1219
      14    H9      19.204556   17.845584   23.173406 H          1 MOL1         0.0790
      15    C6      18.751965   19.292832   21.619849 C.3        1 MOL1        -0.1760
      16    H10     18.629503   19.244476   20.529784 H          1 MOL1         0.0833
      17    H11     17.737102   19.354830   22.033723 H          1 MOL1         0.0833
      18    C7      19.508883   20.607020   21.942417 C.3        1 MOL1        -0.1684
      19    H12     18.955686   21.428150   21.466559 H          1 MOL1         0.0833
      20    H13     20.489657   20.614594   21.453200 H          1 MOL1         0.0833
      21    C8      19.653833   20.958167   23.444357 C.3        1 MOL1        -0.1684
      22    H14     18.655900   21.049764   23.894162 H          1 MOL1         0.0833
      23    H15     20.098863   21.960810   23.504815 H          1 MOL1         0.0833
      24    O1      18.742738   16.904312   21.421730 O.3        1 MOL1        -0.5508
      25    H16     18.939343   17.021237   20.469593 H          1 MOL1         0.3780
@<TRIPOS>BOND
    1     1     2    1
    2     1     3    1
    3     1     4    1
    4     4     5    1
    5     4     6    1
    6     4     7    1
    7     7     8    1
    8     7     9    1
    9     7    10    1
   10    10    11    1
   11    10    12    1
   12    10    13    1
   13    13    14    1
   14    13    15    1
   15    15    16    1
   16    15    17    1
   17    15    18    1
   18    18    19    1
   19    18    20    1
   20     1    21    1
   21    18    21    1
   22    21    22    1
   23    21    23    1
   24    13    24    1
   25    24    25    1
@<TRIPOS>SUBSTRUCTURE
       1 MOL1            1 RESIDUE      1      MOL     
@<SCITEGIC>MOL_PROPERTY
VConf Rank
SciTegic.value.IntegerValue
830

@<SCITEGIC>MOL_PROPERTY
Conf_Id
SciTegic.value.IntegerValue
165

@<SCITEGIC>MOL_PROPERTY
Delta U+W
SciTegic.value.DoubleValue
-1.999

@<SCITEGIC>MOL_PROPERTY
U+W
SciTegic.value.DoubleValue
8.915

@<SCITEGIC>MOL_PROPERTY
Grad RMS
SciTegic.value.DoubleValue
0.000000

@<SCITEGIC>MOL_PROPERTY
U
SciTegic.value.DoubleValue
10.935

@<SCITEGIC>MOL_PROPERTY
W
SciTegic.value.DoubleValue
-2.020

@<SCITEGIC>MOL_PROPERTY
W(PB)
SciTegic.value.DoubleValue
-4.135

@<SCITEGIC>MOL_PROPERTY
W(SA)
SciTegic.value.DoubleValue
2.115

@<SCITEGIC>MOL_PROPERTY
Valence
SciTegic.value.DoubleValue
16.757

@<SCITEGIC>MOL_PROPERTY
Coulomb
SciTegic.value.DoubleValue
-8.731

@<SCITEGIC>MOL_PROPERTY
VdW
SciTegic.value.DoubleValue
2.908

@<SCITEGIC>MOL_PROPERTY
VdW6
SciTegic.value.DoubleValue
-12.597

@<SCITEGIC>MOL_PROPERTY
VdW12
SciTegic.value.DoubleValue
15.506

@<SCITEGIC>MOL_PROPERTY
Bond
SciTegic.value.DoubleValue
0.434

@<SCITEGIC>MOL_PROPERTY
Angle
SciTegic.value.DoubleValue
5.069

@<SCITEGIC>MOL_PROPERTY
Pdih
SciTegic.value.DoubleValue
11.254

@<SCITEGIC>MOL_PROPERTY
Idih
SciTegic.value.DoubleValue
0.000

@<SCITEGIC>MOL_PROPERTY
Tether
SciTegic.value.DoubleValue
0.000

@<TRIPOS>MOLECULE
guest-s17_confgen4.mol2 : confsearch ligand conformer 831
          25          25           1
SMALL
USER_CHARGES
 
@<TRIPOS>ATOM
       1    C1      19.890431   19.995620   21.070854 C.3        1 MOL1        -0.1684
       2    H1      19.679867   20.416290   20.077988 H          1 MOL1         0.0833
       3    H2      19.339248   20.643177   21.761991 H          1 MOL1         0.0833
       4    C2      21.419027   20.120448   21.301642 C.3        1 MOL1        -0.1684
       5    H3      21.921728   19.850213   20.362881 H          1 MOL1         0.0833
       6    H4      21.668229   21.175708   21.477405 H          1 MOL1         0.0833
       7    C3      22.040818   19.252603   22.424389 C.3        1 MOL1        -0.1684
       8    H5      23.129526   19.392465   22.381323 H          1 MOL1         0.0833
       9    H6      21.890460   18.188210   22.210490 H          1 MOL1         0.0833
      10    C4      21.589868   19.583733   23.870428 C.3        1 MOL1        -0.1760
      11    H7      22.191469   18.966929   24.551710 H          1 MOL1         0.0833
      12    H8      21.852521   20.625761   24.093826 H          1 MOL1         0.0833
      13    C5      20.095556   19.365004   24.212409 C.3        1 MOL1         0.1219
      14    H9      19.506532   20.196655   23.808347 H          1 MOL1         0.0790
      15    C6      19.502646   18.029479   23.693743 C.3        1 MOL1        -0.1760
      16    H10     20.294513   17.290058   23.525453 H          1 MOL1         0.0833
      17    H11     18.873412   17.599075   24.484533 H          1 MOL1         0.0833
      18    C7      18.610153   18.167119   22.431403 C.3        1 MOL1        -0.1684
      19    H12     17.806015   18.888151   22.632553 H          1 MOL1         0.0833
      20    H13     18.107915   17.203412   22.270779 H          1 MOL1         0.0833
      21    C8      19.327039   18.551129   21.110237 C.3        1 MOL1        -0.1684
      22    H14     18.583786   18.464686   20.305803 H          1 MOL1         0.0833
      23    H15     20.103698   17.816720   20.861132 H          1 MOL1         0.0833
      24    O1      19.974597   19.392742   25.630194 O.3        1 MOL1        -0.5508
      25    H16     20.314486   20.263203   25.925512 H          1 MOL1         0.3780
@<TRIPOS>BOND
    1     1     2    1
    2     1     3    1
    3     1     4    1
    4     4     5    1
    5     4     6    1
    6     4     7    1
    7     7     8    1
    8     7     9    1
    9     7    10    1
   10    10    11    1
   11    10    12    1
   12    10    13    1
   13    13    14    1
   14    13    15    1
   15    15    16    1
   16    15    17    1
   17    15    18    1
   18    18    19    1
   19    18    20    1
   20     1    21    1
   21    18    21    1
   22    21    22    1
   23    21    23    1
   24    13    24    1
   25    24    25    1
@<TRIPOS>SUBSTRUCTURE
       1 MOL1            1 RESIDUE      1      MOL     
@<SCITEGIC>MOL_PROPERTY
VConf Rank
SciTegic.value.IntegerValue
831

@<SCITEGIC>MOL_PROPERTY
Conf_Id
SciTegic.value.IntegerValue
133

@<SCITEGIC>MOL_PROPERTY
Delta U+W
SciTegic.value.DoubleValue
-2.139

@<SCITEGIC>MOL_PROPERTY
U+W
SciTegic.value.DoubleValue
8.774

@<SCITEGIC>MOL_PROPERTY
Grad RMS
SciTegic.value.DoubleValue
0.000000

@<SCITEGIC>MOL_PROPERTY
U
SciTegic.value.DoubleValue
10.905

@<SCITEGIC>MOL_PROPERTY
W
SciTegic.value.DoubleValue
-2.131

@<SCITEGIC>MOL_PROPERTY
W(PB)
SciTegic.value.DoubleValue
-4.281

@<SCITEGIC>MOL_PROPERTY
W(SA)
SciTegic.value.DoubleValue
2.150

@<SCITEGIC>MOL_PROPERTY
Valence
SciTegic.value.DoubleValue
16.378

@<SCITEGIC>MOL_PROPERTY
Coulomb
SciTegic.value.DoubleValue
-8.448

@<SCITEGIC>MOL_PROPERTY
VdW
SciTegic.value.DoubleValue
2.976

@<SCITEGIC>MOL_PROPERTY
VdW6
SciTegic.value.DoubleValue
-12.570

@<SCITEGIC>MOL_PROPERTY
VdW12
SciTegic.value.DoubleValue
15.545

@<SCITEGIC>MOL_PROPERTY
Bond
SciTegic.value.DoubleValue
0.439

@<SCITEGIC>MOL_PROPERTY
Angle
SciTegic.value.DoubleValue
5.049

@<SCITEGIC>MOL_PROPERTY
Pdih
SciTegic.value.DoubleValue
10.889

@<SCITEGIC>MOL_PROPERTY
Idih
SciTegic.value.DoubleValue
0.000

@<SCITEGIC>MOL_PROPERTY
Tether
SciTegic.value.DoubleValue
0.000

@<TRIPOS>MOLECULE
guest-s17_confgen4.mol2 : confsearch ligand conformer 832
          25          25           1
SMALL
USER_CHARGES
 
@<TRIPOS>ATOM
       1    C1      20.316854   17.501208   23.257271 C.3        1 MOL1        -0.1684
       2    H1      20.278335   16.488543   23.681669 H          1 MOL1         0.0833
       3    H2      21.087587   17.440447   22.480688 H          1 MOL1         0.0833
       4    C2      20.751200   18.477373   24.381534 C.3        1 MOL1        -0.1684
       5    H3      19.879526   18.935818   24.865912 H          1 MOL1         0.0833
       6    H4      21.234156   17.881231   25.167905 H          1 MOL1         0.0833
       7    C3      21.771542   19.561441   23.944990 C.3        1 MOL1        -0.1684
       8    H5      22.655227   19.075635   23.509005 H          1 MOL1         0.0833
       9    H6      22.130778   20.066342   24.852071 H          1 MOL1         0.0833
      10    C4      21.254003   20.653249   22.970773 C.3        1 MOL1        -0.1760
      11    H7      20.389671   21.173086   23.400679 H          1 MOL1         0.0833
      12    H8      22.040311   21.416942   22.899899 H          1 MOL1         0.0833
      13    C5      20.936590   20.143269   21.541314 C.3        1 MOL1         0.1219
      14    H9      21.456071   19.191540   21.379426 H          1 MOL1         0.0790
      15    C6      19.428541   19.959609   21.241643 C.3        1 MOL1        -0.1760
      16    H10     18.990763   20.951347   21.064661 H          1 MOL1         0.0833
      17    H11     19.322354   19.409060   20.298066 H          1 MOL1         0.0833
      18    C7      18.570983   19.261083   22.328235 C.3        1 MOL1        -0.1684
      19    H12     17.527569   19.283134   21.985452 H          1 MOL1         0.0833
      20    H13     18.570412   19.849700   23.252802 H          1 MOL1         0.0833
      21    C8      18.926506   17.783775   22.630736 C.3        1 MOL1        -0.1684
      22    H14     18.821222   17.189114   21.713205 H          1 MOL1         0.0833
      23    H15     18.164212   17.398726   23.321859 H          1 MOL1         0.0833
      24    O1      21.445960   21.083813   20.602469 O.3        1 MOL1        -0.5508
      25    H16     21.271998   20.715429   19.711139 H          1 MOL1         0.3780
@<TRIPOS>BOND
    1     1     2    1
    2     1     3    1
    3     1     4    1
    4     4     5    1
    5     4     6    1
    6     4     7    1
    7     7     8    1
    8     7     9    1
    9     7    10    1
   10    10    11    1
   11    10    12    1
   12    10    13    1
   13    13    14    1
   14    13    15    1
   15    15    16    1
   16    15    17    1
   17    15    18    1
   18    18    19    1
   19    18    20    1
   20     1    21    1
   21    18    21    1
   22    21    22    1
   23    21    23    1
   24    13    24    1
   25    24    25    1
@<TRIPOS>SUBSTRUCTURE
       1 MOL1            1 RESIDUE      1      MOL     
@<SCITEGIC>MOL_PROPERTY
VConf Rank
SciTegic.value.IntegerValue
832

@<SCITEGIC>MOL_PROPERTY
Conf_Id
SciTegic.value.IntegerValue
95

@<SCITEGIC>MOL_PROPERTY
Delta U+W
SciTegic.value.DoubleValue
-2.190

@<SCITEGIC>MOL_PROPERTY
U+W
SciTegic.value.DoubleValue
8.723

@<SCITEGIC>MOL_PROPERTY
Grad RMS
SciTegic.value.DoubleValue
0.000000

@<SCITEGIC>MOL_PROPERTY
U
SciTegic.value.DoubleValue
10.905

@<SCITEGIC>MOL_PROPERTY
W
SciTegic.value.DoubleValue
-2.182

@<SCITEGIC>MOL_PROPERTY
W(PB)
SciTegic.value.DoubleValue
-4.296

@<SCITEGIC>MOL_PROPERTY
W(SA)
SciTegic.value.DoubleValue
2.114

@<SCITEGIC>MOL_PROPERTY
Valence
SciTegic.value.DoubleValue
16.377

@<SCITEGIC>MOL_PROPERTY
Coulomb
SciTegic.value.DoubleValue
-8.448

@<SCITEGIC>MOL_PROPERTY
VdW
SciTegic.value.DoubleValue
2.976

@<SCITEGIC>MOL_PROPERTY
VdW6
SciTegic.value.DoubleValue
-12.570

@<SCITEGIC>MOL_PROPERTY
VdW12
SciTegic.value.DoubleValue
15.546

@<SCITEGIC>MOL_PROPERTY
Bond
SciTegic.value.DoubleValue
0.439

@<SCITEGIC>MOL_PROPERTY
Angle
SciTegic.value.DoubleValue
5.049

@<SCITEGIC>MOL_PROPERTY
Pdih
SciTegic.value.DoubleValue
10.889

@<SCITEGIC>MOL_PROPERTY
Idih
SciTegic.value.DoubleValue
0.000

@<SCITEGIC>MOL_PROPERTY
Tether
SciTegic.value.DoubleValue
0.000

@<TRIPOS>MOLECULE
guest-s17_confgen4.mol2 : confsearch ligand conformer 833
          25          25           1
SMALL
USER_CHARGES
 
@<TRIPOS>ATOM
       1    C1      20.827246   18.119467   21.267868 C.3        1 MOL1        -0.1684
       2    H1      21.034713   17.491862   20.390388 H          1 MOL1         0.0833
       3    H2      21.659704   17.895747   21.942551 H          1 MOL1         0.0833
       4    C2      19.476446   17.630408   21.868184 C.3        1 MOL1        -0.1684
       5    H3      18.838753   17.318991   21.029550 H          1 MOL1         0.0833
       6    H4      19.655808   16.717977   22.452795 H          1 MOL1         0.0833
       7    C3      18.647506   18.628860   22.718154 C.3        1 MOL1        -0.1684
       8    H5      17.686509   18.149884   22.950284 H          1 MOL1         0.0833
       9    H6      18.363561   19.483848   22.096545 H          1 MOL1         0.0833
      10    C4      19.261514   19.104184   24.068555 C.3        1 MOL1        -0.1760
      11    H7      18.775857   20.042028   24.368486 H          1 MOL1         0.0833
      12    H8      18.975795   18.365544   24.828844 H          1 MOL1         0.0833
      13    C5      20.798866   19.280082   24.153988 C.3        1 MOL1         0.1219
      14    H9      21.264608   18.323244   23.896378 H          1 MOL1         0.0790
      15    C6      21.427586   20.413187   23.292957 C.3        1 MOL1        -0.1760
      16    H10     21.374634   21.345666   23.870879 H          1 MOL1         0.0833
      17    H11     22.497565   20.201097   23.172742 H          1 MOL1         0.0833
      18    C7      20.813176   20.711807   21.898559 C.3        1 MOL1        -0.1684
      19    H12     21.316797   21.602104   21.497997 H          1 MOL1         0.0833
      20    H13     19.776107   21.039044   22.022959 H          1 MOL1         0.0833
      21    C8      20.916873   19.600302   20.813520 C.3        1 MOL1        -0.1684
      22    H14     21.885402   19.722382   20.309617 H          1 MOL1         0.0833
      23    H15     20.159598   19.787237   20.040194 H          1 MOL1         0.0833
      24    O1      21.120469   19.553792   25.512763 O.3        1 MOL1        -0.5508
      25    H16     20.777986   18.803200   26.041321 H          1 MOL1         0.3780
@<TRIPOS>BOND
    1     1     2    1
    2     1     3    1
    3     1     4    1
    4     4     5    1
    5     4     6    1
    6     4     7    1
    7     7     8    1
    8     7     9    1
    9     7    10    1
   10    10    11    1
   11    10    12    1
   12    10    13    1
   13    13    14    1
   14    13    15    1
   15    15    16    1
   16    15    17    1
   17    15    18    1
   18    18    19    1
   19    18    20    1
   20     1    21    1
   21    18    21    1
   22    21    22    1
   23    21    23    1
   24    13    24    1
   25    24    25    1
@<TRIPOS>SUBSTRUCTURE
       1 MOL1            1 RESIDUE      1      MOL     
@<SCITEGIC>MOL_PROPERTY
VConf Rank
SciTegic.value.IntegerValue
833

@<SCITEGIC>MOL_PROPERTY
Conf_Id
SciTegic.value.IntegerValue
161

@<SCITEGIC>MOL_PROPERTY
Delta U+W
SciTegic.value.DoubleValue
2.120

@<SCITEGIC>MOL_PROPERTY
U+W
SciTegic.value.DoubleValue
13.033

@<SCITEGIC>MOL_PROPERTY
Grad RMS
SciTegic.value.DoubleValue
0.000000

@<SCITEGIC>MOL_PROPERTY
U
SciTegic.value.DoubleValue
15.076

@<SCITEGIC>MOL_PROPERTY
W
SciTegic.value.DoubleValue
-2.043

@<SCITEGIC>MOL_PROPERTY
W(PB)
SciTegic.value.DoubleValue
-4.186

@<SCITEGIC>MOL_PROPERTY
W(SA)
SciTegic.value.DoubleValue
2.143

@<SCITEGIC>MOL_PROPERTY
Valence
SciTegic.value.DoubleValue
18.884

@<SCITEGIC>MOL_PROPERTY
Coulomb
SciTegic.value.DoubleValue
-8.074

@<SCITEGIC>MOL_PROPERTY
VdW
SciTegic.value.DoubleValue
4.266

@<SCITEGIC>MOL_PROPERTY
VdW6
SciTegic.value.DoubleValue
-13.486

@<SCITEGIC>MOL_PROPERTY
VdW12
SciTegic.value.DoubleValue
17.752

@<SCITEGIC>MOL_PROPERTY
Bond
SciTegic.value.DoubleValue
0.713

@<SCITEGIC>MOL_PROPERTY
Angle
SciTegic.value.DoubleValue
8.955

@<SCITEGIC>MOL_PROPERTY
Pdih
SciTegic.value.DoubleValue
9.215

@<SCITEGIC>MOL_PROPERTY
Idih
SciTegic.value.DoubleValue
0.000

@<SCITEGIC>MOL_PROPERTY
Tether
SciTegic.value.DoubleValue
0.000

@<TRIPOS>MOLECULE
guest-s17_confgen4.mol2 : confsearch ligand conformer 834
          25          25           1
SMALL
USER_CHARGES
 
@<TRIPOS>ATOM
       1    C1      20.087440   20.636525   21.290278 C.3        1 MOL1        -0.1684
       2    H1      19.724931   21.463265   20.664119 H          1 MOL1         0.0833
       3    H2      20.971456   20.254401   20.764224 H          1 MOL1         0.0833
       4    C2      18.985449   19.548581   21.331180 C.3        1 MOL1        -0.1684
       5    H3      18.261452   19.756162   22.130508 H          1 MOL1         0.0833
       6    H4      18.417082   19.636027   20.394973 H          1 MOL1         0.0833
       7    C3      19.503261   18.085247   21.407700 C.3        1 MOL1        -0.1684
       8    H5      20.412654   17.954577   20.805855 H          1 MOL1         0.0833
       9    H6      18.743477   17.454437   20.926028 H          1 MOL1         0.0833
      10    C4      19.705925   17.528221   22.840572 C.3        1 MOL1        -0.1760
      11    H7      18.949344   17.949059   23.513957 H          1 MOL1         0.0833
      12    H8      19.492448   16.451512   22.813014 H          1 MOL1         0.0833
      13    C5      21.127110   17.679802   23.439811 C.3        1 MOL1         0.1219
      14    H9      21.797079   16.998608   22.895853 H          1 MOL1         0.0790
      15    C6      21.753057   19.092330   23.377854 C.3        1 MOL1        -0.1760
      16    H10     22.637137   19.105821   24.029241 H          1 MOL1         0.0833
      17    H11     22.152905   19.260562   22.372080 H          1 MOL1         0.0833
      18    C7      20.804426   20.247011   23.797428 C.3        1 MOL1        -0.1684
      19    H12     21.268754   20.803425   24.622977 H          1 MOL1         0.0833
      20    H13     19.866297   19.860035   24.211268 H          1 MOL1         0.0833
      21    C8      20.487467   21.246840   22.659641 C.3        1 MOL1        -0.1684
      22    H14     21.362375   21.892598   22.503612 H          1 MOL1         0.0833
      23    H15     19.682425   21.911986   23.000622 H          1 MOL1         0.0833
      24    O1      21.073734   17.278164   24.801503 O.3        1 MOL1        -0.5508
      25    H16     20.585257   17.984861   25.270309 H          1 MOL1         0.3780
@<TRIPOS>BOND
    1     1     2    1
    2     1     3    1
    3     1     4    1
    4     4     5    1
    5     4     6    1
    6     4     7    1
    7     7     8    1
    8     7     9    1
    9     7    10    1
   10    10    11    1
   11    10    12    1
   12    10    13    1
   13    13    14    1
   14    13    15    1
   15    15    16    1
   16    15    17    1
   17    15    18    1
   18    18    19    1
   19    18    20    1
   20     1    21    1
   21    18    21    1
   22    21    22    1
   23    21    23    1
   24    13    24    1
   25    24    25    1
@<TRIPOS>SUBSTRUCTURE
       1 MOL1            1 RESIDUE      1      MOL     
@<SCITEGIC>MOL_PROPERTY
VConf Rank
SciTegic.value.IntegerValue
834

@<SCITEGIC>MOL_PROPERTY
Conf_Id
SciTegic.value.IntegerValue
164

@<SCITEGIC>MOL_PROPERTY
Delta U+W
SciTegic.value.DoubleValue
0.008

@<SCITEGIC>MOL_PROPERTY
U+W
SciTegic.value.DoubleValue
10.922

@<SCITEGIC>MOL_PROPERTY
Grad RMS
SciTegic.value.DoubleValue
0.000000

@<SCITEGIC>MOL_PROPERTY
U
SciTegic.value.DoubleValue
12.433

@<SCITEGIC>MOL_PROPERTY
W
SciTegic.value.DoubleValue
-1.511

@<SCITEGIC>MOL_PROPERTY
W(PB)
SciTegic.value.DoubleValue
-3.669

@<SCITEGIC>MOL_PROPERTY
W(SA)
SciTegic.value.DoubleValue
2.157

@<SCITEGIC>MOL_PROPERTY
Valence
SciTegic.value.DoubleValue
19.007

@<SCITEGIC>MOL_PROPERTY
Coulomb
SciTegic.value.DoubleValue
-9.373

@<SCITEGIC>MOL_PROPERTY
VdW
SciTegic.value.DoubleValue
2.799

@<SCITEGIC>MOL_PROPERTY
VdW6
SciTegic.value.DoubleValue
-12.597

@<SCITEGIC>MOL_PROPERTY
VdW12
SciTegic.value.DoubleValue
15.396

@<SCITEGIC>MOL_PROPERTY
Bond
SciTegic.value.DoubleValue
0.425

@<SCITEGIC>MOL_PROPERTY
Angle
SciTegic.value.DoubleValue
4.784

@<SCITEGIC>MOL_PROPERTY
Pdih
SciTegic.value.DoubleValue
13.799

@<SCITEGIC>MOL_PROPERTY
Idih
SciTegic.value.DoubleValue
0.000

@<SCITEGIC>MOL_PROPERTY
Tether
SciTegic.value.DoubleValue
0.000

@<TRIPOS>MOLECULE
guest-s17_confgen4.mol2 : confsearch ligand conformer 835
          25          25           1
SMALL
USER_CHARGES
 
@<TRIPOS>ATOM
       1    C1      20.394062   17.477177   23.178167 C.3        1 MOL1        -0.1684
       2    H1      20.275219   17.431572   22.089719 H          1 MOL1         0.0833
       3    H2      20.442595   16.426507   23.495042 H          1 MOL1         0.0833
       4    C2      19.135116   18.097441   23.833947 C.3        1 MOL1        -0.1684
       5    H3      18.280108   17.458706   23.573403 H          1 MOL1         0.0833
       6    H4      19.228269   18.037373   24.926751 H          1 MOL1         0.0833
       7    C3      18.776734   19.552887   23.438979 C.3        1 MOL1        -0.1684
       8    H5      19.356788   20.267264   24.034182 H          1 MOL1         0.0833
       9    H6      17.735036   19.723914   23.743313 H          1 MOL1         0.0833
      10    C4      18.899375   19.878409   21.926440 C.3        1 MOL1        -0.1760
      11    H7      18.801131   18.969857   21.320089 H          1 MOL1         0.0833
      12    H8      18.036924   20.502396   21.656150 H          1 MOL1         0.0833
      13    C5      20.171492   20.669453   21.530916 C.3        1 MOL1         0.1219
      14    H9      20.229501   21.564657   22.166403 H          1 MOL1         0.0790
      15    C6      21.519149   19.912731   21.638957 C.3        1 MOL1        -0.1760
      16    H10     21.507075   19.005315   21.023140 H          1 MOL1         0.0833
      17    H11     22.286026   20.558074   21.189880 H          1 MOL1         0.0833
      18    C7      21.975212   19.594774   23.087988 C.3        1 MOL1        -0.1684
      19    H12     21.519748   20.295599   23.796833 H          1 MOL1         0.0833
      20    H13     23.053337   19.793542   23.159692 H          1 MOL1         0.0833
      21    C8      21.748766   18.131670   23.547133 C.3        1 MOL1        -0.1684
      22    H14     21.896364   18.072313   24.633963 H          1 MOL1         0.0833
      23    H15     22.543171   17.514533   23.105586 H          1 MOL1         0.0833
      24    O1      20.017883   21.085065   20.180779 O.3        1 MOL1        -0.5508
      25    H16     19.969565   20.267578   19.643968 H          1 MOL1         0.3780
@<TRIPOS>BOND
    1     1     2    1
    2     1     3    1
    3     1     4    1
    4     4     5    1
    5     4     6    1
    6     4     7    1
    7     7     8    1
    8     7     9    1
    9     7    10    1
   10    10    11    1
   11    10    12    1
   12    10    13    1
   13    13    14    1
   14    13    15    1
   15    15    16    1
   16    15    17    1
   17    15    18    1
   18    18    19    1
   19    18    20    1
   20     1    21    1
   21    18    21    1
   22    21    22    1
   23    21    23    1
   24    13    24    1
   25    24    25    1
@<TRIPOS>SUBSTRUCTURE
       1 MOL1            1 RESIDUE      1      MOL     
@<SCITEGIC>MOL_PROPERTY
VConf Rank
SciTegic.value.IntegerValue
835

@<SCITEGIC>MOL_PROPERTY
Conf_Id
SciTegic.value.IntegerValue
15

@<SCITEGIC>MOL_PROPERTY
Delta U+W
SciTegic.value.DoubleValue
-1.271

@<SCITEGIC>MOL_PROPERTY
U+W
SciTegic.value.DoubleValue
9.643

@<SCITEGIC>MOL_PROPERTY
Grad RMS
SciTegic.value.DoubleValue
0.000000

@<SCITEGIC>MOL_PROPERTY
U
SciTegic.value.DoubleValue
11.413

@<SCITEGIC>MOL_PROPERTY
W
SciTegic.value.DoubleValue
-1.770

@<SCITEGIC>MOL_PROPERTY
W(PB)
SciTegic.value.DoubleValue
-3.908

@<SCITEGIC>MOL_PROPERTY
W(SA)
SciTegic.value.DoubleValue
2.138

@<SCITEGIC>MOL_PROPERTY
Valence
SciTegic.value.DoubleValue
17.496

@<SCITEGIC>MOL_PROPERTY
Coulomb
SciTegic.value.DoubleValue
-8.736

@<SCITEGIC>MOL_PROPERTY
VdW
SciTegic.value.DoubleValue
2.653

@<SCITEGIC>MOL_PROPERTY
VdW6
SciTegic.value.DoubleValue
-12.485

@<SCITEGIC>MOL_PROPERTY
VdW12
SciTegic.value.DoubleValue
15.138

@<SCITEGIC>MOL_PROPERTY
Bond
SciTegic.value.DoubleValue
0.414

@<SCITEGIC>MOL_PROPERTY
Angle
SciTegic.value.DoubleValue
5.295

@<SCITEGIC>MOL_PROPERTY
Pdih
SciTegic.value.DoubleValue
11.787

@<SCITEGIC>MOL_PROPERTY
Idih
SciTegic.value.DoubleValue
0.000

@<SCITEGIC>MOL_PROPERTY
Tether
SciTegic.value.DoubleValue
0.000

@<TRIPOS>MOLECULE
guest-s17_confgen4.mol2 : confsearch ligand conformer 836
          25          25           1
SMALL
USER_CHARGES
 
@<TRIPOS>ATOM
       1    C1      20.475879   21.126137   22.438495 C.3        1 MOL1        -0.1684
       2    H1      20.732134   22.174647   22.233699 H          1 MOL1         0.0833
       3    H2      19.833624   21.163762   23.327459 H          1 MOL1         0.0833
       4    C2      19.681704   20.605928   21.211508 C.3        1 MOL1        -0.1684
       5    H3      18.723551   21.141950   21.173465 H          1 MOL1         0.0833
       6    H4      20.218105   20.888140   20.295318 H          1 MOL1         0.0833
       7    C3      19.401022   19.084767   21.160336 C.3        1 MOL1        -0.1684
       8    H5      20.300905   18.556863   20.823735 H          1 MOL1         0.0833
       9    H6      18.657427   18.901705   20.372718 H          1 MOL1         0.0833
      10    C4      18.871932   18.492498   22.492527 C.3        1 MOL1        -0.1760
      11    H7      18.633421   19.288238   23.206880 H          1 MOL1         0.0833
      12    H8      17.913730   17.994658   22.294535 H          1 MOL1         0.0833
      13    C5      19.809700   17.453642   23.149519 C.3        1 MOL1         0.1219
      14    H9      19.744769   16.527774   22.560127 H          1 MOL1         0.0790
      15    C6      21.310520   17.833225   23.238602 C.3        1 MOL1        -0.1760
      16    H10     21.794788   17.078698   23.873035 H          1 MOL1         0.0833
      17    H11     21.786850   17.712387   22.258286 H          1 MOL1         0.0833
      18    C7      21.648756   19.233606   23.816157 C.3        1 MOL1        -0.1684
      19    H12     22.624068   19.143293   24.313905 H          1 MOL1         0.0833
      20    H13     20.945100   19.516075   24.609814 H          1 MOL1         0.0833
      21    C8      21.786810   20.368534   22.764179 C.3        1 MOL1        -0.1684
      22    H14     22.265105   20.003025   21.845580 H          1 MOL1         0.0833
      23    H15     22.485834   21.106145   23.181876 H          1 MOL1         0.0833
      24    O1      19.332370   17.192742   24.461957 O.3        1 MOL1        -0.5508
      25    H16     19.496535   18.010107   24.973923 H          1 MOL1         0.3780
@<TRIPOS>BOND
    1     1     2    1
    2     1     3    1
    3     1     4    1
    4     4     5    1
    5     4     6    1
    6     4     7    1
    7     7     8    1
    8     7     9    1
    9     7    10    1
   10    10    11    1
   11    10    12    1
   12    10    13    1
   13    13    14    1
   14    13    15    1
   15    15    16    1
   16    15    17    1
   17    15    18    1
   18    18    19    1
   19    18    20    1
   20     1    21    1
   21    18    21    1
   22    21    22    1
   23    21    23    1
   24    13    24    1
   25    24    25    1
@<TRIPOS>SUBSTRUCTURE
       1 MOL1            1 RESIDUE      1      MOL     
@<SCITEGIC>MOL_PROPERTY
VConf Rank
SciTegic.value.IntegerValue
836

@<SCITEGIC>MOL_PROPERTY
Conf_Id
SciTegic.value.IntegerValue
115

@<SCITEGIC>MOL_PROPERTY
Delta U+W
SciTegic.value.DoubleValue
0.038

@<SCITEGIC>MOL_PROPERTY
U+W
SciTegic.value.DoubleValue
10.952

@<SCITEGIC>MOL_PROPERTY
Grad RMS
SciTegic.value.DoubleValue
0.000000

@<SCITEGIC>MOL_PROPERTY
U
SciTegic.value.DoubleValue
12.526

@<SCITEGIC>MOL_PROPERTY
W
SciTegic.value.DoubleValue
-1.575

@<SCITEGIC>MOL_PROPERTY
W(PB)
SciTegic.value.DoubleValue
-3.698

@<SCITEGIC>MOL_PROPERTY
W(SA)
SciTegic.value.DoubleValue
2.123

@<SCITEGIC>MOL_PROPERTY
Valence
SciTegic.value.DoubleValue
19.016

@<SCITEGIC>MOL_PROPERTY
Coulomb
SciTegic.value.DoubleValue
-9.226

@<SCITEGIC>MOL_PROPERTY
VdW
SciTegic.value.DoubleValue
2.737

@<SCITEGIC>MOL_PROPERTY
VdW6
SciTegic.value.DoubleValue
-12.612

@<SCITEGIC>MOL_PROPERTY
VdW12
SciTegic.value.DoubleValue
15.349

@<SCITEGIC>MOL_PROPERTY
Bond
SciTegic.value.DoubleValue
0.421

@<SCITEGIC>MOL_PROPERTY
Angle
SciTegic.value.DoubleValue
4.883

@<SCITEGIC>MOL_PROPERTY
Pdih
SciTegic.value.DoubleValue
13.711

@<SCITEGIC>MOL_PROPERTY
Idih
SciTegic.value.DoubleValue
0.000

@<SCITEGIC>MOL_PROPERTY
Tether
SciTegic.value.DoubleValue
0.000

@<TRIPOS>MOLECULE
guest-s17_confgen4.mol2 : confsearch ligand conformer 837
          25          25           1
SMALL
USER_CHARGES
 
@<TRIPOS>ATOM
       1    C1      19.928380   20.784265   24.099829 C.3        1 MOL1        -0.1684
       2    H1      19.537309   21.158284   25.055945 H          1 MOL1         0.0833
       3    H2      20.541825   21.599893   23.693734 H          1 MOL1         0.0833
       4    C2      18.715411   20.522011   23.177080 C.3        1 MOL1        -0.1684
       5    H3      18.037854   19.793523   23.642715 H          1 MOL1         0.0833
       6    H4      18.143325   21.457742   23.112856 H          1 MOL1         0.0833
       7    C3      19.067669   20.079839   21.737881 C.3        1 MOL1        -0.1684
       8    H5      19.914664   20.665087   21.355701 H          1 MOL1         0.0833
       9    H6      18.216858   20.344859   21.095193 H          1 MOL1         0.0833
      10    C4      19.313703   18.555205   21.580085 C.3        1 MOL1        -0.1760
      11    H7      18.968229   18.002113   22.462437 H          1 MOL1         0.0833
      12    H8      18.683329   18.206030   20.751070 H          1 MOL1         0.0833
      13    C5      20.776002   18.174085   21.257001 C.3        1 MOL1         0.1219
      14    H9      21.208321   18.944693   20.602833 H          1 MOL1         0.0790
      15    C6      21.684433   17.998580   22.494088 C.3        1 MOL1        -0.1760
      16    H10     21.300673   17.188884   23.128683 H          1 MOL1         0.0833
      17    H11     22.666195   17.659434   22.138371 H          1 MOL1         0.0833
      18    C7      21.910168   19.276012   23.339003 C.3        1 MOL1        -0.1684
      19    H12     22.061706   20.145362   22.685322 H          1 MOL1         0.0833
      20    H13     22.859485   19.148240   23.877241 H          1 MOL1         0.0833
      21    C8      20.810298   19.549041   24.398126 C.3        1 MOL1        -0.1684
      22    H14     21.315672   19.732722   25.356282 H          1 MOL1         0.0833
      23    H15     20.184202   18.662629   24.565775 H          1 MOL1         0.0833
      24    O1      20.763718   16.935819   20.556862 O.3        1 MOL1        -0.5508
      25    H16     21.692411   16.738405   20.314187 H          1 MOL1         0.3780
@<TRIPOS>BOND
    1     1     2    1
    2     1     3    1
    3     1     4    1
    4     4     5    1
    5     4     6    1
    6     4     7    1
    7     7     8    1
    8     7     9    1
    9     7    10    1
   10    10    11    1
   11    10    12    1
   12    10    13    1
   13    13    14    1
   14    13    15    1
   15    15    16    1
   16    15    17    1
   17    15    18    1
   18    18    19    1
   19    18    20    1
   20     1    21    1
   21    18    21    1
   22    21    22    1
   23    21    23    1
   24    13    24    1
   25    24    25    1
@<TRIPOS>SUBSTRUCTURE
       1 MOL1            1 RESIDUE      1      MOL     
@<SCITEGIC>MOL_PROPERTY
VConf Rank
SciTegic.value.IntegerValue
837

@<SCITEGIC>MOL_PROPERTY
Conf_Id
SciTegic.value.IntegerValue
30

@<SCITEGIC>MOL_PROPERTY
Delta U+W
SciTegic.value.DoubleValue
0.000

@<SCITEGIC>MOL_PROPERTY
U+W
SciTegic.value.DoubleValue
10.913

@<SCITEGIC>MOL_PROPERTY
Grad RMS
SciTegic.value.DoubleValue
0.000000

@<SCITEGIC>MOL_PROPERTY
U
SciTegic.value.DoubleValue
13.140

@<SCITEGIC>MOL_PROPERTY
W
SciTegic.value.DoubleValue
-2.227

@<SCITEGIC>MOL_PROPERTY
W(PB)
SciTegic.value.DoubleValue
-4.367

@<SCITEGIC>MOL_PROPERTY
W(SA)
SciTegic.value.DoubleValue
2.140

@<SCITEGIC>MOL_PROPERTY
Valence
SciTegic.value.DoubleValue
19.155

@<SCITEGIC>MOL_PROPERTY
Coulomb
SciTegic.value.DoubleValue
-8.157

@<SCITEGIC>MOL_PROPERTY
VdW
SciTegic.value.DoubleValue
2.142

@<SCITEGIC>MOL_PROPERTY
VdW6
SciTegic.value.DoubleValue
-11.576

@<SCITEGIC>MOL_PROPERTY
VdW12
SciTegic.value.DoubleValue
13.718

@<SCITEGIC>MOL_PROPERTY
Bond
SciTegic.value.DoubleValue
0.294

@<SCITEGIC>MOL_PROPERTY
Angle
SciTegic.value.DoubleValue
3.547

@<SCITEGIC>MOL_PROPERTY
Pdih
SciTegic.value.DoubleValue
15.314

@<SCITEGIC>MOL_PROPERTY
Idih
SciTegic.value.DoubleValue
0.000

@<SCITEGIC>MOL_PROPERTY
Tether
SciTegic.value.DoubleValue
0.000

@<TRIPOS>MOLECULE
guest-s17_confgen4.mol2 : confsearch ligand conformer 838
          25          25           1
SMALL
USER_CHARGES
 
@<TRIPOS>ATOM
       1    C1      22.399410   18.998634   22.958064 C.3        1 MOL1        -0.1684
       2    H1      23.275441   19.589025   22.656626 H          1 MOL1         0.0833
       3    H2      22.800600   18.106446   23.457885 H          1 MOL1         0.0833
       4    C2      21.650840   18.543583   21.681092 C.3        1 MOL1        -0.1684
       5    H3      22.399388   18.196786   20.955642 H          1 MOL1         0.0833
       6    H4      21.049107   17.654883   21.903992 H          1 MOL1         0.0833
       7    C3      20.790709   19.647385   21.015062 C.3        1 MOL1        -0.1684
       8    H5      21.105090   19.755969   19.968133 H          1 MOL1         0.0833
       9    H6      20.986286   20.625985   21.468636 H          1 MOL1         0.0833
      10    C4      19.268235   19.358683   21.031789 C.3        1 MOL1        -0.1760
      11    H7      18.739515   20.267655   20.715586 H          1 MOL1         0.0833
      12    H8      19.049894   18.601746   20.267238 H          1 MOL1         0.0833
      13    C5      18.664644   18.862703   22.369645 C.3        1 MOL1         0.1219
      14    H9      19.000118   17.834187   22.558323 H          1 MOL1         0.0790
      15    C6      19.006366   19.729271   23.606409 C.3        1 MOL1        -0.1760
      16    H10     19.123684   20.780798   23.314729 H          1 MOL1         0.0833
      17    H11     18.143051   19.711154   24.284903 H          1 MOL1         0.0833
      18    C7      20.232240   19.242241   24.429686 C.3        1 MOL1        -0.1684
      19    H12     20.276502   18.145371   24.466264 H          1 MOL1         0.0833
      20    H13     20.066450   19.561788   25.467781 H          1 MOL1         0.0833
      21    C8      21.594880   19.832884   23.990193 C.3        1 MOL1        -0.1684
      22    H14     22.225393   19.928102   24.884874 H          1 MOL1         0.0833
      23    H15     21.459815   20.861975   23.633740 H          1 MOL1         0.0833
      24    O1      17.250883   18.843781   22.211093 O.3        1 MOL1        -0.5508
      25    H16     16.880096   18.454266   23.030391 H          1 MOL1         0.3780
@<TRIPOS>BOND
    1     1     2    1
    2     1     3    1
    3     1     4    1
    4     4     5    1
    5     4     6    1
    6     4     7    1
    7     7     8    1
    8     7     9    1
    9     7    10    1
   10    10    11    1
   11    10    12    1
   12    10    13    1
   13    13    14    1
   14    13    15    1
   15    15    16    1
   16    15    17    1
   17    15    18    1
   18    18    19    1
   19    18    20    1
   20     1    21    1
   21    18    21    1
   22    21    22    1
   23    21    23    1
   24    13    24    1
   25    24    25    1
@<TRIPOS>SUBSTRUCTURE
       1 MOL1            1 RESIDUE      1      MOL     
@<SCITEGIC>MOL_PROPERTY
VConf Rank
SciTegic.value.IntegerValue
838

@<SCITEGIC>MOL_PROPERTY
Conf_Id
SciTegic.value.IntegerValue
162

@<SCITEGIC>MOL_PROPERTY
Delta U+W
SciTegic.value.DoubleValue
0.219

@<SCITEGIC>MOL_PROPERTY
U+W
SciTegic.value.DoubleValue
11.132

@<SCITEGIC>MOL_PROPERTY
Grad RMS
SciTegic.value.DoubleValue
0.000000

@<SCITEGIC>MOL_PROPERTY
U
SciTegic.value.DoubleValue
13.296

@<SCITEGIC>MOL_PROPERTY
W
SciTegic.value.DoubleValue
-2.164

@<SCITEGIC>MOL_PROPERTY
W(PB)
SciTegic.value.DoubleValue
-4.311

@<SCITEGIC>MOL_PROPERTY
W(SA)
SciTegic.value.DoubleValue
2.148

@<SCITEGIC>MOL_PROPERTY
Valence
SciTegic.value.DoubleValue
18.607

@<SCITEGIC>MOL_PROPERTY
Coulomb
SciTegic.value.DoubleValue
-8.339

@<SCITEGIC>MOL_PROPERTY
VdW
SciTegic.value.DoubleValue
3.028

@<SCITEGIC>MOL_PROPERTY
VdW6
SciTegic.value.DoubleValue
-12.271

@<SCITEGIC>MOL_PROPERTY
VdW12
SciTegic.value.DoubleValue
15.299

@<SCITEGIC>MOL_PROPERTY
Bond
SciTegic.value.DoubleValue
0.423

@<SCITEGIC>MOL_PROPERTY
Angle
SciTegic.value.DoubleValue
4.488

@<SCITEGIC>MOL_PROPERTY
Pdih
SciTegic.value.DoubleValue
13.696

@<SCITEGIC>MOL_PROPERTY
Idih
SciTegic.value.DoubleValue
0.000

@<SCITEGIC>MOL_PROPERTY
Tether
SciTegic.value.DoubleValue
0.000

@<TRIPOS>MOLECULE
guest-s17_confgen4.mol2 : confsearch ligand conformer 839
          25          25           1
SMALL
USER_CHARGES
 
@<TRIPOS>ATOM
       1    C1      20.714283   18.982781   20.717907 C.3        1 MOL1        -0.1684
       2    H1      21.096805   20.011224   20.704628 H          1 MOL1         0.0833
       3    H2      20.866415   18.614572   19.694069 H          1 MOL1         0.0833
       4    C2      21.570803   18.112492   21.671150 C.3        1 MOL1        -0.1684
       5    H3      21.021675   17.211264   21.975251 H          1 MOL1         0.0833
       6    H4      22.426659   17.747820   21.086629 H          1 MOL1         0.0833
       7    C3      22.153062   18.858126   22.904262 C.3        1 MOL1        -0.1684
       8    H5      22.448225   19.883704   22.644963 H          1 MOL1         0.0833
       9    H6      23.087495   18.346173   23.172347 H          1 MOL1         0.0833
      10    C4      21.256029   18.845343   24.169314 C.3        1 MOL1        -0.1760
      11    H7      20.698562   17.902153   24.223322 H          1 MOL1         0.0833
      12    H8      21.914863   18.834792   25.047404 H          1 MOL1         0.0833
      13    C5      20.301765   20.053082   24.348404 C.3        1 MOL1         0.1219
      14    H9      20.914631   20.933060   24.591561 H          1 MOL1         0.0790
      15    C6      19.429301   20.424077   23.125611 C.3        1 MOL1        -0.1760
      16    H10     18.663474   21.141645   23.447489 H          1 MOL1         0.0833
      17    H11     20.040999   20.981877   22.408491 H          1 MOL1         0.0833
      18    C7      18.728779   19.222168   22.438473 C.3        1 MOL1        -0.1684
      19    H12     17.645023   19.400523   22.433901 H          1 MOL1         0.0833
      20    H13     18.858081   18.305533   23.025985 H          1 MOL1         0.0833
      21    C8      19.184947   18.971522   20.980779 C.3        1 MOL1        -0.1684
      22    H14     18.721407   19.727022   20.331865 H          1 MOL1         0.0833
      23    H15     18.775736   18.005824   20.654151 H          1 MOL1         0.0833
      24    O1      19.444197   19.770056   25.447756 O.3        1 MOL1        -0.5508
      25    H16     18.847494   20.540487   25.545212 H          1 MOL1         0.3780
@<TRIPOS>BOND
    1     1     2    1
    2     1     3    1
    3     1     4    1
    4     4     5    1
    5     4     6    1
    6     4     7    1
    7     7     8    1
    8     7     9    1
    9     7    10    1
   10    10    11    1
   11    10    12    1
   12    10    13    1
   13    13    14    1
   14    13    15    1
   15    15    16    1
   16    15    17    1
   17    15    18    1
   18    18    19    1
   19    18    20    1
   20     1    21    1
   21    18    21    1
   22    21    22    1
   23    21    23    1
   24    13    24    1
   25    24    25    1
@<TRIPOS>SUBSTRUCTURE
       1 MOL1            1 RESIDUE      1      MOL     
@<SCITEGIC>MOL_PROPERTY
VConf Rank
SciTegic.value.IntegerValue
839

@<SCITEGIC>MOL_PROPERTY
Conf_Id
SciTegic.value.IntegerValue
155

@<SCITEGIC>MOL_PROPERTY
Delta U+W
SciTegic.value.DoubleValue
0.339

@<SCITEGIC>MOL_PROPERTY
U+W
SciTegic.value.DoubleValue
11.252

@<SCITEGIC>MOL_PROPERTY
Grad RMS
SciTegic.value.DoubleValue
0.000000

@<SCITEGIC>MOL_PROPERTY
U
SciTegic.value.DoubleValue
13.420

@<SCITEGIC>MOL_PROPERTY
W
SciTegic.value.DoubleValue
-2.167

@<SCITEGIC>MOL_PROPERTY
W(PB)
SciTegic.value.DoubleValue
-4.325

@<SCITEGIC>MOL_PROPERTY
W(SA)
SciTegic.value.DoubleValue
2.157

@<SCITEGIC>MOL_PROPERTY
Valence
SciTegic.value.DoubleValue
18.609

@<SCITEGIC>MOL_PROPERTY
Coulomb
SciTegic.value.DoubleValue
-8.052

@<SCITEGIC>MOL_PROPERTY
VdW
SciTegic.value.DoubleValue
2.863

@<SCITEGIC>MOL_PROPERTY
VdW6
SciTegic.value.DoubleValue
-12.524

@<SCITEGIC>MOL_PROPERTY
VdW12
SciTegic.value.DoubleValue
15.387

@<SCITEGIC>MOL_PROPERTY
Bond
SciTegic.value.DoubleValue
0.430

@<SCITEGIC>MOL_PROPERTY
Angle
SciTegic.value.DoubleValue
4.724

@<SCITEGIC>MOL_PROPERTY
Pdih
SciTegic.value.DoubleValue
13.455

@<SCITEGIC>MOL_PROPERTY
Idih
SciTegic.value.DoubleValue
0.000

@<SCITEGIC>MOL_PROPERTY
Tether
SciTegic.value.DoubleValue
0.000

@<TRIPOS>MOLECULE
guest-s17_confgen4.mol2 : confsearch ligand conformer 840
          25          25           1
SMALL
USER_CHARGES
 
@<TRIPOS>ATOM
       1    C1      22.187375   19.703089   23.327591 C.3        1 MOL1        -0.1684
       2    H1      22.837903   18.842273   23.532888 H          1 MOL1         0.0833
       3    H2      22.798305   20.589672   23.545577 H          1 MOL1         0.0833
       4    C2      21.857488   19.744453   21.812242 C.3        1 MOL1        -0.1684
       5    H3      21.307958   20.663886   21.586852 H          1 MOL1         0.0833
       6    H4      22.804273   19.871677   21.269906 H          1 MOL1         0.0833
       7    C3      21.141296   18.506664   21.197291 C.3        1 MOL1        -0.1684
       8    H5      21.918364   17.782936   20.916335 H          1 MOL1         0.0833
       9    H6      20.662516   18.804357   20.254493 H          1 MOL1         0.0833
      10    C4      20.108961   17.746642   22.073963 C.3        1 MOL1        -0.1760
      11    H7      19.823100   16.837045   21.529706 H          1 MOL1         0.0833
      12    H8      20.611199   17.356161   22.963365 H          1 MOL1         0.0833
      13    C5      18.802195   18.492170   22.475033 C.3        1 MOL1         0.1219
      14    H9      18.410942   18.016005   23.385504 H          1 MOL1         0.0790
      15    C6      18.894403   20.016425   22.737106 C.3        1 MOL1        -0.1760
      16    H10     19.222435   20.517100   21.821551 H          1 MOL1         0.0833
      17    H11     17.871725   20.388402   22.883348 H          1 MOL1         0.0833
      18    C7      19.730752   20.495977   23.961383 C.3        1 MOL1        -0.1684
      19    H12     19.069357   20.478875   24.838367 H          1 MOL1         0.0833
      20    H13     19.998077   21.551468   23.817174 H          1 MOL1         0.0833
      21    C8      21.003954   19.694170   24.339209 C.3        1 MOL1        -0.1684
      22    H14     20.723450   18.669204   24.601390 H          1 MOL1         0.0833
      23    H15     21.385358   20.104629   25.284160 H          1 MOL1         0.0833
      24    O1      17.856478   18.308867   21.427081 O.3        1 MOL1        -0.5508
      25    H16     17.760862   17.342725   21.297974 H          1 MOL1         0.3780
@<TRIPOS>BOND
    1     1     2    1
    2     1     3    1
    3     1     4    1
    4     4     5    1
    5     4     6    1
    6     4     7    1
    7     7     8    1
    8     7     9    1
    9     7    10    1
   10    10    11    1
   11    10    12    1
   12    10    13    1
   13    13    14    1
   14    13    15    1
   15    15    16    1
   16    15    17    1
   17    15    18    1
   18    18    19    1
   19    18    20    1
   20     1    21    1
   21    18    21    1
   22    21    22    1
   23    21    23    1
   24    13    24    1
   25    24    25    1
@<TRIPOS>SUBSTRUCTURE
       1 MOL1            1 RESIDUE      1      MOL     
@<SCITEGIC>MOL_PROPERTY
VConf Rank
SciTegic.value.IntegerValue
840

@<SCITEGIC>MOL_PROPERTY
Conf_Id
SciTegic.value.IntegerValue
146

@<SCITEGIC>MOL_PROPERTY
Delta U+W
SciTegic.value.DoubleValue
2.553

@<SCITEGIC>MOL_PROPERTY
U+W
SciTegic.value.DoubleValue
13.466

@<SCITEGIC>MOL_PROPERTY
Grad RMS
SciTegic.value.DoubleValue
0.000000

@<SCITEGIC>MOL_PROPERTY
U
SciTegic.value.DoubleValue
15.643

@<SCITEGIC>MOL_PROPERTY
W
SciTegic.value.DoubleValue
-2.176

@<SCITEGIC>MOL_PROPERTY
W(PB)
SciTegic.value.DoubleValue
-4.307

@<SCITEGIC>MOL_PROPERTY
W(SA)
SciTegic.value.DoubleValue
2.131

@<SCITEGIC>MOL_PROPERTY
Valence
SciTegic.value.DoubleValue
18.916

@<SCITEGIC>MOL_PROPERTY
Coulomb
SciTegic.value.DoubleValue
-7.506

@<SCITEGIC>MOL_PROPERTY
VdW
SciTegic.value.DoubleValue
4.232

@<SCITEGIC>MOL_PROPERTY
VdW6
SciTegic.value.DoubleValue
-13.632

@<SCITEGIC>MOL_PROPERTY
VdW12
SciTegic.value.DoubleValue
17.864

@<SCITEGIC>MOL_PROPERTY
Bond
SciTegic.value.DoubleValue
0.735

@<SCITEGIC>MOL_PROPERTY
Angle
SciTegic.value.DoubleValue
9.140

@<SCITEGIC>MOL_PROPERTY
Pdih
SciTegic.value.DoubleValue
9.042

@<SCITEGIC>MOL_PROPERTY
Idih
SciTegic.value.DoubleValue
0.000

@<SCITEGIC>MOL_PROPERTY
Tether
SciTegic.value.DoubleValue
0.000

@<TRIPOS>MOLECULE
guest-s17_confgen4.mol2 : confsearch ligand conformer 841
          25          25           1
SMALL
USER_CHARGES
 
@<TRIPOS>ATOM
       1    C1      20.008074   17.831771   21.184099 C.3        1 MOL1        -0.1684
       2    H1      19.844273   16.768980   21.408037 H          1 MOL1         0.0833
       3    H2      19.967807   17.913347   20.089276 H          1 MOL1         0.0833
       4    C2      21.437987   18.232807   21.625299 C.3        1 MOL1        -0.1684
       5    H3      22.141466   17.613928   21.051795 H          1 MOL1         0.0833
       6    H4      21.658631   19.260417   21.314686 H          1 MOL1         0.0833
       7    C3      21.769762   18.035055   23.125700 C.3        1 MOL1        -0.1684
       8    H5      22.839331   18.247946   23.258670 H          1 MOL1         0.0833
       9    H6      21.641794   16.976543   23.389554 H          1 MOL1         0.0833
      10    C4      20.983330   18.905542   24.140333 C.3        1 MOL1        -0.1760
      11    H7      20.003529   18.461731   24.343047 H          1 MOL1         0.0833
      12    H8      21.515783   18.843972   25.099103 H          1 MOL1         0.0833
      13    C5      20.824206   20.396179   23.744410 C.3        1 MOL1         0.1219
      14    H9      21.586308   20.662838   22.999872 H          1 MOL1         0.0790
      15    C6      19.421246   20.759951   23.195651 C.3        1 MOL1        -0.1760
      16    H10     18.659304   20.462015   23.928043 H          1 MOL1         0.0833
      17    H11     19.356619   21.853892   23.128885 H          1 MOL1         0.0833
      18    C7      19.043311   20.189713   21.801521 C.3        1 MOL1        -0.1684
      19    H12     19.769083   20.505954   21.041228 H          1 MOL1         0.0833
      20    H13     18.096350   20.662950   21.507763 H          1 MOL1         0.0833
      21    C8      18.827983   18.654587   21.762691 C.3        1 MOL1        -0.1684
      22    H14     17.951923   18.448466   21.132555 H          1 MOL1         0.0833
      23    H15     18.545000   18.280414   22.753014 H          1 MOL1         0.0833
      24    O1      21.042190   21.187905   24.906737 O.3        1 MOL1        -0.5508
      25    H16     20.995808   22.124992   24.624006 H          1 MOL1         0.3780
@<TRIPOS>BOND
    1     1     2    1
    2     1     3    1
    3     1     4    1
    4     4     5    1
    5     4     6    1
    6     4     7    1
    7     7     8    1
    8     7     9    1
    9     7    10    1
   10    10    11    1
   11    10    12    1
   12    10    13    1
   13    13    14    1
   14    13    15    1
   15    15    16    1
   16    15    17    1
   17    15    18    1
   18    18    19    1
   19    18    20    1
   20     1    21    1
   21    18    21    1
   22    21    22    1
   23    21    23    1
   24    13    24    1
   25    24    25    1
@<TRIPOS>SUBSTRUCTURE
       1 MOL1            1 RESIDUE      1      MOL     
@<SCITEGIC>MOL_PROPERTY
VConf Rank
SciTegic.value.IntegerValue
841

@<SCITEGIC>MOL_PROPERTY
Conf_Id
SciTegic.value.IntegerValue
62

@<SCITEGIC>MOL_PROPERTY
Delta U+W
SciTegic.value.DoubleValue
-1.779

@<SCITEGIC>MOL_PROPERTY
U+W
SciTegic.value.DoubleValue
9.134

@<SCITEGIC>MOL_PROPERTY
Grad RMS
SciTegic.value.DoubleValue
0.000000

@<SCITEGIC>MOL_PROPERTY
U
SciTegic.value.DoubleValue
11.364

@<SCITEGIC>MOL_PROPERTY
W
SciTegic.value.DoubleValue
-2.230

@<SCITEGIC>MOL_PROPERTY
W(PB)
SciTegic.value.DoubleValue
-4.359

@<SCITEGIC>MOL_PROPERTY
W(SA)
SciTegic.value.DoubleValue
2.129

@<SCITEGIC>MOL_PROPERTY
Valence
SciTegic.value.DoubleValue
16.582

@<SCITEGIC>MOL_PROPERTY
Coulomb
SciTegic.value.DoubleValue
-8.150

@<SCITEGIC>MOL_PROPERTY
VdW
SciTegic.value.DoubleValue
2.933

@<SCITEGIC>MOL_PROPERTY
VdW6
SciTegic.value.DoubleValue
-12.531

@<SCITEGIC>MOL_PROPERTY
VdW12
SciTegic.value.DoubleValue
15.464

@<SCITEGIC>MOL_PROPERTY
Bond
SciTegic.value.DoubleValue
0.439

@<SCITEGIC>MOL_PROPERTY
Angle
SciTegic.value.DoubleValue
5.099

@<SCITEGIC>MOL_PROPERTY
Pdih
SciTegic.value.DoubleValue
11.044

@<SCITEGIC>MOL_PROPERTY
Idih
SciTegic.value.DoubleValue
0.000

@<SCITEGIC>MOL_PROPERTY
Tether
SciTegic.value.DoubleValue
0.000

@<TRIPOS>MOLECULE
guest-s17_confgen4.mol2 : confsearch ligand conformer 842
          25          25           1
SMALL
USER_CHARGES
 
@<TRIPOS>ATOM
       1    C1      21.036373   18.896302   20.953365 C.3        1 MOL1        -0.1684
       2    H1      20.027961   19.290188   20.782826 H          1 MOL1         0.0833
       3    H2      21.429953   18.698901   19.947002 H          1 MOL1         0.0833
       4    C2      20.967492   17.538063   21.695049 C.3        1 MOL1        -0.1684
       5    H3      20.392856   16.847111   21.063174 H          1 MOL1         0.0833
       6    H4      21.976674   17.109613   21.761966 H          1 MOL1         0.0833
       7    C3      20.325280   17.535211   23.105821 C.3        1 MOL1        -0.1684
       8    H5      21.057956   17.837418   23.862690 H          1 MOL1         0.0833
       9    H6      20.090844   16.490595   23.352485 H          1 MOL1         0.0833
      10    C4      19.023831   18.369802   23.243657 C.3        1 MOL1        -0.1760
      11    H7      18.526248   18.487985   22.273247 H          1 MOL1         0.0833
      12    H8      18.326520   17.783974   23.856769 H          1 MOL1         0.0833
      13    C5      19.201129   19.745834   23.933943 C.3        1 MOL1         0.1219
      14    H9      19.708573   19.585862   24.896175 H          1 MOL1         0.0790
      15    C6      19.994954   20.815723   23.143318 C.3        1 MOL1        -0.1760
      16    H10     19.523039   21.004483   22.171487 H          1 MOL1         0.0833
      17    H11     19.900030   21.758779   23.697794 H          1 MOL1         0.0833
      18    C7      21.510952   20.522906   22.983391 C.3        1 MOL1        -0.1684
      19    H12     21.859985   19.857544   23.781148 H          1 MOL1         0.0833
      20    H13     22.060235   21.460076   23.147551 H          1 MOL1         0.0833
      21    C8      21.937916   19.980020   21.595624 C.3        1 MOL1        -0.1684
      22    H14     22.967605   19.603342   21.661486 H          1 MOL1         0.0833
      23    H15     21.976473   20.829728   20.900360 H          1 MOL1         0.0833
      24    O1      17.904365   20.273469   24.183806 O.3        1 MOL1        -0.5508
      25    H16     17.434949   19.618799   24.741662 H          1 MOL1         0.3780
@<TRIPOS>BOND
    1     1     2    1
    2     1     3    1
    3     1     4    1
    4     4     5    1
    5     4     6    1
    6     4     7    1
    7     7     8    1
    8     7     9    1
    9     7    10    1
   10    10    11    1
   11    10    12    1
   12    10    13    1
   13    13    14    1
   14    13    15    1
   15    15    16    1
   16    15    17    1
   17    15    18    1
   18    18    19    1
   19    18    20    1
   20     1    21    1
   21    18    21    1
   22    21    22    1
   23    21    23    1
   24    13    24    1
   25    24    25    1
@<TRIPOS>SUBSTRUCTURE
       1 MOL1            1 RESIDUE      1      MOL     
@<SCITEGIC>MOL_PROPERTY
VConf Rank
SciTegic.value.IntegerValue
842

@<SCITEGIC>MOL_PROPERTY
Conf_Id
SciTegic.value.IntegerValue
121

@<SCITEGIC>MOL_PROPERTY
Delta U+W
SciTegic.value.DoubleValue
-1.283

@<SCITEGIC>MOL_PROPERTY
U+W
SciTegic.value.DoubleValue
9.630

@<SCITEGIC>MOL_PROPERTY
Grad RMS
SciTegic.value.DoubleValue
0.000000

@<SCITEGIC>MOL_PROPERTY
U
SciTegic.value.DoubleValue
11.876

@<SCITEGIC>MOL_PROPERTY
W
SciTegic.value.DoubleValue
-2.246

@<SCITEGIC>MOL_PROPERTY
W(PB)
SciTegic.value.DoubleValue
-4.376

@<SCITEGIC>MOL_PROPERTY
W(SA)
SciTegic.value.DoubleValue
2.130

@<SCITEGIC>MOL_PROPERTY
Valence
SciTegic.value.DoubleValue
17.153

@<SCITEGIC>MOL_PROPERTY
Coulomb
SciTegic.value.DoubleValue
-7.966

@<SCITEGIC>MOL_PROPERTY
VdW
SciTegic.value.DoubleValue
2.689

@<SCITEGIC>MOL_PROPERTY
VdW6
SciTegic.value.DoubleValue
-12.458

@<SCITEGIC>MOL_PROPERTY
VdW12
SciTegic.value.DoubleValue
15.147

@<SCITEGIC>MOL_PROPERTY
Bond
SciTegic.value.DoubleValue
0.421

@<SCITEGIC>MOL_PROPERTY
Angle
SciTegic.value.DoubleValue
5.258

@<SCITEGIC>MOL_PROPERTY
Pdih
SciTegic.value.DoubleValue
11.475

@<SCITEGIC>MOL_PROPERTY
Idih
SciTegic.value.DoubleValue
0.000

@<SCITEGIC>MOL_PROPERTY
Tether
SciTegic.value.DoubleValue
0.000

@<TRIPOS>MOLECULE
guest-s17_confgen4.mol2 : confsearch ligand conformer 843
          25          25           1
SMALL
USER_CHARGES
 
@<TRIPOS>ATOM
       1    C1      21.998057   18.656301   22.047812 C.3        1 MOL1        -0.1684
       2    H1      21.539032   17.766631   22.493801 H          1 MOL1         0.0833
       3    H2      22.964979   18.304984   21.662743 H          1 MOL1         0.0833
       4    C2      22.294582   19.715376   23.138755 C.3        1 MOL1        -0.1684
       5    H3      22.982449   19.257647   23.862776 H          1 MOL1         0.0833
       6    H4      22.847996   20.552151   22.691515 H          1 MOL1         0.0833
       7    C3      21.083251   20.276904   23.926338 C.3        1 MOL1        -0.1684
       8    H5      20.602709   21.087609   23.367069 H          1 MOL1         0.0833
       9    H6      21.480357   20.763118   24.827920 H          1 MOL1         0.0833
      10    C4      20.032600   19.222804   24.367451 C.3        1 MOL1        -0.1760
      11    H7      20.479796   18.224095   24.440842 H          1 MOL1         0.0833
      12    H8      19.723704   19.476113   25.390303 H          1 MOL1         0.0833
      13    C5      18.746143   19.179872   23.505419 C.3        1 MOL1         0.1219
      14    H9      18.334083   20.198073   23.455862 H          1 MOL1         0.0790
      15    C6      18.904068   18.648840   22.058197 C.3        1 MOL1        -0.1760
      16    H10     19.321331   17.634392   22.064515 H          1 MOL1         0.0833
      17    H11     17.895793   18.544207   21.636560 H          1 MOL1         0.0833
      18    C7      19.705191   19.576161   21.105524 C.3        1 MOL1        -0.1684
      19    H12     19.671631   20.612729   21.459635 H          1 MOL1         0.0833
      20    H13     19.189030   19.600511   20.135984 H          1 MOL1         0.0833
      21    C8      21.167850   19.141206   20.833201 C.3        1 MOL1        -0.1684
      22    H14     21.698196   19.965169   20.336902 H          1 MOL1         0.0833
      23    H15     21.143743   18.320944   20.102807 H          1 MOL1         0.0833
      24    O1      17.811737   18.341183   24.173184 O.3        1 MOL1        -0.5508
      25    H16     16.980254   18.375556   23.655880 H          1 MOL1         0.3780
@<TRIPOS>BOND
    1     1     2    1
    2     1     3    1
    3     1     4    1
    4     4     5    1
    5     4     6    1
    6     4     7    1
    7     7     8    1
    8     7     9    1
    9     7    10    1
   10    10    11    1
   11    10    12    1
   12    10    13    1
   13    13    14    1
   14    13    15    1
   15    15    16    1
   16    15    17    1
   17    15    18    1
   18    18    19    1
   19    18    20    1
   20     1    21    1
   21    18    21    1
   22    21    22    1
   23    21    23    1
   24    13    24    1
   25    24    25    1
@<TRIPOS>SUBSTRUCTURE
       1 MOL1            1 RESIDUE      1      MOL     
@<SCITEGIC>MOL_PROPERTY
VConf Rank
SciTegic.value.IntegerValue
843

@<SCITEGIC>MOL_PROPERTY
Conf_Id
SciTegic.value.IntegerValue
24

@<SCITEGIC>MOL_PROPERTY
Delta U+W
SciTegic.value.DoubleValue
-1.236

@<SCITEGIC>MOL_PROPERTY
U+W
SciTegic.value.DoubleValue
9.678

@<SCITEGIC>MOL_PROPERTY
Grad RMS
SciTegic.value.DoubleValue
0.000000

@<SCITEGIC>MOL_PROPERTY
U
SciTegic.value.DoubleValue
11.876

@<SCITEGIC>MOL_PROPERTY
W
SciTegic.value.DoubleValue
-2.199

@<SCITEGIC>MOL_PROPERTY
W(PB)
SciTegic.value.DoubleValue
-4.335

@<SCITEGIC>MOL_PROPERTY
W(SA)
SciTegic.value.DoubleValue
2.137

@<SCITEGIC>MOL_PROPERTY
Valence
SciTegic.value.DoubleValue
17.153

@<SCITEGIC>MOL_PROPERTY
Coulomb
SciTegic.value.DoubleValue
-7.966

@<SCITEGIC>MOL_PROPERTY
VdW
SciTegic.value.DoubleValue
2.689

@<SCITEGIC>MOL_PROPERTY
VdW6
SciTegic.value.DoubleValue
-12.458

@<SCITEGIC>MOL_PROPERTY
VdW12
SciTegic.value.DoubleValue
15.147

@<SCITEGIC>MOL_PROPERTY
Bond
SciTegic.value.DoubleValue
0.421

@<SCITEGIC>MOL_PROPERTY
Angle
SciTegic.value.DoubleValue
5.258

@<SCITEGIC>MOL_PROPERTY
Pdih
SciTegic.value.DoubleValue
11.475

@<SCITEGIC>MOL_PROPERTY
Idih
SciTegic.value.DoubleValue
0.000

@<SCITEGIC>MOL_PROPERTY
Tether
SciTegic.value.DoubleValue
0.000

@<TRIPOS>MOLECULE
guest-s17_confgen4.mol2 : confsearch ligand conformer 844
          25          25           1
SMALL
USER_CHARGES
 
@<TRIPOS>ATOM
       1    C1      21.767770   18.807612   24.130015 C.3        1 MOL1        -0.1684
       2    H1      22.078501   17.794902   24.420948 H          1 MOL1         0.0833
       3    H2      22.326750   19.489553   24.785265 H          1 MOL1         0.0833
       4    C2      22.220424   19.071171   22.669248 C.3        1 MOL1        -0.1684
       5    H3      22.227648   20.147447   22.455072 H          1 MOL1         0.0833
       6    H4      23.273655   18.766008   22.601086 H          1 MOL1         0.0833
       7    C3      21.434580   18.317698   21.567710 C.3        1 MOL1        -0.1684
       8    H5      21.123980   17.324783   21.919996 H          1 MOL1         0.0833
       9    H6      22.139520   18.127689   20.746638 H          1 MOL1         0.0833
      10    C4      20.235065   19.098890   20.960396 C.3        1 MOL1        -0.1760
      11    H7      20.464524   20.169431   20.884453 H          1 MOL1         0.0833
      12    H8      20.124167   18.747379   19.925461 H          1 MOL1         0.0833
      13    C5      18.881681   18.882947   21.680674 C.3        1 MOL1         0.1219
      14    H9      18.884749   17.884111   22.136736 H          1 MOL1         0.0790
      15    C6      18.528072   19.937519   22.759863 C.3        1 MOL1        -0.1760
      16    H10     18.266629   20.885290   22.271243 H          1 MOL1         0.0833
      17    H11     17.616174   19.598919   23.269189 H          1 MOL1         0.0833
      18    C7      19.606702   20.228573   23.833401 C.3        1 MOL1        -0.1684
      19    H12     19.135171   20.801594   24.643379 H          1 MOL1         0.0833
      20    H13     20.366836   20.902021   23.420662 H          1 MOL1         0.0833
      21    C8      20.257574   18.958277   24.436780 C.3        1 MOL1        -0.1684
      22    H14     19.725595   18.053534   24.120404 H          1 MOL1         0.0833
      23    H15     20.134659   18.985419   25.528121 H          1 MOL1         0.0833
      24    O1      17.846658   18.913940   20.706264 O.3        1 MOL1        -0.5508
      25    H16     17.875781   19.804216   20.299405 H          1 MOL1         0.3780
@<TRIPOS>BOND
    1     1     2    1
    2     1     3    1
    3     1     4    1
    4     4     5    1
    5     4     6    1
    6     4     7    1
    7     7     8    1
    8     7     9    1
    9     7    10    1
   10    10    11    1
   11    10    12    1
   12    10    13    1
   13    13    14    1
   14    13    15    1
   15    15    16    1
   16    15    17    1
   17    15    18    1
   18    18    19    1
   19    18    20    1
   20     1    21    1
   21    18    21    1
   22    21    22    1
   23    21    23    1
   24    13    24    1
   25    24    25    1
@<TRIPOS>SUBSTRUCTURE
       1 MOL1            1 RESIDUE      1      MOL     
@<SCITEGIC>MOL_PROPERTY
VConf Rank
SciTegic.value.IntegerValue
844

@<SCITEGIC>MOL_PROPERTY
Conf_Id
SciTegic.value.IntegerValue
167

@<SCITEGIC>MOL_PROPERTY
Delta U+W
SciTegic.value.DoubleValue
0.388

@<SCITEGIC>MOL_PROPERTY
U+W
SciTegic.value.DoubleValue
11.301

@<SCITEGIC>MOL_PROPERTY
Grad RMS
SciTegic.value.DoubleValue
0.000000

@<SCITEGIC>MOL_PROPERTY
U
SciTegic.value.DoubleValue
13.202

@<SCITEGIC>MOL_PROPERTY
W
SciTegic.value.DoubleValue
-1.901

@<SCITEGIC>MOL_PROPERTY
W(PB)
SciTegic.value.DoubleValue
-4.065

@<SCITEGIC>MOL_PROPERTY
W(SA)
SciTegic.value.DoubleValue
2.163

@<SCITEGIC>MOL_PROPERTY
Valence
SciTegic.value.DoubleValue
18.957

@<SCITEGIC>MOL_PROPERTY
Coulomb
SciTegic.value.DoubleValue
-8.753

@<SCITEGIC>MOL_PROPERTY
VdW
SciTegic.value.DoubleValue
2.998

@<SCITEGIC>MOL_PROPERTY
VdW6
SciTegic.value.DoubleValue
-12.294

@<SCITEGIC>MOL_PROPERTY
VdW12
SciTegic.value.DoubleValue
15.292

@<SCITEGIC>MOL_PROPERTY
Bond
SciTegic.value.DoubleValue
0.419

@<SCITEGIC>MOL_PROPERTY
Angle
SciTegic.value.DoubleValue
4.543

@<SCITEGIC>MOL_PROPERTY
Pdih
SciTegic.value.DoubleValue
13.996

@<SCITEGIC>MOL_PROPERTY
Idih
SciTegic.value.DoubleValue
0.000

@<SCITEGIC>MOL_PROPERTY
Tether
SciTegic.value.DoubleValue
0.000

@<TRIPOS>MOLECULE
guest-s17_confgen4.mol2 : confsearch ligand conformer 845
          25          25           1
SMALL
USER_CHARGES
 
@<TRIPOS>ATOM
       1    C1      20.434264   21.222983   23.201042 C.3        1 MOL1        -0.1684
       2    H1      19.701828   21.676114   23.882741 H          1 MOL1         0.0833
       3    H2      21.153713   22.019775   22.967732 H          1 MOL1         0.0833
       4    C2      19.718160   20.833087   21.881769 C.3        1 MOL1        -0.1684
       5    H3      18.732477   20.401878   22.089837 H          1 MOL1         0.0833
       6    H4      19.499364   21.767057   21.346175 H          1 MOL1         0.0833
       7    C3      20.525967   19.911260   20.931755 C.3        1 MOL1        -0.1684
       8    H5      21.605389   20.024749   21.095278 H          1 MOL1         0.0833
       9    H6      20.353071   20.262318   19.905222 H          1 MOL1         0.0833
      10    C4      20.117026   18.413488   20.972908 C.3        1 MOL1        -0.1760
      11    H7      19.042603   18.322676   20.766486 H          1 MOL1         0.0833
      12    H8      20.622378   17.910189   20.137985 H          1 MOL1         0.0833
      13    C5      20.455368   17.631162   22.266314 C.3        1 MOL1         0.1219
      14    H9      21.524178   17.750385   22.488997 H          1 MOL1         0.0790
      15    C6      19.612374   18.050262   23.498565 C.3        1 MOL1        -0.1760
      16    H10     18.683977   18.530766   23.173805 H          1 MOL1         0.0833
      17    H11     19.279952   17.152928   24.037294 H          1 MOL1         0.0833
      18    C7      20.351375   18.950308   24.522556 C.3        1 MOL1        -0.1684
      19    H12     21.016943   18.309432   25.116899 H          1 MOL1         0.0833
      20    H13     19.618960   19.358178   25.232318 H          1 MOL1         0.0833
      21    C8      21.207150   20.107715   23.949032 C.3        1 MOL1        -0.1684
      22    H14     22.013609   19.715280   23.319137 H          1 MOL1         0.0833
      23    H15     21.723583   20.580935   24.795307 H          1 MOL1         0.0833
      24    O1      20.208132   16.254613   22.005259 O.3        1 MOL1        -0.5508
      25    H16     20.490172   15.762304   22.804385 H          1 MOL1         0.3780
@<TRIPOS>BOND
    1     1     2    1
    2     1     3    1
    3     1     4    1
    4     4     5    1
    5     4     6    1
    6     4     7    1
    7     7     8    1
    8     7     9    1
    9     7    10    1
   10    10    11    1
   11    10    12    1
   12    10    13    1
   13    13    14    1
   14    13    15    1
   15    15    16    1
   16    15    17    1
   17    15    18    1
   18    18    19    1
   19    18    20    1
   20     1    21    1
   21    18    21    1
   22    21    22    1
   23    21    23    1
   24    13    24    1
   25    24    25    1
@<TRIPOS>SUBSTRUCTURE
       1 MOL1            1 RESIDUE      1      MOL     
@<SCITEGIC>MOL_PROPERTY
VConf Rank
SciTegic.value.IntegerValue
845

@<SCITEGIC>MOL_PROPERTY
Conf_Id
SciTegic.value.IntegerValue
60

@<SCITEGIC>MOL_PROPERTY
Delta U+W
SciTegic.value.DoubleValue
-1.838

@<SCITEGIC>MOL_PROPERTY
U+W
SciTegic.value.DoubleValue
9.075

@<SCITEGIC>MOL_PROPERTY
Grad RMS
SciTegic.value.DoubleValue
0.000000

@<SCITEGIC>MOL_PROPERTY
U
SciTegic.value.DoubleValue
11.150

@<SCITEGIC>MOL_PROPERTY
W
SciTegic.value.DoubleValue
-2.074

@<SCITEGIC>MOL_PROPERTY
W(PB)
SciTegic.value.DoubleValue
-4.196

@<SCITEGIC>MOL_PROPERTY
W(SA)
SciTegic.value.DoubleValue
2.121

@<SCITEGIC>MOL_PROPERTY
Valence
SciTegic.value.DoubleValue
16.582

@<SCITEGIC>MOL_PROPERTY
Coulomb
SciTegic.value.DoubleValue
-8.361

@<SCITEGIC>MOL_PROPERTY
VdW
SciTegic.value.DoubleValue
2.928

@<SCITEGIC>MOL_PROPERTY
VdW6
SciTegic.value.DoubleValue
-12.539

@<SCITEGIC>MOL_PROPERTY
VdW12
SciTegic.value.DoubleValue
15.467

@<SCITEGIC>MOL_PROPERTY
Bond
SciTegic.value.DoubleValue
0.441

@<SCITEGIC>MOL_PROPERTY
Angle
SciTegic.value.DoubleValue
5.093

@<SCITEGIC>MOL_PROPERTY
Pdih
SciTegic.value.DoubleValue
11.049

@<SCITEGIC>MOL_PROPERTY
Idih
SciTegic.value.DoubleValue
0.000

@<SCITEGIC>MOL_PROPERTY
Tether
SciTegic.value.DoubleValue
0.000

@<TRIPOS>MOLECULE
guest-s17_confgen4.mol2 : confsearch ligand conformer 846
          25          25           1
SMALL
USER_CHARGES
 
@<TRIPOS>ATOM
       1    C1      21.723894   18.008858   23.605613 C.3        1 MOL1        -0.1684
       2    H1      21.641857   16.913518   23.607554 H          1 MOL1         0.0833
       3    H2      22.619285   18.239514   24.198901 H          1 MOL1         0.0833
       4    C2      20.507782   18.613926   24.351019 C.3        1 MOL1        -0.1684
       5    H3      20.537286   18.236413   25.382249 H          1 MOL1         0.0833
       6    H4      20.624411   19.699004   24.451771 H          1 MOL1         0.0833
       7    C3      19.111813   18.267085   23.774962 C.3        1 MOL1        -0.1684
       8    H5      18.358979   18.664980   24.469125 H          1 MOL1         0.0833
       9    H6      18.977084   17.176975   23.782597 H          1 MOL1         0.0833
      10    C4      18.784577   18.804555   22.357639 C.3        1 MOL1        -0.1760
      11    H7      19.223664   18.152857   21.595559 H          1 MOL1         0.0833
      12    H8      17.700992   18.699101   22.213885 H          1 MOL1         0.0833
      13    C5      19.199188   20.277035   22.103424 C.3        1 MOL1         0.1219
      14    H9      19.337549   20.795151   23.061843 H          1 MOL1         0.0790
      15    C6      20.483863   20.434387   21.252392 C.3        1 MOL1        -0.1760
      16    H10     20.360054   19.889567   20.307361 H          1 MOL1         0.0833
      17    H11     20.571046   21.493116   20.974409 H          1 MOL1         0.0833
      18    C7      21.822544   20.014765   21.918802 C.3        1 MOL1        -0.1684
      19    H12     21.988564   20.577057   22.846722 H          1 MOL1         0.0833
      20    H13     22.629349   20.331174   21.243631 H          1 MOL1         0.0833
      21    C8      21.982901   18.490404   22.154291 C.3        1 MOL1        -0.1684
      22    H14     23.015840   18.213261   21.902771 H          1 MOL1         0.0833
      23    H15     21.369236   17.924881   21.444079 H          1 MOL1         0.0833
      24    O1      18.143812   20.921455   21.399814 O.3        1 MOL1        -0.5508
      25    H16     17.353144   20.876653   21.977182 H          1 MOL1         0.3780
@<TRIPOS>BOND
    1     1     2    1
    2     1     3    1
    3     1     4    1
    4     4     5    1
    5     4     6    1
    6     4     7    1
    7     7     8    1
    8     7     9    1
    9     7    10    1
   10    10    11    1
   11    10    12    1
   12    10    13    1
   13    13    14    1
   14    13    15    1
   15    15    16    1
   16    15    17    1
   17    15    18    1
   18    18    19    1
   19    18    20    1
   20     1    21    1
   21    18    21    1
   22    21    22    1
   23    21    23    1
   24    13    24    1
   25    24    25    1
@<TRIPOS>SUBSTRUCTURE
       1 MOL1            1 RESIDUE      1      MOL     
@<SCITEGIC>MOL_PROPERTY
VConf Rank
SciTegic.value.IntegerValue
846

@<SCITEGIC>MOL_PROPERTY
Conf_Id
SciTegic.value.IntegerValue
129

@<SCITEGIC>MOL_PROPERTY
Delta U+W
SciTegic.value.DoubleValue
-1.846

@<SCITEGIC>MOL_PROPERTY
U+W
SciTegic.value.DoubleValue
9.067

@<SCITEGIC>MOL_PROPERTY
Grad RMS
SciTegic.value.DoubleValue
0.000000

@<SCITEGIC>MOL_PROPERTY
U
SciTegic.value.DoubleValue
11.150

@<SCITEGIC>MOL_PROPERTY
W
SciTegic.value.DoubleValue
-2.083

@<SCITEGIC>MOL_PROPERTY
W(PB)
SciTegic.value.DoubleValue
-4.217

@<SCITEGIC>MOL_PROPERTY
W(SA)
SciTegic.value.DoubleValue
2.134

@<SCITEGIC>MOL_PROPERTY
Valence
SciTegic.value.DoubleValue
16.583

@<SCITEGIC>MOL_PROPERTY
Coulomb
SciTegic.value.DoubleValue
-8.361

@<SCITEGIC>MOL_PROPERTY
VdW
SciTegic.value.DoubleValue
2.928

@<SCITEGIC>MOL_PROPERTY
VdW6
SciTegic.value.DoubleValue
-12.539

@<SCITEGIC>MOL_PROPERTY
VdW12
SciTegic.value.DoubleValue
15.467

@<SCITEGIC>MOL_PROPERTY
Bond
SciTegic.value.DoubleValue
0.441

@<SCITEGIC>MOL_PROPERTY
Angle
SciTegic.value.DoubleValue
5.093

@<SCITEGIC>MOL_PROPERTY
Pdih
SciTegic.value.DoubleValue
11.049

@<SCITEGIC>MOL_PROPERTY
Idih
SciTegic.value.DoubleValue
0.000

@<SCITEGIC>MOL_PROPERTY
Tether
SciTegic.value.DoubleValue
0.000

@<TRIPOS>MOLECULE
guest-s17_confgen4.mol2 : confsearch ligand conformer 847
          25          25           1
SMALL
USER_CHARGES
 
@<TRIPOS>ATOM
       1    C1      18.291182   19.509166   22.122668 C.3        1 MOL1        -0.1684
       2    H1      17.620850   18.656377   21.949717 H          1 MOL1         0.0833
       3    H2      17.676588   20.405807   21.963830 H          1 MOL1         0.0833
       4    C2      19.402354   19.513472   21.043088 C.3        1 MOL1        -0.1684
       5    H3      18.908070   19.615974   20.067393 H          1 MOL1         0.0833
       6    H4      20.019807   20.414318   21.134890 H          1 MOL1         0.0833
       7    C3      20.293583   18.247995   20.975663 C.3        1 MOL1        -0.1684
       8    H5      20.946793   18.350351   20.098228 H          1 MOL1         0.0833
       9    H6      19.663554   17.370445   20.777004 H          1 MOL1         0.0833
      10    C4      21.192790   17.954640   22.204745 C.3        1 MOL1        -0.1760
      11    H7      20.612291   17.454297   22.986548 H          1 MOL1         0.0833
      12    H8      21.932948   17.207310   21.888076 H          1 MOL1         0.0833
      13    C5      21.929413   19.188046   22.788417 C.3        1 MOL1         0.1219
      14    H9      21.974359   19.983902   22.033127 H          1 MOL1         0.0790
      15    C6      21.298344   19.751141   24.086713 C.3        1 MOL1        -0.1760
      16    H10     21.223864   18.950431   24.834063 H          1 MOL1         0.0833
      17    H11     21.998433   20.486106   24.506162 H          1 MOL1         0.0833
      18    C7      19.918690   20.450268   23.949619 C.3        1 MOL1        -0.1684
      19    H12     19.973809   21.284951   23.238944 H          1 MOL1         0.0833
      20    H13     19.696790   20.914758   24.920173 H          1 MOL1         0.0833
      21    C8      18.740723   19.501933   23.606686 C.3        1 MOL1        -0.1684
      22    H14     17.872425   19.804780   24.207846 H          1 MOL1         0.0833
      23    H15     18.959056   18.480852   23.939137 H          1 MOL1         0.0833
      24    O1      23.262518   18.803143   23.099615 O.3        1 MOL1        -0.5508
      25    H16     23.196136   18.097949   23.775809 H          1 MOL1         0.3780
@<TRIPOS>BOND
    1     1     2    1
    2     1     3    1
    3     1     4    1
    4     4     5    1
    5     4     6    1
    6     4     7    1
    7     7     8    1
    8     7     9    1
    9     7    10    1
   10    10    11    1
   11    10    12    1
   12    10    13    1
   13    13    14    1
   14    13    15    1
   15    15    16    1
   16    15    17    1
   17    15    18    1
   18    18    19    1
   19    18    20    1
   20     1    21    1
   21    18    21    1
   22    21    22    1
   23    21    23    1
   24    13    24    1
   25    24    25    1
@<TRIPOS>SUBSTRUCTURE
       1 MOL1            1 RESIDUE      1      MOL     
@<SCITEGIC>MOL_PROPERTY
VConf Rank
SciTegic.value.IntegerValue
847

@<SCITEGIC>MOL_PROPERTY
Conf_Id
SciTegic.value.IntegerValue
140

@<SCITEGIC>MOL_PROPERTY
Delta U+W
SciTegic.value.DoubleValue
-1.702

@<SCITEGIC>MOL_PROPERTY
U+W
SciTegic.value.DoubleValue
9.211

@<SCITEGIC>MOL_PROPERTY
Grad RMS
SciTegic.value.DoubleValue
0.000000

@<SCITEGIC>MOL_PROPERTY
U
SciTegic.value.DoubleValue
11.181

@<SCITEGIC>MOL_PROPERTY
W
SciTegic.value.DoubleValue
-1.969

@<SCITEGIC>MOL_PROPERTY
W(PB)
SciTegic.value.DoubleValue
-4.093

@<SCITEGIC>MOL_PROPERTY
W(SA)
SciTegic.value.DoubleValue
2.124

@<SCITEGIC>MOL_PROPERTY
Valence
SciTegic.value.DoubleValue
16.954

@<SCITEGIC>MOL_PROPERTY
Coulomb
SciTegic.value.DoubleValue
-8.661

@<SCITEGIC>MOL_PROPERTY
VdW
SciTegic.value.DoubleValue
2.887

@<SCITEGIC>MOL_PROPERTY
VdW6
SciTegic.value.DoubleValue
-12.561

@<SCITEGIC>MOL_PROPERTY
VdW12
SciTegic.value.DoubleValue
15.448

@<SCITEGIC>MOL_PROPERTY
Bond
SciTegic.value.DoubleValue
0.433

@<SCITEGIC>MOL_PROPERTY
Angle
SciTegic.value.DoubleValue
5.120

@<SCITEGIC>MOL_PROPERTY
Pdih
SciTegic.value.DoubleValue
11.401

@<SCITEGIC>MOL_PROPERTY
Idih
SciTegic.value.DoubleValue
0.000

@<SCITEGIC>MOL_PROPERTY
Tether
SciTegic.value.DoubleValue
0.000

@<TRIPOS>MOLECULE
guest-s17_confgen4.mol2 : confsearch ligand conformer 848
          25          25           1
SMALL
USER_CHARGES
 
@<TRIPOS>ATOM
       1    C1      18.385782   18.536818   22.144228 C.3        1 MOL1        -0.1684
       2    H1      17.499967   19.127164   22.415027 H          1 MOL1         0.0833
       3    H2      18.002025   17.649558   21.622290 H          1 MOL1         0.0833
       4    C2      19.084695   18.055464   23.442021 C.3        1 MOL1        -0.1684
       5    H3      19.092695   18.851937   24.194596 H          1 MOL1         0.0833
       6    H4      18.448955   17.273348   23.879263 H          1 MOL1         0.0833
       7    C3      20.508064   17.469878   23.253189 C.3        1 MOL1        -0.1684
       8    H5      20.642158   17.077045   22.237071 H          1 MOL1         0.0833
       9    H6      20.595289   16.595170   23.912159 H          1 MOL1         0.0833
      10    C4      21.664331   18.436294   23.627491 C.3        1 MOL1        -0.1760
      11    H7      21.527303   18.778699   24.661511 H          1 MOL1         0.0833
      12    H8      22.593831   17.851260   23.628001 H          1 MOL1         0.0833
      13    C5      21.879736   19.660796   22.702782 C.3        1 MOL1         0.1219
      14    H9      21.985978   19.316694   21.665391 H          1 MOL1         0.0790
      15    C6      20.758035   20.728153   22.787070 C.3        1 MOL1        -0.1760
      16    H10     20.223833   20.642869   23.738855 H          1 MOL1         0.0833
      17    H11     21.211284   21.728422   22.812409 H          1 MOL1         0.0833
      18    C7      19.752431   20.718291   21.606419 C.3        1 MOL1        -0.1684
      19    H12     20.236391   21.205424   20.748785 H          1 MOL1         0.0833
      20    H13     18.893814   21.353126   21.863830 H          1 MOL1         0.0833
      21    C8      19.242040   19.335370   21.129660 C.3        1 MOL1        -0.1684
      22    H14     20.074925   18.721960   20.767399 H          1 MOL1         0.0833
      23    H15     18.618855   19.506837   20.241379 H          1 MOL1         0.0833
      24    O1      23.104208   20.271647   23.089678 O.3        1 MOL1        -0.5508
      25    H16     22.986116   20.565393   24.016345 H          1 MOL1         0.3780
@<TRIPOS>BOND
    1     1     2    1
    2     1     3    1
    3     1     4    1
    4     4     5    1
    5     4     6    1
    6     4     7    1
    7     7     8    1
    8     7     9    1
    9     7    10    1
   10    10    11    1
   11    10    12    1
   12    10    13    1
   13    13    14    1
   14    13    15    1
   15    15    16    1
   16    15    17    1
   17    15    18    1
   18    18    19    1
   19    18    20    1
   20     1    21    1
   21    18    21    1
   22    21    22    1
   23    21    23    1
   24    13    24    1
   25    24    25    1
@<TRIPOS>SUBSTRUCTURE
       1 MOL1            1 RESIDUE      1      MOL     
@<SCITEGIC>MOL_PROPERTY
VConf Rank
SciTegic.value.IntegerValue
848

@<SCITEGIC>MOL_PROPERTY
Conf_Id
SciTegic.value.IntegerValue
68

@<SCITEGIC>MOL_PROPERTY
Delta U+W
SciTegic.value.DoubleValue
-1.765

@<SCITEGIC>MOL_PROPERTY
U+W
SciTegic.value.DoubleValue
9.148

@<SCITEGIC>MOL_PROPERTY
Grad RMS
SciTegic.value.DoubleValue
0.000000

@<SCITEGIC>MOL_PROPERTY
U
SciTegic.value.DoubleValue
11.181

@<SCITEGIC>MOL_PROPERTY
W
SciTegic.value.DoubleValue
-2.032

@<SCITEGIC>MOL_PROPERTY
W(PB)
SciTegic.value.DoubleValue
-4.147

@<SCITEGIC>MOL_PROPERTY
W(SA)
SciTegic.value.DoubleValue
2.114

@<SCITEGIC>MOL_PROPERTY
Valence
SciTegic.value.DoubleValue
16.955

@<SCITEGIC>MOL_PROPERTY
Coulomb
SciTegic.value.DoubleValue
-8.661

@<SCITEGIC>MOL_PROPERTY
VdW
SciTegic.value.DoubleValue
2.887

@<SCITEGIC>MOL_PROPERTY
VdW6
SciTegic.value.DoubleValue
-12.561

@<SCITEGIC>MOL_PROPERTY
VdW12
SciTegic.value.DoubleValue
15.448

@<SCITEGIC>MOL_PROPERTY
Bond
SciTegic.value.DoubleValue
0.433

@<SCITEGIC>MOL_PROPERTY
Angle
SciTegic.value.DoubleValue
5.121

@<SCITEGIC>MOL_PROPERTY
Pdih
SciTegic.value.DoubleValue
11.402

@<SCITEGIC>MOL_PROPERTY
Idih
SciTegic.value.DoubleValue
0.000

@<SCITEGIC>MOL_PROPERTY
Tether
SciTegic.value.DoubleValue
0.000

@<TRIPOS>MOLECULE
guest-s17_confgen4.mol2 : confsearch ligand conformer 849
          25          25           1
SMALL
USER_CHARGES
 
@<TRIPOS>ATOM
       1    C1      19.236676   17.620232   22.746028 C.3        1 MOL1        -0.1684
       2    H1      18.675397   16.677904   22.682303 H          1 MOL1         0.0833
       3    H2      18.857398   18.100896   23.654875 H          1 MOL1         0.0833
       4    C2      18.892883   18.470344   21.495261 C.3        1 MOL1        -0.1684
       5    H3      19.635328   18.323127   20.700454 H          1 MOL1         0.0833
       6    H4      17.951442   18.083345   21.081811 H          1 MOL1         0.0833
       7    C3      18.677133   19.981083   21.774043 C.3        1 MOL1        -0.1684
       8    H5      17.896627   20.102850   22.537625 H          1 MOL1         0.0833
       9    H6      18.268137   20.433788   20.860471 H          1 MOL1         0.0833
      10    C4      19.929765   20.799301   22.186336 C.3        1 MOL1        -0.1760
      11    H7      20.710147   20.714129   21.420630 H          1 MOL1         0.0833
      12    H8      19.632881   21.856854   22.178982 H          1 MOL1         0.0833
      13    C5      20.490495   20.452905   23.590074 C.3        1 MOL1         0.1219
      14    H9      19.709566   19.950899   24.172899 H          1 MOL1         0.0790
      15    C6      21.763302   19.570909   23.580714 C.3        1 MOL1        -0.1760
      16    H10     22.623245   20.202858   23.322422 H          1 MOL1         0.0833
      17    H11     21.946997   19.216996   24.603498 H          1 MOL1         0.0833
      18    C7      21.776012   18.356168   22.617229 C.3        1 MOL1        -0.1684
      19    H12     22.770875   17.895357   22.685224 H          1 MOL1         0.0833
      20    H13     21.697239   18.691275   21.576649 H          1 MOL1         0.0833
      21    C8      20.733441   17.247197   22.905966 C.3        1 MOL1        -0.1684
      22    H14     20.895762   16.850119   23.917187 H          1 MOL1         0.0833
      23    H15     20.944916   16.413034   22.222997 H          1 MOL1         0.0833
      24    O1      20.815255   21.664827   24.259745 O.3        1 MOL1        -0.5508
      25    H16     21.499681   22.106737   23.716453 H          1 MOL1         0.3780
@<TRIPOS>BOND
    1     1     2    1
    2     1     3    1
    3     1     4    1
    4     4     5    1
    5     4     6    1
    6     4     7    1
    7     7     8    1
    8     7     9    1
    9     7    10    1
   10    10    11    1
   11    10    12    1
   12    10    13    1
   13    13    14    1
   14    13    15    1
   15    15    16    1
   16    15    17    1
   17    15    18    1
   18    18    19    1
   19    18    20    1
   20     1    21    1
   21    18    21    1
   22    21    22    1
   23    21    23    1
   24    13    24    1
   25    24    25    1
@<TRIPOS>SUBSTRUCTURE
       1 MOL1            1 RESIDUE      1      MOL     
@<SCITEGIC>MOL_PROPERTY
VConf Rank
SciTegic.value.IntegerValue
849

@<SCITEGIC>MOL_PROPERTY
Conf_Id
SciTegic.value.IntegerValue
165

@<SCITEGIC>MOL_PROPERTY
Delta U+W
SciTegic.value.DoubleValue
-1.999

@<SCITEGIC>MOL_PROPERTY
U+W
SciTegic.value.DoubleValue
8.915

@<SCITEGIC>MOL_PROPERTY
Grad RMS
SciTegic.value.DoubleValue
0.000000

@<SCITEGIC>MOL_PROPERTY
U
SciTegic.value.DoubleValue
10.935

@<SCITEGIC>MOL_PROPERTY
W
SciTegic.value.DoubleValue
-2.020

@<SCITEGIC>MOL_PROPERTY
W(PB)
SciTegic.value.DoubleValue
-4.135

@<SCITEGIC>MOL_PROPERTY
W(SA)
SciTegic.value.DoubleValue
2.115

@<SCITEGIC>MOL_PROPERTY
Valence
SciTegic.value.DoubleValue
16.757

@<SCITEGIC>MOL_PROPERTY
Coulomb
SciTegic.value.DoubleValue
-8.731

@<SCITEGIC>MOL_PROPERTY
VdW
SciTegic.value.DoubleValue
2.908

@<SCITEGIC>MOL_PROPERTY
VdW6
SciTegic.value.DoubleValue
-12.597

@<SCITEGIC>MOL_PROPERTY
VdW12
SciTegic.value.DoubleValue
15.506

@<SCITEGIC>MOL_PROPERTY
Bond
SciTegic.value.DoubleValue
0.434

@<SCITEGIC>MOL_PROPERTY
Angle
SciTegic.value.DoubleValue
5.069

@<SCITEGIC>MOL_PROPERTY
Pdih
SciTegic.value.DoubleValue
11.254

@<SCITEGIC>MOL_PROPERTY
Idih
SciTegic.value.DoubleValue
0.000

@<SCITEGIC>MOL_PROPERTY
Tether
SciTegic.value.DoubleValue
0.000

@<TRIPOS>MOLECULE
guest-s17_confgen4.mol2 : confsearch ligand conformer 850
          25          25           1
SMALL
USER_CHARGES
 
@<TRIPOS>ATOM
       1    C1      21.962506   18.418124   22.426246 C.3        1 MOL1        -0.1684
       2    H1      22.953226   17.945941   22.375243 H          1 MOL1         0.0833
       3    H2      21.688781   18.587504   21.378779 H          1 MOL1         0.0833
       4    C2      22.140164   19.765982   23.172683 C.3        1 MOL1        -0.1684
       5    H3      22.820248   19.592595   24.017922 H          1 MOL1         0.0833
       6    H4      22.662042   20.472756   22.513379 H          1 MOL1         0.0833
       7    C3      20.863850   20.438279   23.737818 C.3        1 MOL1        -0.1684
       8    H5      21.184159   21.318731   24.311323 H          1 MOL1         0.0833
       9    H6      20.385429   19.786039   24.477405 H          1 MOL1         0.0833
      10    C4      19.827580   20.921627   22.690655 C.3        1 MOL1        -0.1760
      11    H7      19.042833   21.466924   23.232262 H          1 MOL1         0.0833
      12    H8      20.306601   21.656477   22.030918 H          1 MOL1         0.0833
      13    C5      19.148559   19.838959   21.816286 C.3        1 MOL1         0.1219
      14    H9      19.841356   19.524609   21.026934 H          1 MOL1         0.0790
      15    C6      18.670229   18.586092   22.594559 C.3        1 MOL1        -0.1760
      16    H10     18.522111   18.818704   23.655724 H          1 MOL1         0.0833
      17    H11     17.675712   18.305299   22.222239 H          1 MOL1         0.0833
      18    C7      19.581151   17.339830   22.433179 C.3        1 MOL1        -0.1684
      19    H12     19.690261   17.106109   21.365257 H          1 MOL1         0.0833
      20    H13     19.052958   16.481284   22.869852 H          1 MOL1         0.0833
      21    C8      20.984796   17.413520   23.089850 C.3        1 MOL1        -0.1684
      22    H14     21.431111   16.413248   23.004586 H          1 MOL1         0.0833
      23    H15     20.900674   17.597326   24.168621 H          1 MOL1         0.0833
      24    O1      18.020193   20.441400   21.192293 O.3        1 MOL1        -0.5508
      25    H16     18.357008   21.201229   20.673010 H          1 MOL1         0.3780
@<TRIPOS>BOND
    1     1     2    1
    2     1     3    1
    3     1     4    1
    4     4     5    1
    5     4     6    1
    6     4     7    1
    7     7     8    1
    8     7     9    1
    9     7    10    1
   10    10    11    1
   11    10    12    1
   12    10    13    1
   13    13    14    1
   14    13    15    1
   15    15    16    1
   16    15    17    1
   17    15    18    1
   18    18    19    1
   19    18    20    1
   20     1    21    1
   21    18    21    1
   22    21    22    1
   23    21    23    1
   24    13    24    1
   25    24    25    1
@<TRIPOS>SUBSTRUCTURE
       1 MOL1            1 RESIDUE      1      MOL     
@<SCITEGIC>MOL_PROPERTY
VConf Rank
SciTegic.value.IntegerValue
850

@<SCITEGIC>MOL_PROPERTY
Conf_Id
SciTegic.value.IntegerValue
133

@<SCITEGIC>MOL_PROPERTY
Delta U+W
SciTegic.value.DoubleValue
-2.139

@<SCITEGIC>MOL_PROPERTY
U+W
SciTegic.value.DoubleValue
8.774

@<SCITEGIC>MOL_PROPERTY
Grad RMS
SciTegic.value.DoubleValue
0.000000

@<SCITEGIC>MOL_PROPERTY
U
SciTegic.value.DoubleValue
10.905

@<SCITEGIC>MOL_PROPERTY
W
SciTegic.value.DoubleValue
-2.131

@<SCITEGIC>MOL_PROPERTY
W(PB)
SciTegic.value.DoubleValue
-4.281

@<SCITEGIC>MOL_PROPERTY
W(SA)
SciTegic.value.DoubleValue
2.150

@<SCITEGIC>MOL_PROPERTY
Valence
SciTegic.value.DoubleValue
16.378

@<SCITEGIC>MOL_PROPERTY
Coulomb
SciTegic.value.DoubleValue
-8.448

@<SCITEGIC>MOL_PROPERTY
VdW
SciTegic.value.DoubleValue
2.976

@<SCITEGIC>MOL_PROPERTY
VdW6
SciTegic.value.DoubleValue
-12.570

@<SCITEGIC>MOL_PROPERTY
VdW12
SciTegic.value.DoubleValue
15.545

@<SCITEGIC>MOL_PROPERTY
Bond
SciTegic.value.DoubleValue
0.439

@<SCITEGIC>MOL_PROPERTY
Angle
SciTegic.value.DoubleValue
5.049

@<SCITEGIC>MOL_PROPERTY
Pdih
SciTegic.value.DoubleValue
10.889

@<SCITEGIC>MOL_PROPERTY
Idih
SciTegic.value.DoubleValue
0.000

@<SCITEGIC>MOL_PROPERTY
Tether
SciTegic.value.DoubleValue
0.000

@<TRIPOS>MOLECULE
guest-s17_confgen4.mol2 : confsearch ligand conformer 851
          25          25           1
SMALL
USER_CHARGES
 
@<TRIPOS>ATOM
       1    C1      20.936592   20.761006   23.446919 C.3        1 MOL1        -0.1684
       2    H1      21.366365   21.692287   23.840742 H          1 MOL1         0.0833
       3    H2      20.477856   20.283717   24.320165 H          1 MOL1         0.0833
       4    C2      22.096820   19.891196   22.896623 C.3        1 MOL1        -0.1684
       5    H3      22.228991   20.044648   21.817924 H          1 MOL1         0.0833
       6    H4      23.027492   20.255342   23.352975 H          1 MOL1         0.0833
       7    C3      21.991862   18.379340   23.228506 C.3        1 MOL1        -0.1684
       8    H5      21.910425   18.249878   24.316438 H          1 MOL1         0.0833
       9    H6      22.943648   17.908811   22.946585 H          1 MOL1         0.0833
      10    C4      20.850994   17.590699   22.531759 C.3        1 MOL1        -0.1760
      11    H7      20.931901   17.680587   21.442037 H          1 MOL1         0.0833
      12    H8      21.022207   16.526669   22.744027 H          1 MOL1         0.0833
      13    C5      19.424276   17.962300   23.011936 C.3        1 MOL1         0.1219
      14    H9      19.494693   18.456739   23.987860 H          1 MOL1         0.0790
      15    C6      18.630315   18.866395   22.037263 C.3        1 MOL1        -0.1760
      16    H10     18.268733   18.242791   21.208474 H          1 MOL1         0.0833
      17    H11     17.733839   19.235563   22.551814 H          1 MOL1         0.0833
      18    C7      19.383576   20.071313   21.416944 C.3        1 MOL1        -0.1684
      19    H12     18.700618   20.551394   20.702948 H          1 MOL1         0.0833
      20    H13     20.223628   19.723873   20.804660 H          1 MOL1         0.0833
      21    C8      19.856096   21.163089   22.409463 C.3        1 MOL1        -0.1684
      22    H14     18.986317   21.572632   22.940809 H          1 MOL1         0.0833
      23    H15     20.257595   21.994683   21.814269 H          1 MOL1         0.0833
      24    O1      18.678308   16.762435   23.183304 O.3        1 MOL1        -0.5508
      25    H16     17.799223   17.023527   23.528962 H          1 MOL1         0.3780
@<TRIPOS>BOND
    1     1     2    1
    2     1     3    1
    3     1     4    1
    4     4     5    1
    5     4     6    1
    6     4     7    1
    7     7     8    1
    8     7     9    1
    9     7    10    1
   10    10    11    1
   11    10    12    1
   12    10    13    1
   13    13    14    1
   14    13    15    1
   15    15    16    1
   16    15    17    1
   17    15    18    1
   18    18    19    1
   19    18    20    1
   20     1    21    1
   21    18    21    1
   22    21    22    1
   23    21    23    1
   24    13    24    1
   25    24    25    1
@<TRIPOS>SUBSTRUCTURE
       1 MOL1            1 RESIDUE      1      MOL     
@<SCITEGIC>MOL_PROPERTY
VConf Rank
SciTegic.value.IntegerValue
851

@<SCITEGIC>MOL_PROPERTY
Conf_Id
SciTegic.value.IntegerValue
95

@<SCITEGIC>MOL_PROPERTY
Delta U+W
SciTegic.value.DoubleValue
-2.190

@<SCITEGIC>MOL_PROPERTY
U+W
SciTegic.value.DoubleValue
8.723

@<SCITEGIC>MOL_PROPERTY
Grad RMS
SciTegic.value.DoubleValue
0.000000

@<SCITEGIC>MOL_PROPERTY
U
SciTegic.value.DoubleValue
10.905

@<SCITEGIC>MOL_PROPERTY
W
SciTegic.value.DoubleValue
-2.182

@<SCITEGIC>MOL_PROPERTY
W(PB)
SciTegic.value.DoubleValue
-4.296

@<SCITEGIC>MOL_PROPERTY
W(SA)
SciTegic.value.DoubleValue
2.114

@<SCITEGIC>MOL_PROPERTY
Valence
SciTegic.value.DoubleValue
16.377

@<SCITEGIC>MOL_PROPERTY
Coulomb
SciTegic.value.DoubleValue
-8.448

@<SCITEGIC>MOL_PROPERTY
VdW
SciTegic.value.DoubleValue
2.976

@<SCITEGIC>MOL_PROPERTY
VdW6
SciTegic.value.DoubleValue
-12.570

@<SCITEGIC>MOL_PROPERTY
VdW12
SciTegic.value.DoubleValue
15.546

@<SCITEGIC>MOL_PROPERTY
Bond
SciTegic.value.DoubleValue
0.439

@<SCITEGIC>MOL_PROPERTY
Angle
SciTegic.value.DoubleValue
5.049

@<SCITEGIC>MOL_PROPERTY
Pdih
SciTegic.value.DoubleValue
10.889

@<SCITEGIC>MOL_PROPERTY
Idih
SciTegic.value.DoubleValue
0.000

@<SCITEGIC>MOL_PROPERTY
Tether
SciTegic.value.DoubleValue
0.000

@<TRIPOS>MOLECULE
guest-s17_confgen4.mol2 : confsearch ligand conformer 852
          25          25           1
SMALL
USER_CHARGES
 
@<TRIPOS>ATOM
       1    C1      19.558860   17.545241   23.040186 C.3        1 MOL1        -0.1684
       2    H1      19.204839   16.517817   23.201339 H          1 MOL1         0.0833
       3    H2      18.686869   18.156801   23.292892 H          1 MOL1         0.0833
       4    C2      19.910596   17.673722   21.528897 C.3        1 MOL1        -0.1684
       5    H3      20.314938   16.705587   21.203071 H          1 MOL1         0.0833
       6    H4      18.982546   17.809553   20.957280 H          1 MOL1         0.0833
       7    C3      20.936988   18.756693   21.104411 C.3        1 MOL1        -0.1684
       8    H5      21.144095   18.617251   20.034608 H          1 MOL1         0.0833
       9    H6      21.900186   18.548223   21.580664 H          1 MOL1         0.0833
      10    C4      20.530938   20.247420   21.302854 C.3        1 MOL1        -0.1760
      11    H7      21.439438   20.863701   21.316958 H          1 MOL1         0.0833
      12    H8      19.979292   20.552337   20.403980 H          1 MOL1         0.0833
      13    C5      19.652607   20.611976   22.526506 C.3        1 MOL1         0.1219
      14    H9      18.731940   20.021964   22.471046 H          1 MOL1         0.0790
      15    C6      20.296469   20.440474   23.932430 C.3        1 MOL1        -0.1760
      16    H10     20.851029   21.359669   24.164504 H          1 MOL1         0.0833
      17    H11     19.491059   20.386315   24.675848 H          1 MOL1         0.0833
      18    C7      21.273315   19.255218   24.160371 C.3        1 MOL1        -0.1684
      19    H12     21.700139   19.365998   25.166483 H          1 MOL1         0.0833
      20    H13     22.139735   19.368839   23.501222 H          1 MOL1         0.0833
      21    C8      20.691016   17.814525   24.066366 C.3        1 MOL1        -0.1684
      22    H14     20.293162   17.555650   25.057105 H          1 MOL1         0.0833
      23    H15     21.514441   17.109600   23.888897 H          1 MOL1         0.0833
      24    O1      19.285673   21.980312   22.393725 O.3        1 MOL1        -0.5508
      25    H16     18.822909   22.067061   21.534434 H          1 MOL1         0.3780
@<TRIPOS>BOND
    1     1     2    1
    2     1     3    1
    3     1     4    1
    4     4     5    1
    5     4     6    1
    6     4     7    1
    7     7     8    1
    8     7     9    1
    9     7    10    1
   10    10    11    1
   11    10    12    1
   12    10    13    1
   13    13    14    1
   14    13    15    1
   15    15    16    1
   16    15    17    1
   17    15    18    1
   18    18    19    1
   19    18    20    1
   20     1    21    1
   21    18    21    1
   22    21    22    1
   23    21    23    1
   24    13    24    1
   25    24    25    1
@<TRIPOS>SUBSTRUCTURE
       1 MOL1            1 RESIDUE      1      MOL     
@<SCITEGIC>MOL_PROPERTY
VConf Rank
SciTegic.value.IntegerValue
852

@<SCITEGIC>MOL_PROPERTY
Conf_Id
SciTegic.value.IntegerValue
161

@<SCITEGIC>MOL_PROPERTY
Delta U+W
SciTegic.value.DoubleValue
2.120

@<SCITEGIC>MOL_PROPERTY
U+W
SciTegic.value.DoubleValue
13.033

@<SCITEGIC>MOL_PROPERTY
Grad RMS
SciTegic.value.DoubleValue
0.000000

@<SCITEGIC>MOL_PROPERTY
U
SciTegic.value.DoubleValue
15.076

@<SCITEGIC>MOL_PROPERTY
W
SciTegic.value.DoubleValue
-2.043

@<SCITEGIC>MOL_PROPERTY
W(PB)
SciTegic.value.DoubleValue
-4.186

@<SCITEGIC>MOL_PROPERTY
W(SA)
SciTegic.value.DoubleValue
2.143

@<SCITEGIC>MOL_PROPERTY
Valence
SciTegic.value.DoubleValue
18.884

@<SCITEGIC>MOL_PROPERTY
Coulomb
SciTegic.value.DoubleValue
-8.074

@<SCITEGIC>MOL_PROPERTY
VdW
SciTegic.value.DoubleValue
4.266

@<SCITEGIC>MOL_PROPERTY
VdW6
SciTegic.value.DoubleValue
-13.486

@<SCITEGIC>MOL_PROPERTY
VdW12
SciTegic.value.DoubleValue
17.752

@<SCITEGIC>MOL_PROPERTY
Bond
SciTegic.value.DoubleValue
0.713

@<SCITEGIC>MOL_PROPERTY
Angle
SciTegic.value.DoubleValue
8.955

@<SCITEGIC>MOL_PROPERTY
Pdih
SciTegic.value.DoubleValue
9.215

@<SCITEGIC>MOL_PROPERTY
Idih
SciTegic.value.DoubleValue
0.000

@<SCITEGIC>MOL_PROPERTY
Tether
SciTegic.value.DoubleValue
0.000

@<TRIPOS>MOLECULE
guest-s17_confgen4.mol2 : confsearch ligand conformer 853
          25          25           1
SMALL
USER_CHARGES
 
@<TRIPOS>ATOM
       1    C1      21.082637   17.417107   22.998173 C.3        1 MOL1        -0.1684
       2    H1      21.576333   16.537370   23.433275 H          1 MOL1         0.0833
       3    H2      20.948066   17.166365   21.938336 H          1 MOL1         0.0833
       4    C2      22.044437   18.623381   23.137885 C.3        1 MOL1        -0.1684
       5    H3      21.919356   19.111373   24.113797 H          1 MOL1         0.0833
       6    H4      23.065282   18.217191   23.145281 H          1 MOL1         0.0833
       7    C3      21.980583   19.657766   21.979739 C.3        1 MOL1        -0.1684
       8    H5      21.824364   19.160995   21.012733 H          1 MOL1         0.0833
       9    H6      22.975391   20.119177   21.911484 H          1 MOL1         0.0833
      10    C4      20.963625   20.811572   22.177223 C.3        1 MOL1        -0.1760
      11    H7      20.899940   21.073671   23.240340 H          1 MOL1         0.0833
      12    H8      21.374718   21.705432   21.689729 H          1 MOL1         0.0833
      13    C5      19.552638   20.591622   21.575086 C.3        1 MOL1         0.1219
      14    H9      19.643339   20.630006   20.480064 H          1 MOL1         0.0790
      15    C6      18.850295   19.262007   21.935260 C.3        1 MOL1        -0.1760
      16    H10     17.794919   19.339770   21.641633 H          1 MOL1         0.0833
      17    H11     19.251674   18.464330   21.300935 H          1 MOL1         0.0833
      18    C7      18.925017   18.868191   23.434778 C.3        1 MOL1        -0.1684
      19    H12     17.903417   18.740355   23.817819 H          1 MOL1         0.0833
      20    H13     19.352393   19.677711   24.037378 H          1 MOL1         0.0833
      21    C8      19.708647   17.561357   23.704576 C.3        1 MOL1        -0.1684
      22    H14     19.082377   16.707652   23.411687 H          1 MOL1         0.0833
      23    H15     19.855301   17.465927   24.789089 H          1 MOL1         0.0833
      24    O1      18.721824   21.661665   22.003012 O.3        1 MOL1        -0.5508
      25    H16     18.556371   21.508064   22.955294 H          1 MOL1         0.3780
@<TRIPOS>BOND
    1     1     2    1
    2     1     3    1
    3     1     4    1
    4     4     5    1
    5     4     6    1
    6     4     7    1
    7     7     8    1
    8     7     9    1
    9     7    10    1
   10    10    11    1
   11    10    12    1
   12    10    13    1
   13    13    14    1
   14    13    15    1
   15    15    16    1
   16    15    17    1
   17    15    18    1
   18    18    19    1
   19    18    20    1
   20     1    21    1
   21    18    21    1
   22    21    22    1
   23    21    23    1
   24    13    24    1
   25    24    25    1
@<TRIPOS>SUBSTRUCTURE
       1 MOL1            1 RESIDUE      1      MOL     
@<SCITEGIC>MOL_PROPERTY
VConf Rank
SciTegic.value.IntegerValue
853

@<SCITEGIC>MOL_PROPERTY
Conf_Id
SciTegic.value.IntegerValue
164

@<SCITEGIC>MOL_PROPERTY
Delta U+W
SciTegic.value.DoubleValue
0.008

@<SCITEGIC>MOL_PROPERTY
U+W
SciTegic.value.DoubleValue
10.922

@<SCITEGIC>MOL_PROPERTY
Grad RMS
SciTegic.value.DoubleValue
0.000000

@<SCITEGIC>MOL_PROPERTY
U
SciTegic.value.DoubleValue
12.433

@<SCITEGIC>MOL_PROPERTY
W
SciTegic.value.DoubleValue
-1.511

@<SCITEGIC>MOL_PROPERTY
W(PB)
SciTegic.value.DoubleValue
-3.669

@<SCITEGIC>MOL_PROPERTY
W(SA)
SciTegic.value.DoubleValue
2.157

@<SCITEGIC>MOL_PROPERTY
Valence
SciTegic.value.DoubleValue
19.007

@<SCITEGIC>MOL_PROPERTY
Coulomb
SciTegic.value.DoubleValue
-9.373

@<SCITEGIC>MOL_PROPERTY
VdW
SciTegic.value.DoubleValue
2.799

@<SCITEGIC>MOL_PROPERTY
VdW6
SciTegic.value.DoubleValue
-12.597

@<SCITEGIC>MOL_PROPERTY
VdW12
SciTegic.value.DoubleValue
15.396

@<SCITEGIC>MOL_PROPERTY
Bond
SciTegic.value.DoubleValue
0.425

@<SCITEGIC>MOL_PROPERTY
Angle
SciTegic.value.DoubleValue
4.784

@<SCITEGIC>MOL_PROPERTY
Pdih
SciTegic.value.DoubleValue
13.799

@<SCITEGIC>MOL_PROPERTY
Idih
SciTegic.value.DoubleValue
0.000

@<SCITEGIC>MOL_PROPERTY
Tether
SciTegic.value.DoubleValue
0.000

@<TRIPOS>MOLECULE
guest-s17_confgen4.mol2 : confsearch ligand conformer 854
          25          25           1
SMALL
USER_CHARGES
 
@<TRIPOS>ATOM
       1    C1      20.841144   20.905839   22.240423 C.3        1 MOL1        -0.1684
       2    H1      20.823591   20.379616   21.279328 H          1 MOL1         0.0833
       3    H2      21.161412   21.926506   21.990743 H          1 MOL1         0.0833
       4    C2      21.922210   20.299084   23.169327 C.3        1 MOL1        -0.1684
       5    H3      22.890356   20.407021   22.661445 H          1 MOL1         0.0833
       6    H4      21.997143   20.904545   24.082732 H          1 MOL1         0.0833
       7    C3      21.758627   18.809407   23.565392 C.3        1 MOL1        -0.1684
       8    H5      21.070296   18.709566   24.412325 H          1 MOL1         0.0833
       9    H6      22.727296   18.470238   23.957371 H          1 MOL1         0.0833
      10    C4      21.343139   17.858602   22.411218 C.3        1 MOL1        -0.1760
      11    H7      21.636040   18.270991   21.438118 H          1 MOL1         0.0833
      12    H8      21.927394   16.935342   22.522913 H          1 MOL1         0.0833
      13    C5      19.848530   17.450419   22.408908 C.3        1 MOL1         0.1219
      14    H9      19.601493   17.049473   23.402294 H          1 MOL1         0.0790
      15    C6      18.826757   18.564839   22.070490 C.3        1 MOL1        -0.1760
      16    H10     19.036886   19.000447   21.086178 H          1 MOL1         0.0833
      17    H11     17.845985   18.080809   21.970287 H          1 MOL1         0.0833
      18    C7      18.686386   19.671663   23.149386 C.3        1 MOL1        -0.1684
      19    H12     18.992701   19.292660   24.131013 H          1 MOL1         0.0833
      20    H13     17.618902   19.903975   23.265636 H          1 MOL1         0.0833
      21    C8      19.411714   21.003678   22.829387 C.3        1 MOL1        -0.1684
      22    H14     19.434352   21.623819   23.735709 H          1 MOL1         0.0833
      23    H15     18.795548   21.556272   22.106973 H          1 MOL1         0.0833
      24    O1      19.686898   16.412691   21.451728 O.3        1 MOL1        -0.5508
      25    H16     19.913843   16.801309   20.582097 H          1 MOL1         0.3780
@<TRIPOS>BOND
    1     1     2    1
    2     1     3    1
    3     1     4    1
    4     4     5    1
    5     4     6    1
    6     4     7    1
    7     7     8    1
    8     7     9    1
    9     7    10    1
   10    10    11    1
   11    10    12    1
   12    10    13    1
   13    13    14    1
   14    13    15    1
   15    15    16    1
   16    15    17    1
   17    15    18    1
   18    18    19    1
   19    18    20    1
   20     1    21    1
   21    18    21    1
   22    21    22    1
   23    21    23    1
   24    13    24    1
   25    24    25    1
@<TRIPOS>SUBSTRUCTURE
       1 MOL1            1 RESIDUE      1      MOL     
@<SCITEGIC>MOL_PROPERTY
VConf Rank
SciTegic.value.IntegerValue
854

@<SCITEGIC>MOL_PROPERTY
Conf_Id
SciTegic.value.IntegerValue
15

@<SCITEGIC>MOL_PROPERTY
Delta U+W
SciTegic.value.DoubleValue
-1.271

@<SCITEGIC>MOL_PROPERTY
U+W
SciTegic.value.DoubleValue
9.643

@<SCITEGIC>MOL_PROPERTY
Grad RMS
SciTegic.value.DoubleValue
0.000000

@<SCITEGIC>MOL_PROPERTY
U
SciTegic.value.DoubleValue
11.413

@<SCITEGIC>MOL_PROPERTY
W
SciTegic.value.DoubleValue
-1.770

@<SCITEGIC>MOL_PROPERTY
W(PB)
SciTegic.value.DoubleValue
-3.908

@<SCITEGIC>MOL_PROPERTY
W(SA)
SciTegic.value.DoubleValue
2.138

@<SCITEGIC>MOL_PROPERTY
Valence
SciTegic.value.DoubleValue
17.496

@<SCITEGIC>MOL_PROPERTY
Coulomb
SciTegic.value.DoubleValue
-8.736

@<SCITEGIC>MOL_PROPERTY
VdW
SciTegic.value.DoubleValue
2.653

@<SCITEGIC>MOL_PROPERTY
VdW6
SciTegic.value.DoubleValue
-12.485

@<SCITEGIC>MOL_PROPERTY
VdW12
SciTegic.value.DoubleValue
15.138

@<SCITEGIC>MOL_PROPERTY
Bond
SciTegic.value.DoubleValue
0.414

@<SCITEGIC>MOL_PROPERTY
Angle
SciTegic.value.DoubleValue
5.295

@<SCITEGIC>MOL_PROPERTY
Pdih
SciTegic.value.DoubleValue
11.787

@<SCITEGIC>MOL_PROPERTY
Idih
SciTegic.value.DoubleValue
0.000

@<SCITEGIC>MOL_PROPERTY
Tether
SciTegic.value.DoubleValue
0.000

@<TRIPOS>MOLECULE
guest-s17_confgen4.mol2 : confsearch ligand conformer 855
          25          25           1
SMALL
USER_CHARGES
 
@<TRIPOS>ATOM
       1    C1      21.252532   20.383662   23.867619 C.3        1 MOL1        -0.1684
       2    H1      21.878217   21.109097   24.405432 H          1 MOL1         0.0833
       3    H2      21.011402   19.615448   24.613185 H          1 MOL1         0.0833
       4    C2      19.970312   21.134384   23.421350 C.3        1 MOL1        -0.1684
       5    H3      19.402082   21.403689   24.322135 H          1 MOL1         0.0833
       6    H4      20.259743   22.086187   22.955436 H          1 MOL1         0.0833
       7    C3      19.029767   20.383943   22.447931 C.3        1 MOL1        -0.1684
       8    H5      19.435991   20.437301   21.431119 H          1 MOL1         0.0833
       9    H6      18.080045   20.933933   22.399686 H          1 MOL1         0.0833
      10    C4      18.735714   18.916596   22.855213 C.3        1 MOL1        -0.1760
      11    H7      19.120999   18.704548   23.858697 H          1 MOL1         0.0833
      12    H8      17.648286   18.790850   22.938183 H          1 MOL1         0.0833
      13    C5      19.252139   17.857596   21.854167 C.3        1 MOL1         0.1219
      14    H9      18.593619   17.883268   20.974098 H          1 MOL1         0.0790
      15    C6      20.704695   18.037917   21.342265 C.3        1 MOL1        -0.1760
      16    H10     20.964649   17.126039   20.787975 H          1 MOL1         0.0833
      17    H11     20.741050   18.834772   20.589794 H          1 MOL1         0.0833
      18    C7      21.802935   18.277731   22.412498 C.3        1 MOL1        -0.1684
      19    H12     22.731393   17.844780   22.015432 H          1 MOL1         0.0833
      20    H13     21.591898   17.714635   23.330756 H          1 MOL1         0.0833
      21    C8      22.104483   19.768383   22.729997 C.3        1 MOL1        -0.1684
      22    H14     22.050727   20.386550   21.823815 H          1 MOL1         0.0833
      23    H15     23.153083   19.818769   23.054148 H          1 MOL1         0.0833
      24    O1      19.145488   16.579806   22.465956 O.3        1 MOL1        -0.5508
      25    H16     19.813388   16.568661   23.180749 H          1 MOL1         0.3780
@<TRIPOS>BOND
    1     1     2    1
    2     1     3    1
    3     1     4    1
    4     4     5    1
    5     4     6    1
    6     4     7    1
    7     7     8    1
    8     7     9    1
    9     7    10    1
   10    10    11    1
   11    10    12    1
   12    10    13    1
   13    13    14    1
   14    13    15    1
   15    15    16    1
   16    15    17    1
   17    15    18    1
   18    18    19    1
   19    18    20    1
   20     1    21    1
   21    18    21    1
   22    21    22    1
   23    21    23    1
   24    13    24    1
   25    24    25    1
@<TRIPOS>SUBSTRUCTURE
       1 MOL1            1 RESIDUE      1      MOL     
@<SCITEGIC>MOL_PROPERTY
VConf Rank
SciTegic.value.IntegerValue
855

@<SCITEGIC>MOL_PROPERTY
Conf_Id
SciTegic.value.IntegerValue
115

@<SCITEGIC>MOL_PROPERTY
Delta U+W
SciTegic.value.DoubleValue
0.038

@<SCITEGIC>MOL_PROPERTY
U+W
SciTegic.value.DoubleValue
10.952

@<SCITEGIC>MOL_PROPERTY
Grad RMS
SciTegic.value.DoubleValue
0.000000

@<SCITEGIC>MOL_PROPERTY
U
SciTegic.value.DoubleValue
12.526

@<SCITEGIC>MOL_PROPERTY
W
SciTegic.value.DoubleValue
-1.575

@<SCITEGIC>MOL_PROPERTY
W(PB)
SciTegic.value.DoubleValue
-3.698

@<SCITEGIC>MOL_PROPERTY
W(SA)
SciTegic.value.DoubleValue
2.123

@<SCITEGIC>MOL_PROPERTY
Valence
SciTegic.value.DoubleValue
19.016

@<SCITEGIC>MOL_PROPERTY
Coulomb
SciTegic.value.DoubleValue
-9.226

@<SCITEGIC>MOL_PROPERTY
VdW
SciTegic.value.DoubleValue
2.737

@<SCITEGIC>MOL_PROPERTY
VdW6
SciTegic.value.DoubleValue
-12.612

@<SCITEGIC>MOL_PROPERTY
VdW12
SciTegic.value.DoubleValue
15.349

@<SCITEGIC>MOL_PROPERTY
Bond
SciTegic.value.DoubleValue
0.421

@<SCITEGIC>MOL_PROPERTY
Angle
SciTegic.value.DoubleValue
4.883

@<SCITEGIC>MOL_PROPERTY
Pdih
SciTegic.value.DoubleValue
13.711

@<SCITEGIC>MOL_PROPERTY
Idih
SciTegic.value.DoubleValue
0.000

@<SCITEGIC>MOL_PROPERTY
Tether
SciTegic.value.DoubleValue
0.000

@<TRIPOS>MOLECULE
guest-s17_confgen4.mol2 : confsearch ligand conformer 856
          25          25           1
SMALL
USER_CHARGES
 
@<TRIPOS>ATOM
       1    C1      21.783621   18.715667   21.179943 C.3        1 MOL1        -0.1684
       2    H1      22.536576   18.940249   20.412084 H          1 MOL1         0.0833
       3    H2      21.895394   17.644773   21.397130 H          1 MOL1         0.0833
       4    C2      20.394822   18.989032   20.557010 C.3        1 MOL1        -0.1684
       5    H3      20.328411   20.034863   20.227738 H          1 MOL1         0.0833
       6    H4      20.321246   18.386332   19.641402 H          1 MOL1         0.0833
       7    C3      19.188996   18.635115   21.457910 C.3        1 MOL1        -0.1684
       8    H5      19.365920   17.682590   21.974992 H          1 MOL1         0.0833
       9    H6      18.328709   18.453513   20.799055 H          1 MOL1         0.0833
      10    C4      18.784948   19.755351   22.453779 C.3        1 MOL1        -0.1760
      11    H7      19.266589   20.707785   22.199416 H          1 MOL1         0.0833
      12    H8      17.707658   19.930462   22.329913 H          1 MOL1         0.0833
      13    C5      19.042146   19.413447   23.938671 C.3        1 MOL1         0.1219
      14    H9      18.849347   18.342551   24.095774 H          1 MOL1         0.0790
      15    C6      20.465301   19.745906   24.439206 C.3        1 MOL1        -0.1760
      16    H10     20.652491   20.823873   24.346815 H          1 MOL1         0.0833
      17    H11     20.497077   19.528408   25.514891 H          1 MOL1         0.0833
      18    C7      21.609010   18.947270   23.767806 C.3        1 MOL1        -0.1684
      19    H12     21.319643   17.895144   23.643998 H          1 MOL1         0.0833
      20    H13     22.454711   18.935396   24.469146 H          1 MOL1         0.0833
      21    C8      22.120820   19.554159   22.435237 C.3        1 MOL1        -0.1684
      22    H14     23.215787   19.615906   22.501861 H          1 MOL1         0.0833
      23    H15     21.779229   20.589915   22.307357 H          1 MOL1         0.0833
      24    O1      18.125834   20.162517   24.727922 O.3        1 MOL1        -0.5508
      25    H16     18.267555   19.892534   25.659243 H          1 MOL1         0.3780
@<TRIPOS>BOND
    1     1     2    1
    2     1     3    1
    3     1     4    1
    4     4     5    1
    5     4     6    1
    6     4     7    1
    7     7     8    1
    8     7     9    1
    9     7    10    1
   10    10    11    1
   11    10    12    1
   12    10    13    1
   13    13    14    1
   14    13    15    1
   15    15    16    1
   16    15    17    1
   17    15    18    1
   18    18    19    1
   19    18    20    1
   20     1    21    1
   21    18    21    1
   22    21    22    1
   23    21    23    1
   24    13    24    1
   25    24    25    1
@<TRIPOS>SUBSTRUCTURE
       1 MOL1            1 RESIDUE      1      MOL     
@<SCITEGIC>MOL_PROPERTY
VConf Rank
SciTegic.value.IntegerValue
856

@<SCITEGIC>MOL_PROPERTY
Conf_Id
SciTegic.value.IntegerValue
30

@<SCITEGIC>MOL_PROPERTY
Delta U+W
SciTegic.value.DoubleValue
0.000

@<SCITEGIC>MOL_PROPERTY
U+W
SciTegic.value.DoubleValue
10.913

@<SCITEGIC>MOL_PROPERTY
Grad RMS
SciTegic.value.DoubleValue
0.000000

@<SCITEGIC>MOL_PROPERTY
U
SciTegic.value.DoubleValue
13.140

@<SCITEGIC>MOL_PROPERTY
W
SciTegic.value.DoubleValue
-2.227

@<SCITEGIC>MOL_PROPERTY
W(PB)
SciTegic.value.DoubleValue
-4.367

@<SCITEGIC>MOL_PROPERTY
W(SA)
SciTegic.value.DoubleValue
2.140

@<SCITEGIC>MOL_PROPERTY
Valence
SciTegic.value.DoubleValue
19.155

@<SCITEGIC>MOL_PROPERTY
Coulomb
SciTegic.value.DoubleValue
-8.157

@<SCITEGIC>MOL_PROPERTY
VdW
SciTegic.value.DoubleValue
2.142

@<SCITEGIC>MOL_PROPERTY
VdW6
SciTegic.value.DoubleValue
-11.576

@<SCITEGIC>MOL_PROPERTY
VdW12
SciTegic.value.DoubleValue
13.718

@<SCITEGIC>MOL_PROPERTY
Bond
SciTegic.value.DoubleValue
0.294

@<SCITEGIC>MOL_PROPERTY
Angle
SciTegic.value.DoubleValue
3.547

@<SCITEGIC>MOL_PROPERTY
Pdih
SciTegic.value.DoubleValue
15.314

@<SCITEGIC>MOL_PROPERTY
Idih
SciTegic.value.DoubleValue
0.000

@<SCITEGIC>MOL_PROPERTY
Tether
SciTegic.value.DoubleValue
0.000

@<TRIPOS>MOLECULE
guest-s17_confgen4.mol2 : confsearch ligand conformer 857
          25          25           1
SMALL
USER_CHARGES
 
@<TRIPOS>ATOM
       1    C1      19.195279   17.812479   23.794796 C.3        1 MOL1        -0.1684
       2    H1      18.606453   17.883059   24.719544 H          1 MOL1         0.0833
       3    H2      19.194408   16.748101   23.523004 H          1 MOL1         0.0833
       4    C2      20.652836   18.231815   24.107477 C.3        1 MOL1        -0.1684
       5    H3      20.945555   17.757643   25.054233 H          1 MOL1         0.0833
       6    H4      21.328706   17.799138   23.360787 H          1 MOL1         0.0833
       7    C3      20.866299   19.761625   24.233630 C.3        1 MOL1        -0.1684
       8    H5      21.316655   19.975452   25.212478 H          1 MOL1         0.0833
       9    H6      19.907642   20.293121   24.244841 H          1 MOL1         0.0833
      10    C4      21.784882   20.364008   23.140517 C.3        1 MOL1        -0.1760
      11    H7      21.722075   21.458694   23.199500 H          1 MOL1         0.0833
      12    H8      22.824994   20.108480   23.381429 H          1 MOL1         0.0833
      13    C5      21.518451   19.920654   21.680165 C.3        1 MOL1         0.1219
      14    H9      21.829231   18.874534   21.557553 H          1 MOL1         0.0790
      15    C6      20.050222   20.059091   21.208536 C.3        1 MOL1        -0.1760
      16    H10     19.565684   20.904835   21.713007 H          1 MOL1         0.0833
      17    H11     20.057612   20.322895   20.142539 H          1 MOL1         0.0833
      18    C7      19.193755   18.768375   21.343694 C.3        1 MOL1        -0.1684
      19    H12     19.787392   17.871766   21.119847 H          1 MOL1         0.0833
      20    H13     18.425288   18.812085   20.559610 H          1 MOL1         0.0833
      21    C8      18.449988   18.612238   22.693224 C.3        1 MOL1        -0.1684
      22    H14     17.506078   18.084654   22.498913 H          1 MOL1         0.0833
      23    H15     18.146188   19.597217   23.069856 H          1 MOL1         0.0833
      24    O1      22.337781   20.725809   20.840735 O.3        1 MOL1        -0.5508
      25    H16     22.225181   20.387530   19.927859 H          1 MOL1         0.3780
@<TRIPOS>BOND
    1     1     2    1
    2     1     3    1
    3     1     4    1
    4     4     5    1
    5     4     6    1
    6     4     7    1
    7     7     8    1
    8     7     9    1
    9     7    10    1
   10    10    11    1
   11    10    12    1
   12    10    13    1
   13    13    14    1
   14    13    15    1
   15    15    16    1
   16    15    17    1
   17    15    18    1
   18    18    19    1
   19    18    20    1
   20     1    21    1
   21    18    21    1
   22    21    22    1
   23    21    23    1
   24    13    24    1
   25    24    25    1
@<TRIPOS>SUBSTRUCTURE
       1 MOL1            1 RESIDUE      1      MOL     
@<SCITEGIC>MOL_PROPERTY
VConf Rank
SciTegic.value.IntegerValue
857

@<SCITEGIC>MOL_PROPERTY
Conf_Id
SciTegic.value.IntegerValue
162

@<SCITEGIC>MOL_PROPERTY
Delta U+W
SciTegic.value.DoubleValue
0.219

@<SCITEGIC>MOL_PROPERTY
U+W
SciTegic.value.DoubleValue
11.132

@<SCITEGIC>MOL_PROPERTY
Grad RMS
SciTegic.value.DoubleValue
0.000000

@<SCITEGIC>MOL_PROPERTY
U
SciTegic.value.DoubleValue
13.296

@<SCITEGIC>MOL_PROPERTY
W
SciTegic.value.DoubleValue
-2.164

@<SCITEGIC>MOL_PROPERTY
W(PB)
SciTegic.value.DoubleValue
-4.311

@<SCITEGIC>MOL_PROPERTY
W(SA)
SciTegic.value.DoubleValue
2.148

@<SCITEGIC>MOL_PROPERTY
Valence
SciTegic.value.DoubleValue
18.607

@<SCITEGIC>MOL_PROPERTY
Coulomb
SciTegic.value.DoubleValue
-8.339

@<SCITEGIC>MOL_PROPERTY
VdW
SciTegic.value.DoubleValue
3.028

@<SCITEGIC>MOL_PROPERTY
VdW6
SciTegic.value.DoubleValue
-12.271

@<SCITEGIC>MOL_PROPERTY
VdW12
SciTegic.value.DoubleValue
15.299

@<SCITEGIC>MOL_PROPERTY
Bond
SciTegic.value.DoubleValue
0.423

@<SCITEGIC>MOL_PROPERTY
Angle
SciTegic.value.DoubleValue
4.488

@<SCITEGIC>MOL_PROPERTY
Pdih
SciTegic.value.DoubleValue
13.696

@<SCITEGIC>MOL_PROPERTY
Idih
SciTegic.value.DoubleValue
0.000

@<SCITEGIC>MOL_PROPERTY
Tether
SciTegic.value.DoubleValue
0.000

@<TRIPOS>MOLECULE
guest-s17_confgen4.mol2 : confsearch ligand conformer 858
          25          25           1
SMALL
USER_CHARGES
 
@<TRIPOS>ATOM
       1    C1      21.996489   18.130454   22.368474 C.3        1 MOL1        -0.1684
       2    H1      22.005907   17.932171   23.447728 H          1 MOL1         0.0833
       3    H2      22.840562   17.550853   21.970266 H          1 MOL1         0.0833
       4    C2      20.694971   17.573035   21.739955 C.3        1 MOL1        -0.1684
       5    H3      20.492931   18.052206   20.772584 H          1 MOL1         0.0833
       6    H4      20.881341   16.515597   21.507084 H          1 MOL1         0.0833
       7    C3      19.443655   17.617232   22.660723 C.3        1 MOL1        -0.1684
       8    H5      19.711435   17.405983   23.704674 H          1 MOL1         0.0833
       9    H6      18.794417   16.785762   22.353673 H          1 MOL1         0.0833
      10    C4      18.593633   18.910491   22.560059 C.3        1 MOL1        -0.1760
      11    H7      18.620326   19.296977   21.533799 H          1 MOL1         0.0833
      12    H8      17.544509   18.636337   22.731499 H          1 MOL1         0.0833
      13    C5      18.927284   20.033856   23.573989 C.3        1 MOL1         0.1219
      14    H9      18.597772   19.698713   24.568067 H          1 MOL1         0.0790
      15    C6      20.418605   20.428680   23.692858 C.3        1 MOL1        -0.1760
      16    H10     20.488841   21.358845   24.271529 H          1 MOL1         0.0833
      17    H11     20.935301   19.684959   24.308878 H          1 MOL1         0.0833
      18    C7      21.147998   20.628256   22.338003 C.3        1 MOL1        -0.1684
      19    H12     21.563576   21.644470   22.306974 H          1 MOL1         0.0833
      20    H13     20.438980   20.591280   21.502517 H          1 MOL1         0.0833
      21    C8      22.299641   19.625636   22.084519 C.3        1 MOL1        -0.1684
      22    H14     23.164102   19.920616   22.694791 H          1 MOL1         0.0833
      23    H15     22.622217   19.730205   21.039664 H          1 MOL1         0.0833
      24    O1      18.181083   21.187702   23.205312 O.3        1 MOL1        -0.5508
      25    H16     18.405134   21.887005   23.853304 H          1 MOL1         0.3780
@<TRIPOS>BOND
    1     1     2    1
    2     1     3    1
    3     1     4    1
    4     4     5    1
    5     4     6    1
    6     4     7    1
    7     7     8    1
    8     7     9    1
    9     7    10    1
   10    10    11    1
   11    10    12    1
   12    10    13    1
   13    13    14    1
   14    13    15    1
   15    15    16    1
   16    15    17    1
   17    15    18    1
   18    18    19    1
   19    18    20    1
   20     1    21    1
   21    18    21    1
   22    21    22    1
   23    21    23    1
   24    13    24    1
   25    24    25    1
@<TRIPOS>SUBSTRUCTURE
       1 MOL1            1 RESIDUE      1      MOL     
@<SCITEGIC>MOL_PROPERTY
VConf Rank
SciTegic.value.IntegerValue
858

@<SCITEGIC>MOL_PROPERTY
Conf_Id
SciTegic.value.IntegerValue
155

@<SCITEGIC>MOL_PROPERTY
Delta U+W
SciTegic.value.DoubleValue
0.339

@<SCITEGIC>MOL_PROPERTY
U+W
SciTegic.value.DoubleValue
11.252

@<SCITEGIC>MOL_PROPERTY
Grad RMS
SciTegic.value.DoubleValue
0.000000

@<SCITEGIC>MOL_PROPERTY
U
SciTegic.value.DoubleValue
13.420

@<SCITEGIC>MOL_PROPERTY
W
SciTegic.value.DoubleValue
-2.167

@<SCITEGIC>MOL_PROPERTY
W(PB)
SciTegic.value.DoubleValue
-4.325

@<SCITEGIC>MOL_PROPERTY
W(SA)
SciTegic.value.DoubleValue
2.157

@<SCITEGIC>MOL_PROPERTY
Valence
SciTegic.value.DoubleValue
18.609

@<SCITEGIC>MOL_PROPERTY
Coulomb
SciTegic.value.DoubleValue
-8.052

@<SCITEGIC>MOL_PROPERTY
VdW
SciTegic.value.DoubleValue
2.863

@<SCITEGIC>MOL_PROPERTY
VdW6
SciTegic.value.DoubleValue
-12.524

@<SCITEGIC>MOL_PROPERTY
VdW12
SciTegic.value.DoubleValue
15.387

@<SCITEGIC>MOL_PROPERTY
Bond
SciTegic.value.DoubleValue
0.430

@<SCITEGIC>MOL_PROPERTY
Angle
SciTegic.value.DoubleValue
4.724

@<SCITEGIC>MOL_PROPERTY
Pdih
SciTegic.value.DoubleValue
13.455

@<SCITEGIC>MOL_PROPERTY
Idih
SciTegic.value.DoubleValue
0.000

@<SCITEGIC>MOL_PROPERTY
Tether
SciTegic.value.DoubleValue
0.000

@<TRIPOS>MOLECULE
guest-s17_confgen4.mol2 : confsearch ligand conformer 859
          25          25           1
SMALL
USER_CHARGES
 
@<TRIPOS>ATOM
       1    C1      22.168398   18.399917   22.444526 C.3        1 MOL1        -0.1684
       2    H1      23.003065   19.054767   22.728851 H          1 MOL1         0.0833
       3    H2      22.632471   17.456633   22.125724 H          1 MOL1         0.0833
       4    C2      21.317538   18.081277   23.702034 C.3        1 MOL1        -0.1684
       5    H3      20.556597   17.337694   23.444754 H          1 MOL1         0.0833
       6    H4      21.964084   17.551121   24.414514 H          1 MOL1         0.0833
       7    C3      20.683582   19.280792   24.465236 C.3        1 MOL1        -0.1684
       8    H5      21.433525   19.650943   25.177365 H          1 MOL1         0.0833
       9    H6      19.851545   18.911755   25.080253 H          1 MOL1         0.0833
      10    C4      20.201082   20.503365   23.637943 C.3        1 MOL1        -0.1760
      11    H7      19.921884   21.291319   24.349613 H          1 MOL1         0.0833
      12    H8      21.053470   20.937875   23.108425 H          1 MOL1         0.0833
      13    C5      19.005884   20.298369   22.661325 C.3        1 MOL1         0.1219
      14    H9      19.066106   21.079299   21.889774 H          1 MOL1         0.0790
      15    C6      18.888102   18.929622   21.944945 C.3        1 MOL1        -0.1760
      16    H10     18.763547   18.143348   22.695131 H          1 MOL1         0.0833
      17    H11     17.933859   18.922660   21.401808 H          1 MOL1         0.0833
      18    C7      19.996632   18.546423   20.918970 C.3        1 MOL1        -0.1684
      19    H12     19.709035   18.974526   19.948993 H          1 MOL1         0.0833
      20    H13     19.984601   17.457857   20.773367 H          1 MOL1         0.0833
      21    C8      21.450386   19.007107   21.203674 C.3        1 MOL1        -0.1684
      22    H14     21.486607   20.100730   21.229226 H          1 MOL1         0.0833
      23    H15     22.056865   18.751595   20.324028 H          1 MOL1         0.0833
      24    O1      17.802971   20.484095   23.399357 O.3        1 MOL1        -0.5508
      25    H16     17.856889   21.371784   23.809653 H          1 MOL1         0.3780
@<TRIPOS>BOND
    1     1     2    1
    2     1     3    1
    3     1     4    1
    4     4     5    1
    5     4     6    1
    6     4     7    1
    7     7     8    1
    8     7     9    1
    9     7    10    1
   10    10    11    1
   11    10    12    1
   12    10    13    1
   13    13    14    1
   14    13    15    1
   15    15    16    1
   16    15    17    1
   17    15    18    1
   18    18    19    1
   19    18    20    1
   20     1    21    1
   21    18    21    1
   22    21    22    1
   23    21    23    1
   24    13    24    1
   25    24    25    1
@<TRIPOS>SUBSTRUCTURE
       1 MOL1            1 RESIDUE      1      MOL     
@<SCITEGIC>MOL_PROPERTY
VConf Rank
SciTegic.value.IntegerValue
859

@<SCITEGIC>MOL_PROPERTY
Conf_Id
SciTegic.value.IntegerValue
146

@<SCITEGIC>MOL_PROPERTY
Delta U+W
SciTegic.value.DoubleValue
2.553

@<SCITEGIC>MOL_PROPERTY
U+W
SciTegic.value.DoubleValue
13.466

@<SCITEGIC>MOL_PROPERTY
Grad RMS
SciTegic.value.DoubleValue
0.000000

@<SCITEGIC>MOL_PROPERTY
U
SciTegic.value.DoubleValue
15.643

@<SCITEGIC>MOL_PROPERTY
W
SciTegic.value.DoubleValue
-2.176

@<SCITEGIC>MOL_PROPERTY
W(PB)
SciTegic.value.DoubleValue
-4.307

@<SCITEGIC>MOL_PROPERTY
W(SA)
SciTegic.value.DoubleValue
2.131

@<SCITEGIC>MOL_PROPERTY
Valence
SciTegic.value.DoubleValue
18.916

@<SCITEGIC>MOL_PROPERTY
Coulomb
SciTegic.value.DoubleValue
-7.506

@<SCITEGIC>MOL_PROPERTY
VdW
SciTegic.value.DoubleValue
4.232

@<SCITEGIC>MOL_PROPERTY
VdW6
SciTegic.value.DoubleValue
-13.632

@<SCITEGIC>MOL_PROPERTY
VdW12
SciTegic.value.DoubleValue
17.864

@<SCITEGIC>MOL_PROPERTY
Bond
SciTegic.value.DoubleValue
0.735

@<SCITEGIC>MOL_PROPERTY
Angle
SciTegic.value.DoubleValue
9.140

@<SCITEGIC>MOL_PROPERTY
Pdih
SciTegic.value.DoubleValue
9.042

@<SCITEGIC>MOL_PROPERTY
Idih
SciTegic.value.DoubleValue
0.000

@<SCITEGIC>MOL_PROPERTY
Tether
SciTegic.value.DoubleValue
0.000

@<TRIPOS>MOLECULE
guest-s17_confgen4.mol2 : confsearch ligand conformer 860
          25          25           1
SMALL
USER_CHARGES
 
@<TRIPOS>ATOM
       1    C1      20.384485   17.714152   21.273640 C.3        1 MOL1        -0.1684
       2    H1      20.235271   17.880132   20.198144 H          1 MOL1         0.0833
       3    H2      20.555664   16.634782   21.385755 H          1 MOL1         0.0833
       4    C2      19.076348   18.055814   22.030070 C.3        1 MOL1        -0.1684
       5    H3      18.295062   17.383704   21.649727 H          1 MOL1         0.0833
       6    H4      19.170470   17.796420   23.090731 H          1 MOL1         0.0833
       7    C3      18.553731   19.505403   21.868993 C.3        1 MOL1        -0.1684
       8    H5      17.571965   19.559296   22.359107 H          1 MOL1         0.0833
       9    H6      18.367276   19.708248   20.805729 H          1 MOL1         0.0833
      10    C4      19.436993   20.639936   22.450704 C.3        1 MOL1        -0.1760
      11    H7      20.237137   20.896583   21.749297 H          1 MOL1         0.0833
      12    H8      18.813199   21.542850   22.497212 H          1 MOL1         0.0833
      13    C5      20.027257   20.359409   23.856750 C.3        1 MOL1         0.1219
      14    H9      19.443346   19.571195   24.350724 H          1 MOL1         0.0790
      15    C6      21.524487   19.959436   23.847362 C.3        1 MOL1        -0.1760
      16    H10     22.101130   20.733479   23.323855 H          1 MOL1         0.0833
      17    H11     21.885031   19.971511   24.884282 H          1 MOL1         0.0833
      18    C7      21.875700   18.568326   23.253168 C.3        1 MOL1        -0.1684
      19    H12     21.341431   17.770893   23.785575 H          1 MOL1         0.0833
      20    H13     22.939280   18.389701   23.462629 H          1 MOL1         0.0833
      21    C8      21.676460   18.446104   21.720245 C.3        1 MOL1        -0.1684
      22    H14     22.524894   17.881736   21.309530 H          1 MOL1         0.0833
      23    H15     21.747609   19.430055   21.243170 H          1 MOL1         0.0833
      24    O1      19.911899   21.548678   24.629848 O.3        1 MOL1        -0.5508
      25    H16     20.234972   21.334055   25.529727 H          1 MOL1         0.3780
@<TRIPOS>BOND
    1     1     2    1
    2     1     3    1
    3     1     4    1
    4     4     5    1
    5     4     6    1
    6     4     7    1
    7     7     8    1
    8     7     9    1
    9     7    10    1
   10    10    11    1
   11    10    12    1
   12    10    13    1
   13    13    14    1
   14    13    15    1
   15    15    16    1
   16    15    17    1
   17    15    18    1
   18    18    19    1
   19    18    20    1
   20     1    21    1
   21    18    21    1
   22    21    22    1
   23    21    23    1
   24    13    24    1
   25    24    25    1
@<TRIPOS>SUBSTRUCTURE
       1 MOL1            1 RESIDUE      1      MOL     
@<SCITEGIC>MOL_PROPERTY
VConf Rank
SciTegic.value.IntegerValue
860

@<SCITEGIC>MOL_PROPERTY
Conf_Id
SciTegic.value.IntegerValue
62

@<SCITEGIC>MOL_PROPERTY
Delta U+W
SciTegic.value.DoubleValue
-1.779

@<SCITEGIC>MOL_PROPERTY
U+W
SciTegic.value.DoubleValue
9.134

@<SCITEGIC>MOL_PROPERTY
Grad RMS
SciTegic.value.DoubleValue
0.000000

@<SCITEGIC>MOL_PROPERTY
U
SciTegic.value.DoubleValue
11.364

@<SCITEGIC>MOL_PROPERTY
W
SciTegic.value.DoubleValue
-2.230

@<SCITEGIC>MOL_PROPERTY
W(PB)
SciTegic.value.DoubleValue
-4.359

@<SCITEGIC>MOL_PROPERTY
W(SA)
SciTegic.value.DoubleValue
2.129

@<SCITEGIC>MOL_PROPERTY
Valence
SciTegic.value.DoubleValue
16.582

@<SCITEGIC>MOL_PROPERTY
Coulomb
SciTegic.value.DoubleValue
-8.150

@<SCITEGIC>MOL_PROPERTY
VdW
SciTegic.value.DoubleValue
2.933

@<SCITEGIC>MOL_PROPERTY
VdW6
SciTegic.value.DoubleValue
-12.531

@<SCITEGIC>MOL_PROPERTY
VdW12
SciTegic.value.DoubleValue
15.464

@<SCITEGIC>MOL_PROPERTY
Bond
SciTegic.value.DoubleValue
0.439

@<SCITEGIC>MOL_PROPERTY
Angle
SciTegic.value.DoubleValue
5.099

@<SCITEGIC>MOL_PROPERTY
Pdih
SciTegic.value.DoubleValue
11.044

@<SCITEGIC>MOL_PROPERTY
Idih
SciTegic.value.DoubleValue
0.000

@<SCITEGIC>MOL_PROPERTY
Tether
SciTegic.value.DoubleValue
0.000

@<TRIPOS>MOLECULE
guest-s17_confgen4.mol2 : confsearch ligand conformer 861
          25          25           1
SMALL
USER_CHARGES
 
@<TRIPOS>ATOM
       1    C1      18.872475   20.316417   22.697409 C.3        1 MOL1        -0.1684
       2    H1      18.534496   19.430483   22.147851 H          1 MOL1         0.0833
       3    H2      18.002966   20.987668   22.701433 H          1 MOL1         0.0833
       4    C2      20.004427   21.034434   21.921015 C.3        1 MOL1        -0.1684
       5    H3      19.598013   21.327436   20.943331 H          1 MOL1         0.0833
       6    H4      20.255415   21.973886   22.431828 H          1 MOL1         0.0833
       7    C3      21.308024   20.233758   21.671469 C.3        1 MOL1        -0.1684
       8    H5      21.964781   20.285240   22.547261 H          1 MOL1         0.0833
       9    H6      21.863060   20.757396   20.881049 H          1 MOL1         0.0833
      10    C4      21.106426   18.760102   21.227609 C.3        1 MOL1        -0.1760
      11    H7      20.125259   18.620327   20.757474 H          1 MOL1         0.0833
      12    H8      21.838460   18.557318   20.434925 H          1 MOL1         0.0833
      13    C5      21.329405   17.706653   22.342023 C.3        1 MOL1         0.1219
      14    H9      22.316668   17.884779   22.792094 H          1 MOL1         0.0790
      15    C6      20.279742   17.676292   23.480968 C.3        1 MOL1        -0.1760
      16    H10     19.275998   17.503316   23.074315 H          1 MOL1         0.0833
      17    H11     20.498668   16.791924   24.093972 H          1 MOL1         0.0833
      18    C7      20.298329   18.909485   24.423549 C.3        1 MOL1        -0.1684
      19    H12     21.283265   19.389714   24.408546 H          1 MOL1         0.0833
      20    H13     20.182252   18.553285   25.456310 H          1 MOL1         0.0833
      21    C8      19.179838   19.952740   24.171515 C.3        1 MOL1        -0.1684
      22    H14     19.414337   20.868927   24.730170 H          1 MOL1         0.0833
      23    H15     18.252604   19.564079   24.614302 H          1 MOL1         0.0833
      24    O1      21.332036   16.423627   21.728620 O.3        1 MOL1        -0.5508
      25    H16     22.045248   16.432447   21.056759 H          1 MOL1         0.3780
@<TRIPOS>BOND
    1     1     2    1
    2     1     3    1
    3     1     4    1
    4     4     5    1
    5     4     6    1
    6     4     7    1
    7     7     8    1
    8     7     9    1
    9     7    10    1
   10    10    11    1
   11    10    12    1
   12    10    13    1
   13    13    14    1
   14    13    15    1
   15    15    16    1
   16    15    17    1
   17    15    18    1
   18    18    19    1
   19    18    20    1
   20     1    21    1
   21    18    21    1
   22    21    22    1
   23    21    23    1
   24    13    24    1
   25    24    25    1
@<TRIPOS>SUBSTRUCTURE
       1 MOL1            1 RESIDUE      1      MOL     
@<SCITEGIC>MOL_PROPERTY
VConf Rank
SciTegic.value.IntegerValue
861

@<SCITEGIC>MOL_PROPERTY
Conf_Id
SciTegic.value.IntegerValue
121

@<SCITEGIC>MOL_PROPERTY
Delta U+W
SciTegic.value.DoubleValue
-1.283

@<SCITEGIC>MOL_PROPERTY
U+W
SciTegic.value.DoubleValue
9.630

@<SCITEGIC>MOL_PROPERTY
Grad RMS
SciTegic.value.DoubleValue
0.000000

@<SCITEGIC>MOL_PROPERTY
U
SciTegic.value.DoubleValue
11.876

@<SCITEGIC>MOL_PROPERTY
W
SciTegic.value.DoubleValue
-2.246

@<SCITEGIC>MOL_PROPERTY
W(PB)
SciTegic.value.DoubleValue
-4.376

@<SCITEGIC>MOL_PROPERTY
W(SA)
SciTegic.value.DoubleValue
2.130

@<SCITEGIC>MOL_PROPERTY
Valence
SciTegic.value.DoubleValue
17.153

@<SCITEGIC>MOL_PROPERTY
Coulomb
SciTegic.value.DoubleValue
-7.966

@<SCITEGIC>MOL_PROPERTY
VdW
SciTegic.value.DoubleValue
2.689

@<SCITEGIC>MOL_PROPERTY
VdW6
SciTegic.value.DoubleValue
-12.458

@<SCITEGIC>MOL_PROPERTY
VdW12
SciTegic.value.DoubleValue
15.147

@<SCITEGIC>MOL_PROPERTY
Bond
SciTegic.value.DoubleValue
0.421

@<SCITEGIC>MOL_PROPERTY
Angle
SciTegic.value.DoubleValue
5.258

@<SCITEGIC>MOL_PROPERTY
Pdih
SciTegic.value.DoubleValue
11.475

@<SCITEGIC>MOL_PROPERTY
Idih
SciTegic.value.DoubleValue
0.000

@<SCITEGIC>MOL_PROPERTY
Tether
SciTegic.value.DoubleValue
0.000

@<TRIPOS>MOLECULE
guest-s17_confgen4.mol2 : confsearch ligand conformer 862
          25          25           1
SMALL
USER_CHARGES
 
@<TRIPOS>ATOM
       1    C1      21.808251   19.669791   21.587774 C.3        1 MOL1        -0.1684
       2    H1      22.016633   20.187907   22.530778 H          1 MOL1         0.0833
       3    H2      22.675930   19.892843   20.952148 H          1 MOL1         0.0833
       4    C2      20.563441   20.282431   20.898685 C.3        1 MOL1        -0.1684
       5    H3      20.781704   21.342040   20.707704 H          1 MOL1         0.0833
       6    H4      20.433222   19.823152   19.909449 H          1 MOL1         0.0833
       7    C3      19.220453   20.207156   21.669166 C.3        1 MOL1        -0.1684
       8    H5      18.741818   19.233551   21.514418 H          1 MOL1         0.0833
       9    H6      18.536584   20.927099   21.199111 H          1 MOL1         0.0833
      10    C4      19.305157   20.537364   23.183551 C.3        1 MOL1        -0.1760
      11    H7      20.173677   21.169948   23.403320 H          1 MOL1         0.0833
      12    H8      18.430289   21.151749   23.434445 H          1 MOL1         0.0833
      13    C5      19.277175   19.307149   24.124669 C.3        1 MOL1         0.1219
      14    H9      18.395990   18.701337   23.868769 H          1 MOL1         0.0790
      15    C6      20.524243   18.387768   24.093901 C.3        1 MOL1        -0.1760
      16    H10     21.428679   18.958746   24.337279 H          1 MOL1         0.0833
      17    H11     20.413871   17.659851   24.908332 H          1 MOL1         0.0833
      18    C7      20.709528   17.581423   22.780591 C.3        1 MOL1        -0.1684
      19    H12     19.749800   17.458751   22.265937 H          1 MOL1         0.0833
      20    H13     21.011606   16.558856   23.045407 H          1 MOL1         0.0833
      21    C8      21.781386   18.136711   21.808226 C.3        1 MOL1        -0.1684
      22    H14     21.677892   17.632382   20.837950 H          1 MOL1         0.0833
      23    H15     22.767710   17.842358   22.192166 H          1 MOL1         0.0833
      24    O1      19.129276   19.789263   25.454374 O.3        1 MOL1        -0.5508
      25    H16     19.044247   19.002948   26.032845 H          1 MOL1         0.3780
@<TRIPOS>BOND
    1     1     2    1
    2     1     3    1
    3     1     4    1
    4     4     5    1
    5     4     6    1
    6     4     7    1
    7     7     8    1
    8     7     9    1
    9     7    10    1
   10    10    11    1
   11    10    12    1
   12    10    13    1
   13    13    14    1
   14    13    15    1
   15    15    16    1
   16    15    17    1
   17    15    18    1
   18    18    19    1
   19    18    20    1
   20     1    21    1
   21    18    21    1
   22    21    22    1
   23    21    23    1
   24    13    24    1
   25    24    25    1
@<TRIPOS>SUBSTRUCTURE
       1 MOL1            1 RESIDUE      1      MOL     
@<SCITEGIC>MOL_PROPERTY
VConf Rank
SciTegic.value.IntegerValue
862

@<SCITEGIC>MOL_PROPERTY
Conf_Id
SciTegic.value.IntegerValue
24

@<SCITEGIC>MOL_PROPERTY
Delta U+W
SciTegic.value.DoubleValue
-1.236

@<SCITEGIC>MOL_PROPERTY
U+W
SciTegic.value.DoubleValue
9.678

@<SCITEGIC>MOL_PROPERTY
Grad RMS
SciTegic.value.DoubleValue
0.000000

@<SCITEGIC>MOL_PROPERTY
U
SciTegic.value.DoubleValue
11.876

@<SCITEGIC>MOL_PROPERTY
W
SciTegic.value.DoubleValue
-2.199

@<SCITEGIC>MOL_PROPERTY
W(PB)
SciTegic.value.DoubleValue
-4.335

@<SCITEGIC>MOL_PROPERTY
W(SA)
SciTegic.value.DoubleValue
2.137

@<SCITEGIC>MOL_PROPERTY
Valence
SciTegic.value.DoubleValue
17.153

@<SCITEGIC>MOL_PROPERTY
Coulomb
SciTegic.value.DoubleValue
-7.966

@<SCITEGIC>MOL_PROPERTY
VdW
SciTegic.value.DoubleValue
2.689

@<SCITEGIC>MOL_PROPERTY
VdW6
SciTegic.value.DoubleValue
-12.458

@<SCITEGIC>MOL_PROPERTY
VdW12
SciTegic.value.DoubleValue
15.147

@<SCITEGIC>MOL_PROPERTY
Bond
SciTegic.value.DoubleValue
0.421

@<SCITEGIC>MOL_PROPERTY
Angle
SciTegic.value.DoubleValue
5.258

@<SCITEGIC>MOL_PROPERTY
Pdih
SciTegic.value.DoubleValue
11.475

@<SCITEGIC>MOL_PROPERTY
Idih
SciTegic.value.DoubleValue
0.000

@<SCITEGIC>MOL_PROPERTY
Tether
SciTegic.value.DoubleValue
0.000

@<TRIPOS>MOLECULE
guest-s17_confgen4.mol2 : confsearch ligand conformer 863
          25          25           1
SMALL
USER_CHARGES
 
@<TRIPOS>ATOM
       1    C1      19.729253   20.109140   20.781310 C.3        1 MOL1        -0.1684
       2    H1      20.353510   20.867112   20.288807 H          1 MOL1         0.0833
       3    H2      18.827423   20.018101   20.160611 H          1 MOL1         0.0833
       4    C2      20.472297   18.747206   20.746350 C.3        1 MOL1        -0.1684
       5    H3      19.772330   17.920418   20.921742 H          1 MOL1         0.0833
       6    H4      20.823833   18.601346   19.715713 H          1 MOL1         0.0833
       7    C3      21.694099   18.615122   21.688907 C.3        1 MOL1        -0.1684
       8    H5      22.221994   19.574022   21.779971 H          1 MOL1         0.0833
       9    H6      22.404870   17.937369   21.196304 H          1 MOL1         0.0833
      10    C4      21.387114   18.007860   23.087092 C.3        1 MOL1        -0.1760
      11    H7      20.620072   17.226378   23.013529 H          1 MOL1         0.0833
      12    H8      22.301518   17.493226   23.412619 H          1 MOL1         0.0833
      13    C5      21.010101   19.038278   24.179418 C.3        1 MOL1         0.1219
      14    H9      21.498940   19.992494   23.942390 H          1 MOL1         0.0790
      15    C6      19.490804   19.275372   24.372636 C.3        1 MOL1        -0.1760
      16    H10     19.044323   18.398678   24.859907 H          1 MOL1         0.0833
      17    H11     19.371495   20.107025   25.079559 H          1 MOL1         0.0833
      18    C7      18.665288   19.594257   23.100836 C.3        1 MOL1        -0.1684
      19    H12     17.680356   19.963349   23.417756 H          1 MOL1         0.0833
      20    H13     18.453882   18.667269   22.555226 H          1 MOL1         0.0833
      21    C8      19.316588   20.650095   22.172198 C.3        1 MOL1        -0.1684
      22    H14     20.180473   21.121581   22.654962 H          1 MOL1         0.0833
      23    H15     18.602400   21.470537   22.018309 H          1 MOL1         0.0833
      24    O1      21.526602   18.581038   25.422747 O.3        1 MOL1        -0.5508
      25    H16     21.093302   17.721650   25.603513 H          1 MOL1         0.3780
@<TRIPOS>BOND
    1     1     2    1
    2     1     3    1
    3     1     4    1
    4     4     5    1
    5     4     6    1
    6     4     7    1
    7     7     8    1
    8     7     9    1
    9     7    10    1
   10    10    11    1
   11    10    12    1
   12    10    13    1
   13    13    14    1
   14    13    15    1
   15    15    16    1
   16    15    17    1
   17    15    18    1
   18    18    19    1
   19    18    20    1
   20     1    21    1
   21    18    21    1
   22    21    22    1
   23    21    23    1
   24    13    24    1
   25    24    25    1
@<TRIPOS>SUBSTRUCTURE
       1 MOL1            1 RESIDUE      1      MOL     
@<SCITEGIC>MOL_PROPERTY
VConf Rank
SciTegic.value.IntegerValue
863

@<SCITEGIC>MOL_PROPERTY
Conf_Id
SciTegic.value.IntegerValue
167

@<SCITEGIC>MOL_PROPERTY
Delta U+W
SciTegic.value.DoubleValue
0.388

@<SCITEGIC>MOL_PROPERTY
U+W
SciTegic.value.DoubleValue
11.301

@<SCITEGIC>MOL_PROPERTY
Grad RMS
SciTegic.value.DoubleValue
0.000000

@<SCITEGIC>MOL_PROPERTY
U
SciTegic.value.DoubleValue
13.202

@<SCITEGIC>MOL_PROPERTY
W
SciTegic.value.DoubleValue
-1.901

@<SCITEGIC>MOL_PROPERTY
W(PB)
SciTegic.value.DoubleValue
-4.065

@<SCITEGIC>MOL_PROPERTY
W(SA)
SciTegic.value.DoubleValue
2.163

@<SCITEGIC>MOL_PROPERTY
Valence
SciTegic.value.DoubleValue
18.957

@<SCITEGIC>MOL_PROPERTY
Coulomb
SciTegic.value.DoubleValue
-8.753

@<SCITEGIC>MOL_PROPERTY
VdW
SciTegic.value.DoubleValue
2.998

@<SCITEGIC>MOL_PROPERTY
VdW6
SciTegic.value.DoubleValue
-12.294

@<SCITEGIC>MOL_PROPERTY
VdW12
SciTegic.value.DoubleValue
15.292

@<SCITEGIC>MOL_PROPERTY
Bond
SciTegic.value.DoubleValue
0.419

@<SCITEGIC>MOL_PROPERTY
Angle
SciTegic.value.DoubleValue
4.543

@<SCITEGIC>MOL_PROPERTY
Pdih
SciTegic.value.DoubleValue
13.996

@<SCITEGIC>MOL_PROPERTY
Idih
SciTegic.value.DoubleValue
0.000

@<SCITEGIC>MOL_PROPERTY
Tether
SciTegic.value.DoubleValue
0.000

@<TRIPOS>MOLECULE
guest-s17_confgen4.mol2 : confsearch ligand conformer 864
          25          25           1
SMALL
USER_CHARGES
 
@<TRIPOS>ATOM
       1    C1      18.718019   20.055587   21.625462 C.3        1 MOL1        -0.1684
       2    H1      18.126939   19.458259   20.918124 H          1 MOL1         0.0833
       3    H2      18.251954   21.050386   21.634237 H          1 MOL1         0.0833
       4    C2      20.156991   20.213881   21.069040 C.3        1 MOL1        -0.1684
       5    H3      20.505749   19.274145   20.626243 H          1 MOL1         0.0833
       6    H4      20.099324   20.909794   20.220858 H          1 MOL1         0.0833
       7    C3      21.203352   20.763927   22.072744 C.3        1 MOL1        -0.1684
       8    H5      20.721951   21.364687   22.855119 H          1 MOL1         0.0833
       9    H6      21.846865   21.467126   21.526568 H          1 MOL1         0.0833
      10    C4      22.134838   19.689761   22.697845 C.3        1 MOL1        -0.1760
      11    H7      22.635287   19.129928   21.896983 H          1 MOL1         0.0833
      12    H8      22.934455   20.217822   23.234082 H          1 MOL1         0.0833
      13    C5      21.485476   18.691536   23.688443 C.3        1 MOL1         0.1219
      14    H9      20.957711   19.253620   24.470544 H          1 MOL1         0.0790
      15    C6      20.515914   17.680177   23.023740 C.3        1 MOL1        -0.1760
      16    H10     20.743439   17.585783   21.957158 H          1 MOL1         0.0833
      17    H11     20.698218   16.676513   23.430393 H          1 MOL1         0.0833
      18    C7      19.009341   17.987768   23.224705 C.3        1 MOL1        -0.1684
      19    H12     18.734413   17.678627   24.242444 H          1 MOL1         0.0833
      20    H13     18.422259   17.349200   22.550822 H          1 MOL1         0.0833
      21    C8      18.565353   19.461762   23.048393 C.3        1 MOL1        -0.1684
      22    H14     19.061739   20.104473   23.784377 H          1 MOL1         0.0833
      23    H15     17.499808   19.514283   23.310456 H          1 MOL1         0.0833
      24    O1      22.539157   17.959627   24.303444 O.3        1 MOL1        -0.5508
      25    H16     22.123461   17.381171   24.976573 H          1 MOL1         0.3780
@<TRIPOS>BOND
    1     1     2    1
    2     1     3    1
    3     1     4    1
    4     4     5    1
    5     4     6    1
    6     4     7    1
    7     7     8    1
    8     7     9    1
    9     7    10    1
   10    10    11    1
   11    10    12    1
   12    10    13    1
   13    13    14    1
   14    13    15    1
   15    15    16    1
   16    15    17    1
   17    15    18    1
   18    18    19    1
   19    18    20    1
   20     1    21    1
   21    18    21    1
   22    21    22    1
   23    21    23    1
   24    13    24    1
   25    24    25    1
@<TRIPOS>SUBSTRUCTURE
       1 MOL1            1 RESIDUE      1      MOL     
@<SCITEGIC>MOL_PROPERTY
VConf Rank
SciTegic.value.IntegerValue
864

@<SCITEGIC>MOL_PROPERTY
Conf_Id
SciTegic.value.IntegerValue
60

@<SCITEGIC>MOL_PROPERTY
Delta U+W
SciTegic.value.DoubleValue
-1.838

@<SCITEGIC>MOL_PROPERTY
U+W
SciTegic.value.DoubleValue
9.075

@<SCITEGIC>MOL_PROPERTY
Grad RMS
SciTegic.value.DoubleValue
0.000000

@<SCITEGIC>MOL_PROPERTY
U
SciTegic.value.DoubleValue
11.150

@<SCITEGIC>MOL_PROPERTY
W
SciTegic.value.DoubleValue
-2.074

@<SCITEGIC>MOL_PROPERTY
W(PB)
SciTegic.value.DoubleValue
-4.196

@<SCITEGIC>MOL_PROPERTY
W(SA)
SciTegic.value.DoubleValue
2.121

@<SCITEGIC>MOL_PROPERTY
Valence
SciTegic.value.DoubleValue
16.582

@<SCITEGIC>MOL_PROPERTY
Coulomb
SciTegic.value.DoubleValue
-8.361

@<SCITEGIC>MOL_PROPERTY
VdW
SciTegic.value.DoubleValue
2.928

@<SCITEGIC>MOL_PROPERTY
VdW6
SciTegic.value.DoubleValue
-12.539

@<SCITEGIC>MOL_PROPERTY
VdW12
SciTegic.value.DoubleValue
15.467

@<SCITEGIC>MOL_PROPERTY
Bond
SciTegic.value.DoubleValue
0.441

@<SCITEGIC>MOL_PROPERTY
Angle
SciTegic.value.DoubleValue
5.093

@<SCITEGIC>MOL_PROPERTY
Pdih
SciTegic.value.DoubleValue
11.049

@<SCITEGIC>MOL_PROPERTY
Idih
SciTegic.value.DoubleValue
0.000

@<SCITEGIC>MOL_PROPERTY
Tether
SciTegic.value.DoubleValue
0.000

@<TRIPOS>MOLECULE
guest-s17_confgen4.mol2 : confsearch ligand conformer 865
          25          25           1
SMALL
USER_CHARGES
 
@<TRIPOS>ATOM
       1    C1      22.372194   19.355604   22.480681 C.3        1 MOL1        -0.1684
       2    H1      22.852910   20.326169   22.297873 H          1 MOL1         0.0833
       3    H2      23.188558   18.620800   22.503732 H          1 MOL1         0.0833
       4    C2      21.464678   18.999684   21.276355 C.3        1 MOL1        -0.1684
       5    H3      22.109921   18.938646   20.389362 H          1 MOL1         0.0833
       6    H4      21.058717   17.988201   21.391449 H          1 MOL1         0.0833
       7    C3      20.333113   20.007396   20.952401 C.3        1 MOL1        -0.1684
       8    H5      19.858157   19.682355   20.016608 H          1 MOL1         0.0833
       9    H6      20.773648   20.990264   20.736876 H          1 MOL1         0.0833
      10    C4      19.219449   20.177947   22.017964 C.3        1 MOL1        -0.1760
      11    H7      19.553149   20.858299   22.807926 H          1 MOL1         0.0833
      12    H8      18.388308   20.708972   21.535100 H          1 MOL1         0.0833
      13    C5      18.697862   18.855736   22.637987 C.3        1 MOL1         0.1219
      14    H9      18.951638   18.012039   21.982298 H          1 MOL1         0.0790
      15    C6      19.235387   18.569911   24.062338 C.3        1 MOL1        -0.1760
      16    H10     19.011534   19.426490   24.711494 H          1 MOL1         0.0833
      17    H11     18.659992   17.729392   24.472500 H          1 MOL1         0.0833
      18    C7      20.741045   18.208937   24.184569 C.3        1 MOL1        -0.1684
      19    H12     20.981058   17.328441   23.574740 H          1 MOL1         0.0833
      20    H13     20.911435   17.893506   25.223017 H          1 MOL1         0.0833
      21    C8      21.716862   19.376664   23.886171 C.3        1 MOL1        -0.1684
      22    H14     22.531820   19.336552   24.621880 H          1 MOL1         0.0833
      23    H15     21.230679   20.341062   24.071555 H          1 MOL1         0.0833
      24    O1      17.280264   18.935477   22.728671 O.3        1 MOL1        -0.5508
      25    H16     16.946336   19.047146   21.814046 H          1 MOL1         0.3780
@<TRIPOS>BOND
    1     1     2    1
    2     1     3    1
    3     1     4    1
    4     4     5    1
    5     4     6    1
    6     4     7    1
    7     7     8    1
    8     7     9    1
    9     7    10    1
   10    10    11    1
   11    10    12    1
   12    10    13    1
   13    13    14    1
   14    13    15    1
   15    15    16    1
   16    15    17    1
   17    15    18    1
   18    18    19    1
   19    18    20    1
   20     1    21    1
   21    18    21    1
   22    21    22    1
   23    21    23    1
   24    13    24    1
   25    24    25    1
@<TRIPOS>SUBSTRUCTURE
       1 MOL1            1 RESIDUE      1      MOL     
@<SCITEGIC>MOL_PROPERTY
VConf Rank
SciTegic.value.IntegerValue
865

@<SCITEGIC>MOL_PROPERTY
Conf_Id
SciTegic.value.IntegerValue
129

@<SCITEGIC>MOL_PROPERTY
Delta U+W
SciTegic.value.DoubleValue
-1.846

@<SCITEGIC>MOL_PROPERTY
U+W
SciTegic.value.DoubleValue
9.067

@<SCITEGIC>MOL_PROPERTY
Grad RMS
SciTegic.value.DoubleValue
0.000000

@<SCITEGIC>MOL_PROPERTY
U
SciTegic.value.DoubleValue
11.150

@<SCITEGIC>MOL_PROPERTY
W
SciTegic.value.DoubleValue
-2.083

@<SCITEGIC>MOL_PROPERTY
W(PB)
SciTegic.value.DoubleValue
-4.217

@<SCITEGIC>MOL_PROPERTY
W(SA)
SciTegic.value.DoubleValue
2.134

@<SCITEGIC>MOL_PROPERTY
Valence
SciTegic.value.DoubleValue
16.583

@<SCITEGIC>MOL_PROPERTY
Coulomb
SciTegic.value.DoubleValue
-8.361

@<SCITEGIC>MOL_PROPERTY
VdW
SciTegic.value.DoubleValue
2.928

@<SCITEGIC>MOL_PROPERTY
VdW6
SciTegic.value.DoubleValue
-12.539

@<SCITEGIC>MOL_PROPERTY
VdW12
SciTegic.value.DoubleValue
15.467

@<SCITEGIC>MOL_PROPERTY
Bond
SciTegic.value.DoubleValue
0.441

@<SCITEGIC>MOL_PROPERTY
Angle
SciTegic.value.DoubleValue
5.093

@<SCITEGIC>MOL_PROPERTY
Pdih
SciTegic.value.DoubleValue
11.049

@<SCITEGIC>MOL_PROPERTY
Idih
SciTegic.value.DoubleValue
0.000

@<SCITEGIC>MOL_PROPERTY
Tether
SciTegic.value.DoubleValue
0.000

@<TRIPOS>MOLECULE
guest-s17_confgen4.mol2 : confsearch ligand conformer 866
          25          25           1
SMALL
USER_CHARGES
 
@<TRIPOS>ATOM
       1    C1      20.257172   17.165589   22.422618 C.3        1 MOL1        -0.1684
       2    H1      20.410630   16.502890   23.285049 H          1 MOL1         0.0833
       3    H2      20.114167   16.500533   21.559965 H          1 MOL1         0.0833
       4    C2      21.549501   17.981221   22.167973 C.3        1 MOL1        -0.1684
       5    H3      22.351110   17.262029   21.951199 H          1 MOL1         0.0833
       6    H4      21.453278   18.571341   21.249442 H          1 MOL1         0.0833
       7    C3      22.036117   18.872285   23.338220 C.3        1 MOL1        -0.1684
       8    H5      23.011427   19.289511   23.052311 H          1 MOL1         0.0833
       9    H6      22.227787   18.243281   24.218057 H          1 MOL1         0.0833
      10    C4      21.118648   20.052014   23.752665 C.3        1 MOL1        -0.1760
      11    H7      20.319208   19.695723   24.410305 H          1 MOL1         0.0833
      12    H8      21.721023   20.718485   24.384787 H          1 MOL1         0.0833
      13    C5      20.522977   20.865499   22.574534 C.3        1 MOL1         0.1219
      14    H9      21.122066   20.698842   21.669444 H          1 MOL1         0.0790
      15    C6      19.037255   20.548969   22.269022 C.3        1 MOL1        -0.1760
      16    H10     18.439699   20.685233   23.179831 H          1 MOL1         0.0833
      17    H11     18.674635   21.304280   21.558918 H          1 MOL1         0.0833
      18    C7      18.728318   19.154138   21.660726 C.3        1 MOL1        -0.1684
      19    H12     19.280490   19.006828   20.723604 H          1 MOL1         0.0833
      20    H13     17.668591   19.158289   21.371023 H          1 MOL1         0.0833
      21    C8      18.942253   17.961318   22.628174 C.3        1 MOL1        -0.1684
      22    H14     18.112754   17.254740   22.487710 H          1 MOL1         0.0833
      23    H15     18.847597   18.288487   23.669712 H          1 MOL1         0.0833
      24    O1      20.601178   22.246640   22.903923 O.3        1 MOL1        -0.5508
      25    H16     20.057489   22.370246   23.708949 H          1 MOL1         0.3780
@<TRIPOS>BOND
    1     1     2    1
    2     1     3    1
    3     1     4    1
    4     4     5    1
    5     4     6    1
    6     4     7    1
    7     7     8    1
    8     7     9    1
    9     7    10    1
   10    10    11    1
   11    10    12    1
   12    10    13    1
   13    13    14    1
   14    13    15    1
   15    15    16    1
   16    15    17    1
   17    15    18    1
   18    18    19    1
   19    18    20    1
   20     1    21    1
   21    18    21    1
   22    21    22    1
   23    21    23    1
   24    13    24    1
   25    24    25    1
@<TRIPOS>SUBSTRUCTURE
       1 MOL1            1 RESIDUE      1      MOL     
@<SCITEGIC>MOL_PROPERTY
VConf Rank
SciTegic.value.IntegerValue
866

@<SCITEGIC>MOL_PROPERTY
Conf_Id
SciTegic.value.IntegerValue
140

@<SCITEGIC>MOL_PROPERTY
Delta U+W
SciTegic.value.DoubleValue
-1.702

@<SCITEGIC>MOL_PROPERTY
U+W
SciTegic.value.DoubleValue
9.211

@<SCITEGIC>MOL_PROPERTY
Grad RMS
SciTegic.value.DoubleValue
0.000000

@<SCITEGIC>MOL_PROPERTY
U
SciTegic.value.DoubleValue
11.181

@<SCITEGIC>MOL_PROPERTY
W
SciTegic.value.DoubleValue
-1.969

@<SCITEGIC>MOL_PROPERTY
W(PB)
SciTegic.value.DoubleValue
-4.093

@<SCITEGIC>MOL_PROPERTY
W(SA)
SciTegic.value.DoubleValue
2.124

@<SCITEGIC>MOL_PROPERTY
Valence
SciTegic.value.DoubleValue
16.954

@<SCITEGIC>MOL_PROPERTY
Coulomb
SciTegic.value.DoubleValue
-8.661

@<SCITEGIC>MOL_PROPERTY
VdW
SciTegic.value.DoubleValue
2.887

@<SCITEGIC>MOL_PROPERTY
VdW6
SciTegic.value.DoubleValue
-12.561

@<SCITEGIC>MOL_PROPERTY
VdW12
SciTegic.value.DoubleValue
15.448

@<SCITEGIC>MOL_PROPERTY
Bond
SciTegic.value.DoubleValue
0.433

@<SCITEGIC>MOL_PROPERTY
Angle
SciTegic.value.DoubleValue
5.120

@<SCITEGIC>MOL_PROPERTY
Pdih
SciTegic.value.DoubleValue
11.401

@<SCITEGIC>MOL_PROPERTY
Idih
SciTegic.value.DoubleValue
0.000

@<SCITEGIC>MOL_PROPERTY
Tether
SciTegic.value.DoubleValue
0.000

@<TRIPOS>MOLECULE
guest-s17_confgen4.mol2 : confsearch ligand conformer 867
          25          25           1
SMALL
USER_CHARGES
 
@<TRIPOS>ATOM
       1    C1      20.269986   17.116649   22.712445 C.3        1 MOL1        -0.1684
       2    H1      20.419470   16.581441   23.659922 H          1 MOL1         0.0833
       3    H2      20.146246   16.337040   21.948365 H          1 MOL1         0.0833
       4    C2      21.559371   17.908741   22.374030 C.3        1 MOL1        -0.1684
       5    H3      21.974606   18.373897   23.275148 H          1 MOL1         0.0833
       6    H4      22.318528   17.174440   22.071487 H          1 MOL1         0.0833
       7    C3      21.419178   18.953438   21.236707 C.3        1 MOL1        -0.1684
       8    H5      20.599519   18.689150   20.556189 H          1 MOL1         0.0833
       9    H6      22.329258   18.898326   20.623779 H          1 MOL1         0.0833
      10    C4      21.284511   20.423967   21.716731 C.3        1 MOL1        -0.1760
      11    H7      22.138969   20.672871   22.359509 H          1 MOL1         0.0833
      12    H8      21.379490   21.067936   20.832131 H          1 MOL1         0.0833
      13    C5      19.967595   20.806668   22.437955 C.3        1 MOL1         0.1219
      14    H9      19.114336   20.528430   21.805179 H          1 MOL1         0.0790
      15    C6      19.803877   20.173618   23.844019 C.3        1 MOL1        -0.1760
      16    H10     20.781437   19.896313   24.251472 H          1 MOL1         0.0833
      17    H11     19.418650   20.931478   24.539623 H          1 MOL1         0.0833
      18    C7      18.834035   18.965236   23.911014 C.3        1 MOL1        -0.1684
      19    H12     17.807706   19.357135   23.900248 H          1 MOL1         0.0833
      20    H13     18.952072   18.466516   24.882531 H          1 MOL1         0.0833
      21    C8      18.942880   17.913262   22.778860 C.3        1 MOL1        -0.1684
      22    H14     18.723133   18.369917   21.807067 H          1 MOL1         0.0833
      23    H15     18.133775   17.185993   22.931279 H          1 MOL1         0.0833
      24    O1      19.962150   22.221142   22.584219 O.3        1 MOL1        -0.5508
      25    H16     20.731966   22.444012   23.146940 H          1 MOL1         0.3780
@<TRIPOS>BOND
    1     1     2    1
    2     1     3    1
    3     1     4    1
    4     4     5    1
    5     4     6    1
    6     4     7    1
    7     7     8    1
    8     7     9    1
    9     7    10    1
   10    10    11    1
   11    10    12    1
   12    10    13    1
   13    13    14    1
   14    13    15    1
   15    15    16    1
   16    15    17    1
   17    15    18    1
   18    18    19    1
   19    18    20    1
   20     1    21    1
   21    18    21    1
   22    21    22    1
   23    21    23    1
   24    13    24    1
   25    24    25    1
@<TRIPOS>SUBSTRUCTURE
       1 MOL1            1 RESIDUE      1      MOL     
@<SCITEGIC>MOL_PROPERTY
VConf Rank
SciTegic.value.IntegerValue
867

@<SCITEGIC>MOL_PROPERTY
Conf_Id
SciTegic.value.IntegerValue
68

@<SCITEGIC>MOL_PROPERTY
Delta U+W
SciTegic.value.DoubleValue
-1.765

@<SCITEGIC>MOL_PROPERTY
U+W
SciTegic.value.DoubleValue
9.148

@<SCITEGIC>MOL_PROPERTY
Grad RMS
SciTegic.value.DoubleValue
0.000000

@<SCITEGIC>MOL_PROPERTY
U
SciTegic.value.DoubleValue
11.181

@<SCITEGIC>MOL_PROPERTY
W
SciTegic.value.DoubleValue
-2.032

@<SCITEGIC>MOL_PROPERTY
W(PB)
SciTegic.value.DoubleValue
-4.147

@<SCITEGIC>MOL_PROPERTY
W(SA)
SciTegic.value.DoubleValue
2.114

@<SCITEGIC>MOL_PROPERTY
Valence
SciTegic.value.DoubleValue
16.955

@<SCITEGIC>MOL_PROPERTY
Coulomb
SciTegic.value.DoubleValue
-8.661

@<SCITEGIC>MOL_PROPERTY
VdW
SciTegic.value.DoubleValue
2.887

@<SCITEGIC>MOL_PROPERTY
VdW6
SciTegic.value.DoubleValue
-12.561

@<SCITEGIC>MOL_PROPERTY
VdW12
SciTegic.value.DoubleValue
15.448

@<SCITEGIC>MOL_PROPERTY
Bond
SciTegic.value.DoubleValue
0.433

@<SCITEGIC>MOL_PROPERTY
Angle
SciTegic.value.DoubleValue
5.121

@<SCITEGIC>MOL_PROPERTY
Pdih
SciTegic.value.DoubleValue
11.402

@<SCITEGIC>MOL_PROPERTY
Idih
SciTegic.value.DoubleValue
0.000

@<SCITEGIC>MOL_PROPERTY
Tether
SciTegic.value.DoubleValue
0.000

@<TRIPOS>MOLECULE
guest-s17_confgen4.mol2 : confsearch ligand conformer 868
          25          25           1
SMALL
USER_CHARGES
 
@<TRIPOS>ATOM
       1    C1      21.414049   17.742429   22.559086 C.3        1 MOL1        -0.1684
       2    H1      22.028515   16.831752   22.572316 H          1 MOL1         0.0833
       3    H2      22.083739   18.515792   22.166254 H          1 MOL1         0.0833
       4    C2      21.003328   18.066755   24.019025 C.3        1 MOL1        -0.1684
       5    H3      20.014313   17.652474   24.253194 H          1 MOL1         0.0833
       6    H4      21.699550   17.536551   24.683238 H          1 MOL1         0.0833
       7    C3      21.074051   19.569741   24.396691 C.3        1 MOL1        -0.1684
       8    H5      22.086160   19.948140   24.197884 H          1 MOL1         0.0833
       9    H6      20.939375   19.647105   25.484216 H          1 MOL1         0.0833
      10    C4      20.035262   20.506610   23.724570 C.3        1 MOL1        -0.1760
      11    H7      19.016340   20.161458   23.937232 H          1 MOL1         0.0833
      12    H8      20.119460   21.481488   24.223705 H          1 MOL1         0.0833
      13    C5      20.244610   20.711128   22.201667 C.3        1 MOL1         0.1219
      14    H9      21.275661   20.443085   21.943537 H          1 MOL1         0.0790
      15    C6      19.271356   19.912505   21.299991 C.3        1 MOL1        -0.1760
      16    H10     18.298808   20.422139   21.299933 H          1 MOL1         0.0833
      17    H11     19.636898   19.962702   20.266094 H          1 MOL1         0.0833
      18    C7      19.016289   18.429271   21.672850 C.3        1 MOL1        -0.1684
      19    H12     18.252916   18.045264   20.982544 H          1 MOL1         0.0833
      20    H13     18.553958   18.357108   22.663986 H          1 MOL1         0.0833
      21    C8      20.239914   17.483662   21.579552 C.3        1 MOL1        -0.1684
      22    H14     20.625854   17.489054   20.551151 H          1 MOL1         0.0833
      23    H15     19.877800   16.461262   21.754396 H          1 MOL1         0.0833
      24    O1      20.070616   22.090435   21.901797 O.3        1 MOL1        -0.5508
      25    H16     19.151778   22.315224   22.154967 H          1 MOL1         0.3780
@<TRIPOS>BOND
    1     1     2    1
    2     1     3    1
    3     1     4    1
    4     4     5    1
    5     4     6    1
    6     4     7    1
    7     7     8    1
    8     7     9    1
    9     7    10    1
   10    10    11    1
   11    10    12    1
   12    10    13    1
   13    13    14    1
   14    13    15    1
   15    15    16    1
   16    15    17    1
   17    15    18    1
   18    18    19    1
   19    18    20    1
   20     1    21    1
   21    18    21    1
   22    21    22    1
   23    21    23    1
   24    13    24    1
   25    24    25    1
@<TRIPOS>SUBSTRUCTURE
       1 MOL1            1 RESIDUE      1      MOL     
@<SCITEGIC>MOL_PROPERTY
VConf Rank
SciTegic.value.IntegerValue
868

@<SCITEGIC>MOL_PROPERTY
Conf_Id
SciTegic.value.IntegerValue
165

@<SCITEGIC>MOL_PROPERTY
Delta U+W
SciTegic.value.DoubleValue
-1.999

@<SCITEGIC>MOL_PROPERTY
U+W
SciTegic.value.DoubleValue
8.915

@<SCITEGIC>MOL_PROPERTY
Grad RMS
SciTegic.value.DoubleValue
0.000000

@<SCITEGIC>MOL_PROPERTY
U
SciTegic.value.DoubleValue
10.935

@<SCITEGIC>MOL_PROPERTY
W
SciTegic.value.DoubleValue
-2.020

@<SCITEGIC>MOL_PROPERTY
W(PB)
SciTegic.value.DoubleValue
-4.135

@<SCITEGIC>MOL_PROPERTY
W(SA)
SciTegic.value.DoubleValue
2.115

@<SCITEGIC>MOL_PROPERTY
Valence
SciTegic.value.DoubleValue
16.757

@<SCITEGIC>MOL_PROPERTY
Coulomb
SciTegic.value.DoubleValue
-8.731

@<SCITEGIC>MOL_PROPERTY
VdW
SciTegic.value.DoubleValue
2.908

@<SCITEGIC>MOL_PROPERTY
VdW6
SciTegic.value.DoubleValue
-12.597

@<SCITEGIC>MOL_PROPERTY
VdW12
SciTegic.value.DoubleValue
15.506

@<SCITEGIC>MOL_PROPERTY
Bond
SciTegic.value.DoubleValue
0.434

@<SCITEGIC>MOL_PROPERTY
Angle
SciTegic.value.DoubleValue
5.069

@<SCITEGIC>MOL_PROPERTY
Pdih
SciTegic.value.DoubleValue
11.254

@<SCITEGIC>MOL_PROPERTY
Idih
SciTegic.value.DoubleValue
0.000

@<SCITEGIC>MOL_PROPERTY
Tether
SciTegic.value.DoubleValue
0.000

@<TRIPOS>MOLECULE
guest-s17_confgen4.mol2 : confsearch ligand conformer 869
          25          25           1
SMALL
USER_CHARGES
 
@<TRIPOS>ATOM
       1    C1      21.588009   20.480507   22.480813 C.3        1 MOL1        -0.1684
       2    H1      22.397271   21.222654   22.443448 H          1 MOL1         0.0833
       3    H2      20.992296   20.683746   21.583805 H          1 MOL1         0.0833
       4    C2      20.765877   20.769881   23.763706 C.3        1 MOL1        -0.1684
       5    H3      21.475538   20.996789   24.571109 H          1 MOL1         0.0833
       6    H4      20.183802   21.689389   23.614507 H          1 MOL1         0.0833
       7    C3      19.828950   19.646900   24.274999 C.3        1 MOL1        -0.1684
       8    H5      19.407440   19.982722   25.232210 H          1 MOL1         0.0833
       9    H6      20.409405   18.752161   24.527598 H          1 MOL1         0.0833
      10    C4      18.639646   19.278323   23.351020 C.3        1 MOL1        -0.1760
      11    H7      18.014297   18.555744   23.892622 H          1 MOL1         0.0833
      12    H8      18.015266   20.169054   23.204512 H          1 MOL1         0.0833
      13    C5      18.980967   18.678815   21.964712 C.3        1 MOL1         0.1219
      14    H9      19.292623   19.484054   21.289197 H          1 MOL1         0.0790
      15    C6      20.080622   17.585892   21.986218 C.3        1 MOL1        -0.1760
      16    H10     20.159645   17.131141   22.980741 H          1 MOL1         0.0833
      17    H11     19.769772   16.768040   21.322124 H          1 MOL1         0.0833
      18    C7      21.473355   18.062469   21.494118 C.3        1 MOL1        -0.1684
      19    H12     21.376290   18.485242   20.484748 H          1 MOL1         0.0833
      20    H13     22.109615   17.174109   21.381148 H          1 MOL1         0.0833
      21    C8      22.226230   19.069054   22.403422 C.3        1 MOL1        -0.1684
      22    H14     23.235415   19.185619   21.985129 H          1 MOL1         0.0833
      23    H15     22.379653   18.648835   23.405663 H          1 MOL1         0.0833
      24    O1      17.786716   18.108026   21.441761 O.3        1 MOL1        -0.5508
      25    H16     17.124837   18.829423   21.397691 H          1 MOL1         0.3780
@<TRIPOS>BOND
    1     1     2    1
    2     1     3    1
    3     1     4    1
    4     4     5    1
    5     4     6    1
    6     4     7    1
    7     7     8    1
    8     7     9    1
    9     7    10    1
   10    10    11    1
   11    10    12    1
   12    10    13    1
   13    13    14    1
   14    13    15    1
   15    15    16    1
   16    15    17    1
   17    15    18    1
   18    18    19    1
   19    18    20    1
   20     1    21    1
   21    18    21    1
   22    21    22    1
   23    21    23    1
   24    13    24    1
   25    24    25    1
@<TRIPOS>SUBSTRUCTURE
       1 MOL1            1 RESIDUE      1      MOL     
@<SCITEGIC>MOL_PROPERTY
VConf Rank
SciTegic.value.IntegerValue
869

@<SCITEGIC>MOL_PROPERTY
Conf_Id
SciTegic.value.IntegerValue
133

@<SCITEGIC>MOL_PROPERTY
Delta U+W
SciTegic.value.DoubleValue
-2.139

@<SCITEGIC>MOL_PROPERTY
U+W
SciTegic.value.DoubleValue
8.774

@<SCITEGIC>MOL_PROPERTY
Grad RMS
SciTegic.value.DoubleValue
0.000000

@<SCITEGIC>MOL_PROPERTY
U
SciTegic.value.DoubleValue
10.905

@<SCITEGIC>MOL_PROPERTY
W
SciTegic.value.DoubleValue
-2.131

@<SCITEGIC>MOL_PROPERTY
W(PB)
SciTegic.value.DoubleValue
-4.281

@<SCITEGIC>MOL_PROPERTY
W(SA)
SciTegic.value.DoubleValue
2.150

@<SCITEGIC>MOL_PROPERTY
Valence
SciTegic.value.DoubleValue
16.378

@<SCITEGIC>MOL_PROPERTY
Coulomb
SciTegic.value.DoubleValue
-8.448

@<SCITEGIC>MOL_PROPERTY
VdW
SciTegic.value.DoubleValue
2.976

@<SCITEGIC>MOL_PROPERTY
VdW6
SciTegic.value.DoubleValue
-12.570

@<SCITEGIC>MOL_PROPERTY
VdW12
SciTegic.value.DoubleValue
15.545

@<SCITEGIC>MOL_PROPERTY
Bond
SciTegic.value.DoubleValue
0.439

@<SCITEGIC>MOL_PROPERTY
Angle
SciTegic.value.DoubleValue
5.049

@<SCITEGIC>MOL_PROPERTY
Pdih
SciTegic.value.DoubleValue
10.889

@<SCITEGIC>MOL_PROPERTY
Idih
SciTegic.value.DoubleValue
0.000

@<SCITEGIC>MOL_PROPERTY
Tether
SciTegic.value.DoubleValue
0.000

@<TRIPOS>MOLECULE
guest-s17_confgen4.mol2 : confsearch ligand conformer 870
          25          25           1
SMALL
USER_CHARGES
 
@<TRIPOS>ATOM
       1    C1      21.203807   20.303683   23.837794 C.3        1 MOL1        -0.1684
       2    H1      21.685382   21.003670   24.534350 H          1 MOL1         0.0833
       3    H2      21.950343   19.516051   23.685732 H          1 MOL1         0.0833
       4    C2      20.929284   21.058419   22.510944 C.3        1 MOL1        -0.1684
       5    H3      19.908516   21.461101   22.488834 H          1 MOL1         0.0833
       6    H4      21.584514   21.940059   22.491050 H          1 MOL1         0.0833
       7    C3      21.227559   20.244261   21.224456 C.3        1 MOL1        -0.1684
       8    H5      22.268810   19.894626   21.247694 H          1 MOL1         0.0833
       9    H6      21.167687   20.933962   20.371519 H          1 MOL1         0.0833
      10    C4      20.290279   19.043430   20.926966 C.3        1 MOL1        -0.1760
      11    H7      19.247130   19.375839   20.868101 H          1 MOL1         0.0833
      12    H8      20.534847   18.689989   19.916126 H          1 MOL1         0.0833
      13    C5      20.435831   17.853408   21.910249 C.3        1 MOL1         0.1219
      14    H9      21.402834   17.929970   22.421033 H          1 MOL1         0.0790
      15    C6      19.307684   17.746449   22.965517 C.3        1 MOL1        -0.1760
      16    H10     18.418079   17.328283   22.475358 H          1 MOL1         0.0833
      17    H11     19.606580   17.013962   23.726332 H          1 MOL1         0.0833
      18    C7      18.874726   19.055942   23.673897 C.3        1 MOL1        -0.1684
      19    H12     18.025238   18.809749   24.325402 H          1 MOL1         0.0833
      20    H13     18.467890   19.768237   22.946978 H          1 MOL1         0.0833
      21    C8      19.949301   19.740694   24.555231 C.3        1 MOL1        -0.1684
      22    H14     20.270627   19.045693   25.342817 H          1 MOL1         0.0833
      23    H15     19.460983   20.574622   25.077834 H          1 MOL1         0.0833
      24    O1      20.433111   16.644159   21.159768 O.3        1 MOL1        -0.5508
      25    H16     20.571326   15.914655   21.799422 H          1 MOL1         0.3780
@<TRIPOS>BOND
    1     1     2    1
    2     1     3    1
    3     1     4    1
    4     4     5    1
    5     4     6    1
    6     4     7    1
    7     7     8    1
    8     7     9    1
    9     7    10    1
   10    10    11    1
   11    10    12    1
   12    10    13    1
   13    13    14    1
   14    13    15    1
   15    15    16    1
   16    15    17    1
   17    15    18    1
   18    18    19    1
   19    18    20    1
   20     1    21    1
   21    18    21    1
   22    21    22    1
   23    21    23    1
   24    13    24    1
   25    24    25    1
@<TRIPOS>SUBSTRUCTURE
       1 MOL1            1 RESIDUE      1      MOL     
@<SCITEGIC>MOL_PROPERTY
VConf Rank
SciTegic.value.IntegerValue
870

@<SCITEGIC>MOL_PROPERTY
Conf_Id
SciTegic.value.IntegerValue
95

@<SCITEGIC>MOL_PROPERTY
Delta U+W
SciTegic.value.DoubleValue
-2.190

@<SCITEGIC>MOL_PROPERTY
U+W
SciTegic.value.DoubleValue
8.723

@<SCITEGIC>MOL_PROPERTY
Grad RMS
SciTegic.value.DoubleValue
0.000000

@<SCITEGIC>MOL_PROPERTY
U
SciTegic.value.DoubleValue
10.905

@<SCITEGIC>MOL_PROPERTY
W
SciTegic.value.DoubleValue
-2.182

@<SCITEGIC>MOL_PROPERTY
W(PB)
SciTegic.value.DoubleValue
-4.296

@<SCITEGIC>MOL_PROPERTY
W(SA)
SciTegic.value.DoubleValue
2.114

@<SCITEGIC>MOL_PROPERTY
Valence
SciTegic.value.DoubleValue
16.377

@<SCITEGIC>MOL_PROPERTY
Coulomb
SciTegic.value.DoubleValue
-8.448

@<SCITEGIC>MOL_PROPERTY
VdW
SciTegic.value.DoubleValue
2.976

@<SCITEGIC>MOL_PROPERTY
VdW6
SciTegic.value.DoubleValue
-12.570

@<SCITEGIC>MOL_PROPERTY
VdW12
SciTegic.value.DoubleValue
15.546

@<SCITEGIC>MOL_PROPERTY
Bond
SciTegic.value.DoubleValue
0.439

@<SCITEGIC>MOL_PROPERTY
Angle
SciTegic.value.DoubleValue
5.049

@<SCITEGIC>MOL_PROPERTY
Pdih
SciTegic.value.DoubleValue
10.889

@<SCITEGIC>MOL_PROPERTY
Idih
SciTegic.value.DoubleValue
0.000

@<SCITEGIC>MOL_PROPERTY
Tether
SciTegic.value.DoubleValue
0.000

@<TRIPOS>MOLECULE
guest-s17_confgen4.mol2 : confsearch ligand conformer 871
          25          25           1
SMALL
USER_CHARGES
 
@<TRIPOS>ATOM
       1    C1      18.721019   19.000240   23.572501 C.3        1 MOL1        -0.1684
       2    H1      17.736534   18.992642   24.059978 H          1 MOL1         0.0833
       3    H2      19.342978   18.403358   24.247137 H          1 MOL1         0.0833
       4    C2      19.199985   20.481305   23.537038 C.3        1 MOL1        -0.1684
       5    H3      18.310931   21.109827   23.390461 H          1 MOL1         0.0833
       6    H4      19.589762   20.753626   24.527183 H          1 MOL1         0.0833
       7    C3      20.227645   20.893805   22.450643 C.3        1 MOL1        -0.1684
       8    H5      20.351013   21.983973   22.506604 H          1 MOL1         0.0833
       9    H6      19.789244   20.736556   21.460136 H          1 MOL1         0.0833
      10    C4      21.650820   20.265942   22.533609 C.3        1 MOL1        -0.1760
      11    H7      22.130155   20.342176   21.548826 H          1 MOL1         0.0833
      12    H8      22.244193   20.902729   23.202693 H          1 MOL1         0.0833
      13    C5      21.781686   18.810375   23.049257 C.3        1 MOL1         0.1219
      14    H9      21.339815   18.763996   24.049964 H          1 MOL1         0.0790
      15    C6      21.171869   17.689685   22.158882 C.3        1 MOL1        -0.1760
      16    H10     21.925675   17.402690   21.413412 H          1 MOL1         0.0833
      17    H11     21.019466   16.799329   22.782042 H          1 MOL1         0.0833
      18    C7      19.861803   17.991323   21.381864 C.3        1 MOL1        -0.1684
      19    H12     19.653009   17.127710   20.735884 H          1 MOL1         0.0833
      20    H13     20.041795   18.804325   20.671441 H          1 MOL1         0.0833
      21    C8      18.575584   18.259922   22.216730 C.3        1 MOL1        -0.1684
      22    H14     18.114071   17.286417   22.431582 H          1 MOL1         0.0833
      23    H15     17.850162   18.794984   21.589102 H          1 MOL1         0.0833
      24    O1      23.170147   18.531719   23.187610 O.3        1 MOL1        -0.5508
      25    H16     23.533720   19.203293   23.801500 H          1 MOL1         0.3780
@<TRIPOS>BOND
    1     1     2    1
    2     1     3    1
    3     1     4    1
    4     4     5    1
    5     4     6    1
    6     4     7    1
    7     7     8    1
    8     7     9    1
    9     7    10    1
   10    10    11    1
   11    10    12    1
   12    10    13    1
   13    13    14    1
   14    13    15    1
   15    15    16    1
   16    15    17    1
   17    15    18    1
   18    18    19    1
   19    18    20    1
   20     1    21    1
   21    18    21    1
   22    21    22    1
   23    21    23    1
   24    13    24    1
   25    24    25    1
@<TRIPOS>SUBSTRUCTURE
       1 MOL1            1 RESIDUE      1      MOL     
@<SCITEGIC>MOL_PROPERTY
VConf Rank
SciTegic.value.IntegerValue
871

@<SCITEGIC>MOL_PROPERTY
Conf_Id
SciTegic.value.IntegerValue
161

@<SCITEGIC>MOL_PROPERTY
Delta U+W
SciTegic.value.DoubleValue
2.120

@<SCITEGIC>MOL_PROPERTY
U+W
SciTegic.value.DoubleValue
13.033

@<SCITEGIC>MOL_PROPERTY
Grad RMS
SciTegic.value.DoubleValue
0.000000

@<SCITEGIC>MOL_PROPERTY
U
SciTegic.value.DoubleValue
15.076

@<SCITEGIC>MOL_PROPERTY
W
SciTegic.value.DoubleValue
-2.043

@<SCITEGIC>MOL_PROPERTY
W(PB)
SciTegic.value.DoubleValue
-4.186

@<SCITEGIC>MOL_PROPERTY
W(SA)
SciTegic.value.DoubleValue
2.143

@<SCITEGIC>MOL_PROPERTY
Valence
SciTegic.value.DoubleValue
18.884

@<SCITEGIC>MOL_PROPERTY
Coulomb
SciTegic.value.DoubleValue
-8.074

@<SCITEGIC>MOL_PROPERTY
VdW
SciTegic.value.DoubleValue
4.266

@<SCITEGIC>MOL_PROPERTY
VdW6
SciTegic.value.DoubleValue
-13.486

@<SCITEGIC>MOL_PROPERTY
VdW12
SciTegic.value.DoubleValue
17.752

@<SCITEGIC>MOL_PROPERTY
Bond
SciTegic.value.DoubleValue
0.713

@<SCITEGIC>MOL_PROPERTY
Angle
SciTegic.value.DoubleValue
8.955

@<SCITEGIC>MOL_PROPERTY
Pdih
SciTegic.value.DoubleValue
9.215

@<SCITEGIC>MOL_PROPERTY
Idih
SciTegic.value.DoubleValue
0.000

@<SCITEGIC>MOL_PROPERTY
Tether
SciTegic.value.DoubleValue
0.000

@<TRIPOS>MOLECULE
guest-s17_confgen4.mol2 : confsearch ligand conformer 872
          25          25           1
SMALL
USER_CHARGES
 
@<TRIPOS>ATOM
       1    C1      19.096251   19.662556   21.145037 C.3        1 MOL1        -0.1684
       2    H1      18.236966   19.924414   20.512545 H          1 MOL1         0.0833
       3    H2      19.887958   19.382218   20.438748 H          1 MOL1         0.0833
       4    C2      18.699879   18.438489   22.007723 C.3        1 MOL1        -0.1684
       5    H3      18.195729   18.757579   22.929787 H          1 MOL1         0.0833
       6    H4      17.941656   17.881436   21.440306 H          1 MOL1         0.0833
       7    C3      19.853753   17.443251   22.313346 C.3        1 MOL1        -0.1684
       8    H5      20.527363   17.340702   21.451941 H          1 MOL1         0.0833
       9    H6      19.393542   16.453769   22.441148 H          1 MOL1         0.0833
      10    C4      20.655402   17.735646   23.608081 C.3        1 MOL1        -0.1760
      11    H7      19.989889   18.158771   24.370332 H          1 MOL1         0.0833
      12    H8      20.983233   16.772858   24.021844 H          1 MOL1         0.0833
      13    C5      21.930572   18.600923   23.443554 C.3        1 MOL1         0.1219
      14    H9      22.680619   17.998678   22.911103 H          1 MOL1         0.0790
      15    C6      21.766293   19.928052   22.667265 C.3        1 MOL1        -0.1760
      16    H10     22.669146   20.533058   22.825088 H          1 MOL1         0.0833
      17    H11     21.765778   19.714215   21.593005 H          1 MOL1         0.0833
      18    C7      20.524080   20.769204   23.065513 C.3        1 MOL1        -0.1684
      19    H12     20.859062   21.767112   23.379670 H          1 MOL1         0.0833
      20    H13     20.025672   20.349213   23.946591 H          1 MOL1         0.0833
      21    C8      19.490018   20.943323   21.927497 C.3        1 MOL1        -0.1684
      22    H14     19.877358   21.677806   21.208253 H          1 MOL1         0.0833
      23    H15     18.582344   21.392347   22.353275 H          1 MOL1         0.0833
      24    O1      22.424586   18.904499   24.740533 O.3        1 MOL1        -0.5508
      25    H16     21.795793   19.549936   25.122421 H          1 MOL1         0.3780
@<TRIPOS>BOND
    1     1     2    1
    2     1     3    1
    3     1     4    1
    4     4     5    1
    5     4     6    1
    6     4     7    1
    7     7     8    1
    8     7     9    1
    9     7    10    1
   10    10    11    1
   11    10    12    1
   12    10    13    1
   13    13    14    1
   14    13    15    1
   15    15    16    1
   16    15    17    1
   17    15    18    1
   18    18    19    1
   19    18    20    1
   20     1    21    1
   21    18    21    1
   22    21    22    1
   23    21    23    1
   24    13    24    1
   25    24    25    1
@<TRIPOS>SUBSTRUCTURE
       1 MOL1            1 RESIDUE      1      MOL     
@<SCITEGIC>MOL_PROPERTY
VConf Rank
SciTegic.value.IntegerValue
872

@<SCITEGIC>MOL_PROPERTY
Conf_Id
SciTegic.value.IntegerValue
164

@<SCITEGIC>MOL_PROPERTY
Delta U+W
SciTegic.value.DoubleValue
0.008

@<SCITEGIC>MOL_PROPERTY
U+W
SciTegic.value.DoubleValue
10.922

@<SCITEGIC>MOL_PROPERTY
Grad RMS
SciTegic.value.DoubleValue
0.000000

@<SCITEGIC>MOL_PROPERTY
U
SciTegic.value.DoubleValue
12.433

@<SCITEGIC>MOL_PROPERTY
W
SciTegic.value.DoubleValue
-1.511

@<SCITEGIC>MOL_PROPERTY
W(PB)
SciTegic.value.DoubleValue
-3.669

@<SCITEGIC>MOL_PROPERTY
W(SA)
SciTegic.value.DoubleValue
2.157

@<SCITEGIC>MOL_PROPERTY
Valence
SciTegic.value.DoubleValue
19.007

@<SCITEGIC>MOL_PROPERTY
Coulomb
SciTegic.value.DoubleValue
-9.373

@<SCITEGIC>MOL_PROPERTY
VdW
SciTegic.value.DoubleValue
2.799

@<SCITEGIC>MOL_PROPERTY
VdW6
SciTegic.value.DoubleValue
-12.597

@<SCITEGIC>MOL_PROPERTY
VdW12
SciTegic.value.DoubleValue
15.396

@<SCITEGIC>MOL_PROPERTY
Bond
SciTegic.value.DoubleValue
0.425

@<SCITEGIC>MOL_PROPERTY
Angle
SciTegic.value.DoubleValue
4.784

@<SCITEGIC>MOL_PROPERTY
Pdih
SciTegic.value.DoubleValue
13.799

@<SCITEGIC>MOL_PROPERTY
Idih
SciTegic.value.DoubleValue
0.000

@<SCITEGIC>MOL_PROPERTY
Tether
SciTegic.value.DoubleValue
0.000

@<TRIPOS>MOLECULE
guest-s17_confgen4.mol2 : confsearch ligand conformer 873
          25          25           1
SMALL
USER_CHARGES
 
@<TRIPOS>ATOM
       1    C1      19.163112   18.982382   24.028072 C.3        1 MOL1        -0.1684
       2    H1      20.111058   19.285112   24.487065 H          1 MOL1         0.0833
       3    H2      18.476957   18.846645   24.875090 H          1 MOL1         0.0833
       4    C2      19.313994   17.605953   23.333523 C.3        1 MOL1        -0.1684
       5    H3      19.610285   16.880058   24.103062 H          1 MOL1         0.0833
       6    H4      18.331722   17.271852   22.972933 H          1 MOL1         0.0833
       7    C3      20.335893   17.508563   22.172058 C.3        1 MOL1        -0.1684
       8    H5      19.887803   17.857460   21.234749 H          1 MOL1         0.0833
       9    H6      20.532099   16.441057   22.001949 H          1 MOL1         0.0833
      10    C4      21.693856   18.216894   22.423021 C.3        1 MOL1        -0.1760
      11    H7      21.897724   18.305788   23.496946 H          1 MOL1         0.0833
      12    H8      22.481817   17.559604   22.031453 H          1 MOL1         0.0833
      13    C5      21.855056   19.586453   21.716766 C.3        1 MOL1         0.1219
      14    H9      21.636463   19.448566   20.648214 H          1 MOL1         0.0790
      15    C6      20.972845   20.745768   22.244186 C.3        1 MOL1        -0.1760
      16    H10     21.153008   20.917846   23.312226 H          1 MOL1         0.0833
      17    H11     21.312380   21.661269   21.741382 H          1 MOL1         0.0833
      18    C7      19.455608   20.596061   21.953735 C.3        1 MOL1        -0.1684
      19    H12     19.292510   19.945367   21.087097 H          1 MOL1         0.0833
      20    H13     19.068395   21.574826   21.638952 H          1 MOL1         0.0833
      21    C8      18.594666   20.128916   23.155119 C.3        1 MOL1        -0.1684
      22    H14     17.597409   19.847370   22.790814 H          1 MOL1         0.0833
      23    H15     18.437005   20.995203   23.812075 H          1 MOL1         0.0833
      24    O1      23.212955   19.983085   21.850901 O.3        1 MOL1        -0.5508
      25    H16     23.374021   20.096709   22.810033 H          1 MOL1         0.3780
@<TRIPOS>BOND
    1     1     2    1
    2     1     3    1
    3     1     4    1
    4     4     5    1
    5     4     6    1
    6     4     7    1
    7     7     8    1
    8     7     9    1
    9     7    10    1
   10    10    11    1
   11    10    12    1
   12    10    13    1
   13    13    14    1
   14    13    15    1
   15    15    16    1
   16    15    17    1
   17    15    18    1
   18    18    19    1
   19    18    20    1
   20     1    21    1
   21    18    21    1
   22    21    22    1
   23    21    23    1
   24    13    24    1
   25    24    25    1
@<TRIPOS>SUBSTRUCTURE
       1 MOL1            1 RESIDUE      1      MOL     
@<SCITEGIC>MOL_PROPERTY
VConf Rank
SciTegic.value.IntegerValue
873

@<SCITEGIC>MOL_PROPERTY
Conf_Id
SciTegic.value.IntegerValue
15

@<SCITEGIC>MOL_PROPERTY
Delta U+W
SciTegic.value.DoubleValue
-1.271

@<SCITEGIC>MOL_PROPERTY
U+W
SciTegic.value.DoubleValue
9.643

@<SCITEGIC>MOL_PROPERTY
Grad RMS
SciTegic.value.DoubleValue
0.000000

@<SCITEGIC>MOL_PROPERTY
U
SciTegic.value.DoubleValue
11.413

@<SCITEGIC>MOL_PROPERTY
W
SciTegic.value.DoubleValue
-1.770

@<SCITEGIC>MOL_PROPERTY
W(PB)
SciTegic.value.DoubleValue
-3.908

@<SCITEGIC>MOL_PROPERTY
W(SA)
SciTegic.value.DoubleValue
2.138

@<SCITEGIC>MOL_PROPERTY
Valence
SciTegic.value.DoubleValue
17.496

@<SCITEGIC>MOL_PROPERTY
Coulomb
SciTegic.value.DoubleValue
-8.736

@<SCITEGIC>MOL_PROPERTY
VdW
SciTegic.value.DoubleValue
2.653

@<SCITEGIC>MOL_PROPERTY
VdW6
SciTegic.value.DoubleValue
-12.485

@<SCITEGIC>MOL_PROPERTY
VdW12
SciTegic.value.DoubleValue
15.138

@<SCITEGIC>MOL_PROPERTY
Bond
SciTegic.value.DoubleValue
0.414

@<SCITEGIC>MOL_PROPERTY
Angle
SciTegic.value.DoubleValue
5.295

@<SCITEGIC>MOL_PROPERTY
Pdih
SciTegic.value.DoubleValue
11.787

@<SCITEGIC>MOL_PROPERTY
Idih
SciTegic.value.DoubleValue
0.000

@<SCITEGIC>MOL_PROPERTY
Tether
SciTegic.value.DoubleValue
0.000

@<TRIPOS>MOLECULE
guest-s17_confgen4.mol2 : confsearch ligand conformer 874
          25          25           1
SMALL
USER_CHARGES
 
@<TRIPOS>ATOM
       1    C1      18.538790   19.470251   23.257579 C.3        1 MOL1        -0.1684
       2    H1      17.463344   19.460598   23.481865 H          1 MOL1         0.0833
       3    H2      18.853893   20.504825   23.443401 H          1 MOL1         0.0833
       4    C2      19.219506   18.502495   24.261022 C.3        1 MOL1        -0.1684
       5    H3      19.124000   18.932439   25.267427 H          1 MOL1         0.0833
       6    H4      18.655400   17.560149   24.284326 H          1 MOL1         0.0833
       7    C3      20.708949   18.170084   24.003349 C.3        1 MOL1        -0.1684
       8    H5      20.785199   17.423290   23.204440 H          1 MOL1         0.0833
       9    H6      21.105301   17.667230   24.896002 H          1 MOL1         0.0833
      10    C4      21.590931   19.408268   23.696000 C.3        1 MOL1        -0.1760
      11    H7      21.036063   20.336724   23.870592 H          1 MOL1         0.0833
      12    H8      22.417317   19.433460   24.418252 H          1 MOL1         0.0833
      13    C5      22.209876   19.418796   22.279292 C.3        1 MOL1         0.1219
      14    H9      23.019450   18.675015   22.264839 H          1 MOL1         0.0790
      15    C6      21.257116   19.078713   21.104102 C.3        1 MOL1        -0.1760
      16    H10     21.802660   19.296322   20.176006 H          1 MOL1         0.0833
      17    H11     21.076935   17.997627   21.068056 H          1 MOL1         0.0833
      18    C7      19.903874   19.837155   21.053675 C.3        1 MOL1        -0.1684
      19    H12     19.632296   19.929311   19.993064 H          1 MOL1         0.0833
      20    H13     20.013158   20.868214   21.413933 H          1 MOL1         0.0833
      21    C8      18.717611   19.123463   21.758801 C.3        1 MOL1        -0.1684
      22    H14     18.764321   18.035989   21.612499 H          1 MOL1         0.0833
      23    H15     17.801489   19.446485   21.245426 H          1 MOL1         0.0833
      24    O1      22.768299   20.704664   22.048826 O.3        1 MOL1        -0.5508
      25    H16     22.008861   21.316977   21.974861 H          1 MOL1         0.3780
@<TRIPOS>BOND
    1     1     2    1
    2     1     3    1
    3     1     4    1
    4     4     5    1
    5     4     6    1
    6     4     7    1
    7     7     8    1
    8     7     9    1
    9     7    10    1
   10    10    11    1
   11    10    12    1
   12    10    13    1
   13    13    14    1
   14    13    15    1
   15    15    16    1
   16    15    17    1
   17    15    18    1
   18    18    19    1
   19    18    20    1
   20     1    21    1
   21    18    21    1
   22    21    22    1
   23    21    23    1
   24    13    24    1
   25    24    25    1
@<TRIPOS>SUBSTRUCTURE
       1 MOL1            1 RESIDUE      1      MOL     
@<SCITEGIC>MOL_PROPERTY
VConf Rank
SciTegic.value.IntegerValue
874

@<SCITEGIC>MOL_PROPERTY
Conf_Id
SciTegic.value.IntegerValue
115

@<SCITEGIC>MOL_PROPERTY
Delta U+W
SciTegic.value.DoubleValue
0.038

@<SCITEGIC>MOL_PROPERTY
U+W
SciTegic.value.DoubleValue
10.952

@<SCITEGIC>MOL_PROPERTY
Grad RMS
SciTegic.value.DoubleValue
0.000000

@<SCITEGIC>MOL_PROPERTY
U
SciTegic.value.DoubleValue
12.526

@<SCITEGIC>MOL_PROPERTY
W
SciTegic.value.DoubleValue
-1.575

@<SCITEGIC>MOL_PROPERTY
W(PB)
SciTegic.value.DoubleValue
-3.698

@<SCITEGIC>MOL_PROPERTY
W(SA)
SciTegic.value.DoubleValue
2.123

@<SCITEGIC>MOL_PROPERTY
Valence
SciTegic.value.DoubleValue
19.016

@<SCITEGIC>MOL_PROPERTY
Coulomb
SciTegic.value.DoubleValue
-9.226

@<SCITEGIC>MOL_PROPERTY
VdW
SciTegic.value.DoubleValue
2.737

@<SCITEGIC>MOL_PROPERTY
VdW6
SciTegic.value.DoubleValue
-12.612

@<SCITEGIC>MOL_PROPERTY
VdW12
SciTegic.value.DoubleValue
15.349

@<SCITEGIC>MOL_PROPERTY
Bond
SciTegic.value.DoubleValue
0.421

@<SCITEGIC>MOL_PROPERTY
Angle
SciTegic.value.DoubleValue
4.883

@<SCITEGIC>MOL_PROPERTY
Pdih
SciTegic.value.DoubleValue
13.711

@<SCITEGIC>MOL_PROPERTY
Idih
SciTegic.value.DoubleValue
0.000

@<SCITEGIC>MOL_PROPERTY
Tether
SciTegic.value.DoubleValue
0.000

@<TRIPOS>MOLECULE
guest-s17_confgen4.mol2 : confsearch ligand conformer 875
          25          25           1
SMALL
USER_CHARGES
 
@<TRIPOS>ATOM
       1    C1      21.236954   18.928163   20.746188 C.3        1 MOL1        -0.1684
       2    H1      21.336465   18.419259   19.777633 H          1 MOL1         0.0833
       3    H2      21.859515   19.829875   20.669972 H          1 MOL1         0.0833
       4    C2      21.806984   17.979016   21.825874 C.3        1 MOL1        -0.1684
       5    H3      21.259460   17.026782   21.818033 H          1 MOL1         0.0833
       6    H4      22.836296   17.729782   21.533648 H          1 MOL1         0.0833
       7    C3      21.846456   18.560656   23.258016 C.3        1 MOL1        -0.1684
       8    H5      22.178602   19.607151   23.235546 H          1 MOL1         0.0833
       9    H6      22.626314   18.019320   23.811136 H          1 MOL1         0.0833
      10    C4      20.519745   18.402825   24.048502 C.3        1 MOL1        -0.1760
      11    H7      19.842178   17.696080   23.553302 H          1 MOL1         0.0833
      12    H8      20.767165   17.942320   25.014565 H          1 MOL1         0.0833
      13    C5      19.782648   19.731226   24.331332 C.3        1 MOL1         0.1219
      14    H9      20.527062   20.518704   24.516796 H          1 MOL1         0.0790
      15    C6      18.832981   20.193752   23.204107 C.3        1 MOL1        -0.1760
      16    H10     18.044961   19.445327   23.047665 H          1 MOL1         0.0833
      17    H11     18.319809   21.098990   23.554265 H          1 MOL1         0.0833
      18    C7      19.516922   20.536315   21.858170 C.3        1 MOL1        -0.1684
      19    H12     20.447884   21.092136   22.032537 H          1 MOL1         0.0833
      20    H13     18.857213   21.234570   21.324828 H          1 MOL1         0.0833
      21    C8      19.751046   19.317725   20.927457 C.3        1 MOL1        -0.1684
      22    H14     19.359819   19.582432   19.935451 H          1 MOL1         0.0833
      23    H15     19.163122   18.447528   21.248283 H          1 MOL1         0.0833
      24    O1      18.999118   19.558386   25.506004 O.3        1 MOL1        -0.5508
      25    H16     18.583123   20.424434   25.698988 H          1 MOL1         0.3780
@<TRIPOS>BOND
    1     1     2    1
    2     1     3    1
    3     1     4    1
    4     4     5    1
    5     4     6    1
    6     4     7    1
    7     7     8    1
    8     7     9    1
    9     7    10    1
   10    10    11    1
   11    10    12    1
   12    10    13    1
   13    13    14    1
   14    13    15    1
   15    15    16    1
   16    15    17    1
   17    15    18    1
   18    18    19    1
   19    18    20    1
   20     1    21    1
   21    18    21    1
   22    21    22    1
   23    21    23    1
   24    13    24    1
   25    24    25    1
@<TRIPOS>SUBSTRUCTURE
       1 MOL1            1 RESIDUE      1      MOL     
@<SCITEGIC>MOL_PROPERTY
VConf Rank
SciTegic.value.IntegerValue
875

@<SCITEGIC>MOL_PROPERTY
Conf_Id
SciTegic.value.IntegerValue
30

@<SCITEGIC>MOL_PROPERTY
Delta U+W
SciTegic.value.DoubleValue
0.000

@<SCITEGIC>MOL_PROPERTY
U+W
SciTegic.value.DoubleValue
10.913

@<SCITEGIC>MOL_PROPERTY
Grad RMS
SciTegic.value.DoubleValue
0.000000

@<SCITEGIC>MOL_PROPERTY
U
SciTegic.value.DoubleValue
13.140

@<SCITEGIC>MOL_PROPERTY
W
SciTegic.value.DoubleValue
-2.227

@<SCITEGIC>MOL_PROPERTY
W(PB)
SciTegic.value.DoubleValue
-4.367

@<SCITEGIC>MOL_PROPERTY
W(SA)
SciTegic.value.DoubleValue
2.140

@<SCITEGIC>MOL_PROPERTY
Valence
SciTegic.value.DoubleValue
19.155

@<SCITEGIC>MOL_PROPERTY
Coulomb
SciTegic.value.DoubleValue
-8.157

@<SCITEGIC>MOL_PROPERTY
VdW
SciTegic.value.DoubleValue
2.142

@<SCITEGIC>MOL_PROPERTY
VdW6
SciTegic.value.DoubleValue
-11.576

@<SCITEGIC>MOL_PROPERTY
VdW12
SciTegic.value.DoubleValue
13.718

@<SCITEGIC>MOL_PROPERTY
Bond
SciTegic.value.DoubleValue
0.294

@<SCITEGIC>MOL_PROPERTY
Angle
SciTegic.value.DoubleValue
3.547

@<SCITEGIC>MOL_PROPERTY
Pdih
SciTegic.value.DoubleValue
15.314

@<SCITEGIC>MOL_PROPERTY
Idih
SciTegic.value.DoubleValue
0.000

@<SCITEGIC>MOL_PROPERTY
Tether
SciTegic.value.DoubleValue
0.000

@<TRIPOS>MOLECULE
guest-s17_confgen4.mol2 : confsearch ligand conformer 876
          25          25           1
SMALL
USER_CHARGES
 
@<TRIPOS>ATOM
       1    C1      21.507907   17.811496   21.628103 C.3        1 MOL1        -0.1684
       2    H1      22.347418   17.903917   20.925581 H          1 MOL1         0.0833
       3    H2      21.301185   16.735224   21.703452 H          1 MOL1         0.0833
       4    C2      20.268661   18.500799   21.005838 C.3        1 MOL1        -0.1684
       5    H3      20.213833   18.207696   19.948504 H          1 MOL1         0.0833
       6    H4      19.355860   18.091592   21.454056 H          1 MOL1         0.0833
       7    C3      20.286563   20.048185   21.089963 C.3        1 MOL1        -0.1684
       8    H5      20.174087   20.457887   20.076957 H          1 MOL1         0.0833
       9    H6      21.262216   20.412421   21.432118 H          1 MOL1         0.0833
      10    C4      19.165290   20.646076   21.976997 C.3        1 MOL1        -0.1760
      11    H7      19.373202   21.713983   22.125677 H          1 MOL1         0.0833
      12    H8      18.219839   20.597732   21.421162 H          1 MOL1         0.0833
      13    C5      18.933864   19.979637   23.356300 C.3        1 MOL1         0.1219
      14    H9      18.477921   18.991587   23.208447 H          1 MOL1         0.0790
      15    C6      20.203055   19.813464   24.227413 C.3        1 MOL1        -0.1760
      16    H10     20.912424   20.626579   24.026938 H          1 MOL1         0.0833
      17    H11     19.913038   19.934534   25.279663 H          1 MOL1         0.0833
      18    C7      20.900403   18.428460   24.112441 C.3        1 MOL1        -0.1684
      19    H12     20.164339   17.619830   24.008766 H          1 MOL1         0.0833
      20    H13     21.402718   18.243759   25.072026 H          1 MOL1         0.0833
      21    C8      21.985017   18.328831   23.011311 C.3        1 MOL1        -0.1684
      22    H14     22.759332   17.633121   23.362723 H          1 MOL1         0.0833
      23    H15     22.501989   19.291144   22.906328 H          1 MOL1         0.0833
      24    O1      18.005799   20.792446   24.064998 O.3        1 MOL1        -0.5508
      25    H16     17.802678   20.324898   24.902013 H          1 MOL1         0.3780
@<TRIPOS>BOND
    1     1     2    1
    2     1     3    1
    3     1     4    1
    4     4     5    1
    5     4     6    1
    6     4     7    1
    7     7     8    1
    8     7     9    1
    9     7    10    1
   10    10    11    1
   11    10    12    1
   12    10    13    1
   13    13    14    1
   14    13    15    1
   15    15    16    1
   16    15    17    1
   17    15    18    1
   18    18    19    1
   19    18    20    1
   20     1    21    1
   21    18    21    1
   22    21    22    1
   23    21    23    1
   24    13    24    1
   25    24    25    1
@<TRIPOS>SUBSTRUCTURE
       1 MOL1            1 RESIDUE      1      MOL     
@<SCITEGIC>MOL_PROPERTY
VConf Rank
SciTegic.value.IntegerValue
876

@<SCITEGIC>MOL_PROPERTY
Conf_Id
SciTegic.value.IntegerValue
162

@<SCITEGIC>MOL_PROPERTY
Delta U+W
SciTegic.value.DoubleValue
0.219

@<SCITEGIC>MOL_PROPERTY
U+W
SciTegic.value.DoubleValue
11.132

@<SCITEGIC>MOL_PROPERTY
Grad RMS
SciTegic.value.DoubleValue
0.000000

@<SCITEGIC>MOL_PROPERTY
U
SciTegic.value.DoubleValue
13.296

@<SCITEGIC>MOL_PROPERTY
W
SciTegic.value.DoubleValue
-2.164

@<SCITEGIC>MOL_PROPERTY
W(PB)
SciTegic.value.DoubleValue
-4.311

@<SCITEGIC>MOL_PROPERTY
W(SA)
SciTegic.value.DoubleValue
2.148

@<SCITEGIC>MOL_PROPERTY
Valence
SciTegic.value.DoubleValue
18.607

@<SCITEGIC>MOL_PROPERTY
Coulomb
SciTegic.value.DoubleValue
-8.339

@<SCITEGIC>MOL_PROPERTY
VdW
SciTegic.value.DoubleValue
3.028

@<SCITEGIC>MOL_PROPERTY
VdW6
SciTegic.value.DoubleValue
-12.271

@<SCITEGIC>MOL_PROPERTY
VdW12
SciTegic.value.DoubleValue
15.299

@<SCITEGIC>MOL_PROPERTY
Bond
SciTegic.value.DoubleValue
0.423

@<SCITEGIC>MOL_PROPERTY
Angle
SciTegic.value.DoubleValue
4.488

@<SCITEGIC>MOL_PROPERTY
Pdih
SciTegic.value.DoubleValue
13.696

@<SCITEGIC>MOL_PROPERTY
Idih
SciTegic.value.DoubleValue
0.000

@<SCITEGIC>MOL_PROPERTY
Tether
SciTegic.value.DoubleValue
0.000

@<TRIPOS>MOLECULE
guest-s17_confgen4.mol2 : confsearch ligand conformer 877
          25          25           1
SMALL
USER_CHARGES
 
@<TRIPOS>ATOM
       1    C1      19.138220   20.781075   23.045946 C.3        1 MOL1        -0.1684
       2    H1      19.812062   21.396787   22.436823 H          1 MOL1         0.0833
       3    H2      18.325521   21.460430   23.337429 H          1 MOL1         0.0833
       4    C2      18.528638   19.650020   22.180598 C.3        1 MOL1        -0.1684
       5    H3      18.151929   18.835115   22.813252 H          1 MOL1         0.0833
       6    H4      17.640726   20.069474   21.687841 H          1 MOL1         0.0833
       7    C3      19.452840   19.106190   21.055582 C.3        1 MOL1        -0.1684
       8    H5      20.048639   19.912409   20.607028 H          1 MOL1         0.0833
       9    H6      18.796008   18.748452   20.250768 H          1 MOL1         0.0833
      10    C4      20.356227   17.912528   21.460863 C.3        1 MOL1        -0.1760
      11    H7      19.837381   17.282395   22.193684 H          1 MOL1         0.0833
      12    H8      20.482886   17.272905   20.577655 H          1 MOL1         0.0833
      13    C5      21.780944   18.265501   21.957769 C.3        1 MOL1         0.1219
      14    H9      22.359849   18.622573   21.093790 H          1 MOL1         0.0790
      15    C6      21.874149   19.352729   23.054720 C.3        1 MOL1        -0.1760
      16    H10     22.894200   19.353469   23.460302 H          1 MOL1         0.0833
      17    H11     21.765501   20.338020   22.588916 H          1 MOL1         0.0833
      18    C7      20.871899   19.181043   24.226681 C.3        1 MOL1        -0.1684
      19    H12     21.435622   19.119362   25.167304 H          1 MOL1         0.0833
      20    H13     20.345010   18.222290   24.153941 H          1 MOL1         0.0833
      21    C8      19.841983   20.329541   24.353207 C.3        1 MOL1        -0.1684
      22    H14     20.341796   21.204086   24.791496 H          1 MOL1         0.0833
      23    H15     19.077458   20.026504   25.081481 H          1 MOL1         0.0833
      24    O1      22.377276   17.071744   22.451158 O.3        1 MOL1        -0.5508
      25    H16     23.273945   17.312679   22.762689 H          1 MOL1         0.3780
@<TRIPOS>BOND
    1     1     2    1
    2     1     3    1
    3     1     4    1
    4     4     5    1
    5     4     6    1
    6     4     7    1
    7     7     8    1
    8     7     9    1
    9     7    10    1
   10    10    11    1
   11    10    12    1
   12    10    13    1
   13    13    14    1
   14    13    15    1
   15    15    16    1
   16    15    17    1
   17    15    18    1
   18    18    19    1
   19    18    20    1
   20     1    21    1
   21    18    21    1
   22    21    22    1
   23    21    23    1
   24    13    24    1
   25    24    25    1
@<TRIPOS>SUBSTRUCTURE
       1 MOL1            1 RESIDUE      1      MOL     
@<SCITEGIC>MOL_PROPERTY
VConf Rank
SciTegic.value.IntegerValue
877

@<SCITEGIC>MOL_PROPERTY
Conf_Id
SciTegic.value.IntegerValue
155

@<SCITEGIC>MOL_PROPERTY
Delta U+W
SciTegic.value.DoubleValue
0.339

@<SCITEGIC>MOL_PROPERTY
U+W
SciTegic.value.DoubleValue
11.252

@<SCITEGIC>MOL_PROPERTY
Grad RMS
SciTegic.value.DoubleValue
0.000000

@<SCITEGIC>MOL_PROPERTY
U
SciTegic.value.DoubleValue
13.420

@<SCITEGIC>MOL_PROPERTY
W
SciTegic.value.DoubleValue
-2.167

@<SCITEGIC>MOL_PROPERTY
W(PB)
SciTegic.value.DoubleValue
-4.325

@<SCITEGIC>MOL_PROPERTY
W(SA)
SciTegic.value.DoubleValue
2.157

@<SCITEGIC>MOL_PROPERTY
Valence
SciTegic.value.DoubleValue
18.609

@<SCITEGIC>MOL_PROPERTY
Coulomb
SciTegic.value.DoubleValue
-8.052

@<SCITEGIC>MOL_PROPERTY
VdW
SciTegic.value.DoubleValue
2.863

@<SCITEGIC>MOL_PROPERTY
VdW6
SciTegic.value.DoubleValue
-12.524

@<SCITEGIC>MOL_PROPERTY
VdW12
SciTegic.value.DoubleValue
15.387

@<SCITEGIC>MOL_PROPERTY
Bond
SciTegic.value.DoubleValue
0.430

@<SCITEGIC>MOL_PROPERTY
Angle
SciTegic.value.DoubleValue
4.724

@<SCITEGIC>MOL_PROPERTY
Pdih
SciTegic.value.DoubleValue
13.455

@<SCITEGIC>MOL_PROPERTY
Idih
SciTegic.value.DoubleValue
0.000

@<SCITEGIC>MOL_PROPERTY
Tether
SciTegic.value.DoubleValue
0.000

@<TRIPOS>MOLECULE
guest-s17_confgen4.mol2 : confsearch ligand conformer 878
          25          25           1
SMALL
USER_CHARGES
 
@<TRIPOS>ATOM
       1    C1      21.368140   17.793691   21.696580 C.3        1 MOL1        -0.1684
       2    H1      20.866207   16.817230   21.666174 H          1 MOL1         0.0833
       3    H2      22.303730   17.658940   21.136851 H          1 MOL1         0.0833
       4    C2      20.519282   18.829265   20.913097 C.3        1 MOL1        -0.1684
       5    H3      21.072633   19.771052   20.842535 H          1 MOL1         0.0833
       6    H4      20.458927   18.488173   19.870634 H          1 MOL1         0.0833
       7    C3      19.061097   19.078970   21.397413 C.3        1 MOL1        -0.1684
       8    H5      18.421503   18.326061   20.917205 H          1 MOL1         0.0833
       9    H6      18.717680   20.047233   21.008502 H          1 MOL1         0.0833
      10    C4      18.773699   19.012648   22.922177 C.3        1 MOL1        -0.1760
      11    H7      17.685295   19.071034   23.053575 H          1 MOL1         0.0833
      12    H8      19.014725   18.011475   23.290025 H          1 MOL1         0.0833
      13    C5      19.422340   20.094284   23.835213 C.3        1 MOL1         0.1219
      14    H9      19.477823   19.683518   24.853526 H          1 MOL1         0.0790
      15    C6      20.832757   20.608423   23.451904 C.3        1 MOL1        -0.1760
      16    H10     20.785644   21.078690   22.465421 H          1 MOL1         0.0833
      17    H11     21.074090   21.441913   24.124717 H          1 MOL1         0.0833
      18    C7      22.020993   19.603346   23.530780 C.3        1 MOL1        -0.1684
      19    H12     22.396972   19.619112   24.562879 H          1 MOL1         0.0833
      20    H13     22.846830   19.980792   22.912839 H          1 MOL1         0.0833
      21    C8      21.751074   18.118819   23.170211 C.3        1 MOL1        -0.1684
      22    H14     21.013544   17.704483   23.864727 H          1 MOL1         0.0833
      23    H15     22.663878   17.551591   23.398073 H          1 MOL1         0.0833
      24    O1      18.559352   21.226181   23.850919 O.3        1 MOL1        -0.5508
      25    H16     17.680511   20.907950   24.143509 H          1 MOL1         0.3780
@<TRIPOS>BOND
    1     1     2    1
    2     1     3    1
    3     1     4    1
    4     4     5    1
    5     4     6    1
    6     4     7    1
    7     7     8    1
    8     7     9    1
    9     7    10    1
   10    10    11    1
   11    10    12    1
   12    10    13    1
   13    13    14    1
   14    13    15    1
   15    15    16    1
   16    15    17    1
   17    15    18    1
   18    18    19    1
   19    18    20    1
   20     1    21    1
   21    18    21    1
   22    21    22    1
   23    21    23    1
   24    13    24    1
   25    24    25    1
@<TRIPOS>SUBSTRUCTURE
       1 MOL1            1 RESIDUE      1      MOL     
@<SCITEGIC>MOL_PROPERTY
VConf Rank
SciTegic.value.IntegerValue
878

@<SCITEGIC>MOL_PROPERTY
Conf_Id
SciTegic.value.IntegerValue
146

@<SCITEGIC>MOL_PROPERTY
Delta U+W
SciTegic.value.DoubleValue
2.553

@<SCITEGIC>MOL_PROPERTY
U+W
SciTegic.value.DoubleValue
13.466

@<SCITEGIC>MOL_PROPERTY
Grad RMS
SciTegic.value.DoubleValue
0.000000

@<SCITEGIC>MOL_PROPERTY
U
SciTegic.value.DoubleValue
15.643

@<SCITEGIC>MOL_PROPERTY
W
SciTegic.value.DoubleValue
-2.176

@<SCITEGIC>MOL_PROPERTY
W(PB)
SciTegic.value.DoubleValue
-4.307

@<SCITEGIC>MOL_PROPERTY
W(SA)
SciTegic.value.DoubleValue
2.131

@<SCITEGIC>MOL_PROPERTY
Valence
SciTegic.value.DoubleValue
18.916

@<SCITEGIC>MOL_PROPERTY
Coulomb
SciTegic.value.DoubleValue
-7.506

@<SCITEGIC>MOL_PROPERTY
VdW
SciTegic.value.DoubleValue
4.232

@<SCITEGIC>MOL_PROPERTY
VdW6
SciTegic.value.DoubleValue
-13.632

@<SCITEGIC>MOL_PROPERTY
VdW12
SciTegic.value.DoubleValue
17.864

@<SCITEGIC>MOL_PROPERTY
Bond
SciTegic.value.DoubleValue
0.735

@<SCITEGIC>MOL_PROPERTY
Angle
SciTegic.value.DoubleValue
9.140

@<SCITEGIC>MOL_PROPERTY
Pdih
SciTegic.value.DoubleValue
9.042

@<SCITEGIC>MOL_PROPERTY
Idih
SciTegic.value.DoubleValue
0.000

@<SCITEGIC>MOL_PROPERTY
Tether
SciTegic.value.DoubleValue
0.000

@<TRIPOS>MOLECULE
guest-s17_confgen4.mol2 : confsearch ligand conformer 879
          25          25           1
SMALL
USER_CHARGES
 
@<TRIPOS>ATOM
       1    C1      22.320702   19.254924   22.131560 C.3        1 MOL1        -0.1684
       2    H1      22.774210   20.057771   21.534675 H          1 MOL1         0.0833
       3    H2      23.132720   18.544206   22.337519 H          1 MOL1         0.0833
       4    C2      21.264499   18.514208   21.273705 C.3        1 MOL1        -0.1684
       5    H3      21.788710   18.089356   20.406811 H          1 MOL1         0.0833
       6    H4      20.876425   17.643678   21.814744 H          1 MOL1         0.0833
       7    C3      20.100358   19.378840   20.728206 C.3        1 MOL1        -0.1684
       8    H5      19.508312   18.747353   20.051681 H          1 MOL1         0.0833
       9    H6      20.508302   20.184397   20.102823 H          1 MOL1         0.0833
      10    C4      19.131794   19.993297   21.772250 C.3        1 MOL1        -0.1760
      11    H7      19.557697   20.909566   22.193115 H          1 MOL1         0.0833
      12    H8      18.240597   20.330973   21.226103 H          1 MOL1         0.0833
      13    C5      18.695342   19.034254   22.909712 C.3        1 MOL1         0.1219
      14    H9      18.857100   17.994011   22.596705 H          1 MOL1         0.0790
      15    C6      19.415969   19.282080   24.259173 C.3        1 MOL1        -0.1760
      16    H10     19.280206   20.331348   24.552982 H          1 MOL1         0.0833
      17    H11     18.905329   18.689917   25.029841 H          1 MOL1         0.0833
      18    C7      20.925129   18.922026   24.325511 C.3        1 MOL1        -0.1684
      19    H12     21.085271   17.865698   24.073864 H          1 MOL1         0.0833
      20    H13     21.230930   19.015513   25.376571 H          1 MOL1         0.0833
      21    C8      21.851161   19.841522   23.487969 C.3        1 MOL1        -0.1684
      22    H14     22.753663   20.047464   24.079675 H          1 MOL1         0.0833
      23    H15     21.389500   20.824942   23.344518 H          1 MOL1         0.0833
      24    O1      17.302202   19.219460   23.133789 O.3        1 MOL1        -0.5508
      25    H16     17.034967   18.565093   23.812472 H          1 MOL1         0.3780
@<TRIPOS>BOND
    1     1     2    1
    2     1     3    1
    3     1     4    1
    4     4     5    1
    5     4     6    1
    6     4     7    1
    7     7     8    1
    8     7     9    1
    9     7    10    1
   10    10    11    1
   11    10    12    1
   12    10    13    1
   13    13    14    1
   14    13    15    1
   15    15    16    1
   16    15    17    1
   17    15    18    1
   18    18    19    1
   19    18    20    1
   20     1    21    1
   21    18    21    1
   22    21    22    1
   23    21    23    1
   24    13    24    1
   25    24    25    1
@<TRIPOS>SUBSTRUCTURE
       1 MOL1            1 RESIDUE      1      MOL     
@<SCITEGIC>MOL_PROPERTY
VConf Rank
SciTegic.value.IntegerValue
879

@<SCITEGIC>MOL_PROPERTY
Conf_Id
SciTegic.value.IntegerValue
62

@<SCITEGIC>MOL_PROPERTY
Delta U+W
SciTegic.value.DoubleValue
-1.779

@<SCITEGIC>MOL_PROPERTY
U+W
SciTegic.value.DoubleValue
9.134

@<SCITEGIC>MOL_PROPERTY
Grad RMS
SciTegic.value.DoubleValue
0.000000

@<SCITEGIC>MOL_PROPERTY
U
SciTegic.value.DoubleValue
11.364

@<SCITEGIC>MOL_PROPERTY
W
SciTegic.value.DoubleValue
-2.230

@<SCITEGIC>MOL_PROPERTY
W(PB)
SciTegic.value.DoubleValue
-4.359

@<SCITEGIC>MOL_PROPERTY
W(SA)
SciTegic.value.DoubleValue
2.129

@<SCITEGIC>MOL_PROPERTY
Valence
SciTegic.value.DoubleValue
16.582

@<SCITEGIC>MOL_PROPERTY
Coulomb
SciTegic.value.DoubleValue
-8.150

@<SCITEGIC>MOL_PROPERTY
VdW
SciTegic.value.DoubleValue
2.933

@<SCITEGIC>MOL_PROPERTY
VdW6
SciTegic.value.DoubleValue
-12.531

@<SCITEGIC>MOL_PROPERTY
VdW12
SciTegic.value.DoubleValue
15.464

@<SCITEGIC>MOL_PROPERTY
Bond
SciTegic.value.DoubleValue
0.439

@<SCITEGIC>MOL_PROPERTY
Angle
SciTegic.value.DoubleValue
5.099

@<SCITEGIC>MOL_PROPERTY
Pdih
SciTegic.value.DoubleValue
11.044

@<SCITEGIC>MOL_PROPERTY
Idih
SciTegic.value.DoubleValue
0.000

@<SCITEGIC>MOL_PROPERTY
Tether
SciTegic.value.DoubleValue
0.000

@<TRIPOS>MOLECULE
guest-s17_confgen4.mol2 : confsearch ligand conformer 880
          25          25           1
SMALL
USER_CHARGES
 
@<TRIPOS>ATOM
       1    C1      20.989998   17.743733   23.660269 C.3        1 MOL1        -0.1684
       2    H1      21.258494   17.499169   22.626237 H          1 MOL1         0.0833
       3    H2      21.337654   16.882766   24.247220 H          1 MOL1         0.0833
       4    C2      19.450439   17.815316   23.816111 C.3        1 MOL1        -0.1684
       5    H3      19.046103   16.831181   23.542472 H          1 MOL1         0.0833
       6    H4      19.199175   17.955205   24.876202 H          1 MOL1         0.0833
       7    C3      18.704305   18.883974   22.977078 C.3        1 MOL1        -0.1684
       8    H5      18.735161   19.857671   23.479028 H          1 MOL1         0.0833
       9    H6      17.640501   18.609485   22.975744 H          1 MOL1         0.0833
      10    C4      19.172909   19.015803   21.503190 C.3        1 MOL1        -0.1760
      11    H7      19.643998   18.088583   21.154495 H          1 MOL1         0.0833
      12    H8      18.272464   19.132554   20.886009 H          1 MOL1         0.0833
      13    C5      20.089757   20.231722   21.216266 C.3        1 MOL1         0.1219
      14    H9      19.587312   21.137094   21.586174 H          1 MOL1         0.0790
      15    C6      21.510206   20.183780   21.832654 C.3        1 MOL1        -0.1760
      16    H10     22.047703   19.290950   21.490982 H          1 MOL1         0.0833
      17    H11     22.068171   21.032991   21.416329 H          1 MOL1         0.0833
      18    C7      21.559170   20.310634   23.378966 C.3        1 MOL1        -0.1684
      19    H12     20.664959   20.823476   23.750888 H          1 MOL1         0.0833
      20    H13     22.389213   20.980635   23.641787 H          1 MOL1         0.0833
      21    C8      21.783739   18.982280   24.145755 C.3        1 MOL1        -0.1684
      22    H14     21.581452   19.147814   25.212602 H          1 MOL1         0.0833
      23    H15     22.851956   18.734060   24.081097 H          1 MOL1         0.0833
      24    O1      20.238954   20.336281   19.805864 O.3        1 MOL1        -0.5508
      25    H16     19.338402   20.434573   19.432379 H          1 MOL1         0.3780
@<TRIPOS>BOND
    1     1     2    1
    2     1     3    1
    3     1     4    1
    4     4     5    1
    5     4     6    1
    6     4     7    1
    7     7     8    1
    8     7     9    1
    9     7    10    1
   10    10    11    1
   11    10    12    1
   12    10    13    1
   13    13    14    1
   14    13    15    1
   15    15    16    1
   16    15    17    1
   17    15    18    1
   18    18    19    1
   19    18    20    1
   20     1    21    1
   21    18    21    1
   22    21    22    1
   23    21    23    1
   24    13    24    1
   25    24    25    1
@<TRIPOS>SUBSTRUCTURE
       1 MOL1            1 RESIDUE      1      MOL     
@<SCITEGIC>MOL_PROPERTY
VConf Rank
SciTegic.value.IntegerValue
880

@<SCITEGIC>MOL_PROPERTY
Conf_Id
SciTegic.value.IntegerValue
121

@<SCITEGIC>MOL_PROPERTY
Delta U+W
SciTegic.value.DoubleValue
-1.283

@<SCITEGIC>MOL_PROPERTY
U+W
SciTegic.value.DoubleValue
9.630

@<SCITEGIC>MOL_PROPERTY
Grad RMS
SciTegic.value.DoubleValue
0.000000

@<SCITEGIC>MOL_PROPERTY
U
SciTegic.value.DoubleValue
11.876

@<SCITEGIC>MOL_PROPERTY
W
SciTegic.value.DoubleValue
-2.246

@<SCITEGIC>MOL_PROPERTY
W(PB)
SciTegic.value.DoubleValue
-4.376

@<SCITEGIC>MOL_PROPERTY
W(SA)
SciTegic.value.DoubleValue
2.130

@<SCITEGIC>MOL_PROPERTY
Valence
SciTegic.value.DoubleValue
17.153

@<SCITEGIC>MOL_PROPERTY
Coulomb
SciTegic.value.DoubleValue
-7.966

@<SCITEGIC>MOL_PROPERTY
VdW
SciTegic.value.DoubleValue
2.689

@<SCITEGIC>MOL_PROPERTY
VdW6
SciTegic.value.DoubleValue
-12.458

@<SCITEGIC>MOL_PROPERTY
VdW12
SciTegic.value.DoubleValue
15.147

@<SCITEGIC>MOL_PROPERTY
Bond
SciTegic.value.DoubleValue
0.421

@<SCITEGIC>MOL_PROPERTY
Angle
SciTegic.value.DoubleValue
5.258

@<SCITEGIC>MOL_PROPERTY
Pdih
SciTegic.value.DoubleValue
11.475

@<SCITEGIC>MOL_PROPERTY
Idih
SciTegic.value.DoubleValue
0.000

@<SCITEGIC>MOL_PROPERTY
Tether
SciTegic.value.DoubleValue
0.000

@<TRIPOS>MOLECULE
guest-s17_confgen4.mol2 : confsearch ligand conformer 881
          25          25           1
SMALL
USER_CHARGES
 
@<TRIPOS>ATOM
       1    C1      21.840471   20.360818   22.502339 C.3        1 MOL1        -0.1684
       2    H1      22.258386   19.350345   22.575933 H          1 MOL1         0.0833
       3    H2      22.715693   21.014107   22.384696 H          1 MOL1         0.0833
       4    C2      21.146351   20.756067   23.829629 C.3        1 MOL1        -0.1684
       5    H3      21.906379   20.718017   24.621962 H          1 MOL1         0.0833
       6    H4      20.827658   21.805750   23.774100 H          1 MOL1         0.0833
       7    C3      19.944718   19.888720   24.284283 C.3        1 MOL1        -0.1684
       8    H5      19.024546   20.214195   23.785991 H          1 MOL1         0.0833
       9    H6      19.772660   20.105543   25.347454 H          1 MOL1         0.0833
      10    C4      20.135798   18.356265   24.127308 C.3        1 MOL1        -0.1760
      11    H7      21.199050   18.087408   24.126746 H          1 MOL1         0.0833
      12    H8      19.718686   17.880365   25.024720 H          1 MOL1         0.0833
      13    C5      19.416049   17.728048   22.907792 C.3        1 MOL1         0.1219
      14    H9      18.357868   18.024333   22.945831 H          1 MOL1         0.0790
      15    C6      19.974778   18.100358   21.511156 C.3        1 MOL1        -0.1760
      16    H10     21.034333   17.826669   21.435723 H          1 MOL1         0.0833
      17    H11     19.460039   17.469762   20.774450 H          1 MOL1         0.0833
      18    C7      19.748019   19.576676   21.088815 C.3        1 MOL1        -0.1684
      19    H12     18.892828   20.003161   21.625242 H          1 MOL1         0.0833
      20    H13     19.443637   19.588798   20.033245 H          1 MOL1         0.0833
      21    C8      20.986480   20.499927   21.217425 C.3        1 MOL1        -0.1684
      22    H14     20.665408   21.544483   21.106479 H          1 MOL1         0.0833
      23    H15     21.645195   20.299239   20.361442 H          1 MOL1         0.0833
      24    O1      19.499646   16.314863   23.043234 O.3        1 MOL1        -0.5508
      25    H16     18.983889   15.928657   22.305000 H          1 MOL1         0.3780
@<TRIPOS>BOND
    1     1     2    1
    2     1     3    1
    3     1     4    1
    4     4     5    1
    5     4     6    1
    6     4     7    1
    7     7     8    1
    8     7     9    1
    9     7    10    1
   10    10    11    1
   11    10    12    1
   12    10    13    1
   13    13    14    1
   14    13    15    1
   15    15    16    1
   16    15    17    1
   17    15    18    1
   18    18    19    1
   19    18    20    1
   20     1    21    1
   21    18    21    1
   22    21    22    1
   23    21    23    1
   24    13    24    1
   25    24    25    1
@<TRIPOS>SUBSTRUCTURE
       1 MOL1            1 RESIDUE      1      MOL     
@<SCITEGIC>MOL_PROPERTY
VConf Rank
SciTegic.value.IntegerValue
881

@<SCITEGIC>MOL_PROPERTY
Conf_Id
SciTegic.value.IntegerValue
24

@<SCITEGIC>MOL_PROPERTY
Delta U+W
SciTegic.value.DoubleValue
-1.236

@<SCITEGIC>MOL_PROPERTY
U+W
SciTegic.value.DoubleValue
9.678

@<SCITEGIC>MOL_PROPERTY
Grad RMS
SciTegic.value.DoubleValue
0.000000

@<SCITEGIC>MOL_PROPERTY
U
SciTegic.value.DoubleValue
11.876

@<SCITEGIC>MOL_PROPERTY
W
SciTegic.value.DoubleValue
-2.199

@<SCITEGIC>MOL_PROPERTY
W(PB)
SciTegic.value.DoubleValue
-4.335

@<SCITEGIC>MOL_PROPERTY
W(SA)
SciTegic.value.DoubleValue
2.137

@<SCITEGIC>MOL_PROPERTY
Valence
SciTegic.value.DoubleValue
17.153

@<SCITEGIC>MOL_PROPERTY
Coulomb
SciTegic.value.DoubleValue
-7.966

@<SCITEGIC>MOL_PROPERTY
VdW
SciTegic.value.DoubleValue
2.689

@<SCITEGIC>MOL_PROPERTY
VdW6
SciTegic.value.DoubleValue
-12.458

@<SCITEGIC>MOL_PROPERTY
VdW12
SciTegic.value.DoubleValue
15.147

@<SCITEGIC>MOL_PROPERTY
Bond
SciTegic.value.DoubleValue
0.421

@<SCITEGIC>MOL_PROPERTY
Angle
SciTegic.value.DoubleValue
5.258

@<SCITEGIC>MOL_PROPERTY
Pdih
SciTegic.value.DoubleValue
11.475

@<SCITEGIC>MOL_PROPERTY
Idih
SciTegic.value.DoubleValue
0.000

@<SCITEGIC>MOL_PROPERTY
Tether
SciTegic.value.DoubleValue
0.000

@<TRIPOS>MOLECULE
guest-s17_confgen4.mol2 : confsearch ligand conformer 882
          25          25           1
SMALL
USER_CHARGES
 
@<TRIPOS>ATOM
       1    C1      18.626387   19.429920   21.275887 C.3        1 MOL1        -0.1684
       2    H1      17.632668   19.780733   21.586094 H          1 MOL1         0.0833
       3    H2      18.538362   19.196541   20.206009 H          1 MOL1         0.0833
       4    C2      19.640057   20.594988   21.428501 C.3        1 MOL1        -0.1684
       5    H3      20.544301   20.400424   20.837924 H          1 MOL1         0.0833
       6    H4      19.184953   21.478046   20.959293 H          1 MOL1         0.0833
       7    C3      20.027036   20.973566   22.879565 C.3        1 MOL1        -0.1684
       8    H5      19.173852   20.839983   23.558306 H          1 MOL1         0.0833
       9    H6      20.235210   22.052387   22.882776 H          1 MOL1         0.0833
      10    C4      21.298488   20.267405   23.429724 C.3        1 MOL1        -0.1760
      11    H7      22.049602   20.144005   22.639105 H          1 MOL1         0.0833
      12    H8      21.748354   20.955545   24.158444 H          1 MOL1         0.0833
      13    C5      21.039657   18.920705   24.148393 C.3        1 MOL1         0.1219
      14    H9      20.031088   18.944859   24.581845 H          1 MOL1         0.0790
      15    C6      21.186613   17.656832   23.263613 C.3        1 MOL1        -0.1760
      16    H10     22.248986   17.486598   23.045081 H          1 MOL1         0.0833
      17    H11     20.858979   16.794413   23.859021 H          1 MOL1         0.0833
      18    C7      20.409779   17.647224   21.923062 C.3        1 MOL1        -0.1684
      19    H12     20.419440   16.621027   21.531162 H          1 MOL1         0.0833
      20    H13     20.954138   18.236620   21.176084 H          1 MOL1         0.0833
      21    C8      18.938909   18.120514   22.040924 C.3        1 MOL1        -0.1684
      22    H14     18.641212   18.227358   23.090503 H          1 MOL1         0.0833
      23    H15     18.283757   17.332414   21.645265 H          1 MOL1         0.0833
      24    O1      21.970185   18.797795   25.216437 O.3        1 MOL1        -0.5508
      25    H16     22.860851   18.799022   24.809393 H          1 MOL1         0.3780
@<TRIPOS>BOND
    1     1     2    1
    2     1     3    1
    3     1     4    1
    4     4     5    1
    5     4     6    1
    6     4     7    1
    7     7     8    1
    8     7     9    1
    9     7    10    1
   10    10    11    1
   11    10    12    1
   12    10    13    1
   13    13    14    1
   14    13    15    1
   15    15    16    1
   16    15    17    1
   17    15    18    1
   18    18    19    1
   19    18    20    1
   20     1    21    1
   21    18    21    1
   22    21    22    1
   23    21    23    1
   24    13    24    1
   25    24    25    1
@<TRIPOS>SUBSTRUCTURE
       1 MOL1            1 RESIDUE      1      MOL     
@<SCITEGIC>MOL_PROPERTY
VConf Rank
SciTegic.value.IntegerValue
882

@<SCITEGIC>MOL_PROPERTY
Conf_Id
SciTegic.value.IntegerValue
167

@<SCITEGIC>MOL_PROPERTY
Delta U+W
SciTegic.value.DoubleValue
0.388

@<SCITEGIC>MOL_PROPERTY
U+W
SciTegic.value.DoubleValue
11.301

@<SCITEGIC>MOL_PROPERTY
Grad RMS
SciTegic.value.DoubleValue
0.000000

@<SCITEGIC>MOL_PROPERTY
U
SciTegic.value.DoubleValue
13.202

@<SCITEGIC>MOL_PROPERTY
W
SciTegic.value.DoubleValue
-1.901

@<SCITEGIC>MOL_PROPERTY
W(PB)
SciTegic.value.DoubleValue
-4.065

@<SCITEGIC>MOL_PROPERTY
W(SA)
SciTegic.value.DoubleValue
2.163

@<SCITEGIC>MOL_PROPERTY
Valence
SciTegic.value.DoubleValue
18.957

@<SCITEGIC>MOL_PROPERTY
Coulomb
SciTegic.value.DoubleValue
-8.753

@<SCITEGIC>MOL_PROPERTY
VdW
SciTegic.value.DoubleValue
2.998

@<SCITEGIC>MOL_PROPERTY
VdW6
SciTegic.value.DoubleValue
-12.294

@<SCITEGIC>MOL_PROPERTY
VdW12
SciTegic.value.DoubleValue
15.292

@<SCITEGIC>MOL_PROPERTY
Bond
SciTegic.value.DoubleValue
0.419

@<SCITEGIC>MOL_PROPERTY
Angle
SciTegic.value.DoubleValue
4.543

@<SCITEGIC>MOL_PROPERTY
Pdih
SciTegic.value.DoubleValue
13.996

@<SCITEGIC>MOL_PROPERTY
Idih
SciTegic.value.DoubleValue
0.000

@<SCITEGIC>MOL_PROPERTY
Tether
SciTegic.value.DoubleValue
0.000

@<TRIPOS>MOLECULE
guest-s17_confgen4.mol2 : confsearch ligand conformer 883
          25          25           1
SMALL
USER_CHARGES
 
@<TRIPOS>ATOM
       1    C1      18.668678   17.999326   22.453375 C.3        1 MOL1        -0.1684
       2    H1      17.731898   18.360051   22.007477 H          1 MOL1         0.0833
       3    H2      18.496236   16.939867   22.687315 H          1 MOL1         0.0833
       4    C2      18.907363   18.745074   23.792103 C.3        1 MOL1        -0.1684
       5    H3      18.648159   19.805394   23.695457 H          1 MOL1         0.0833
       6    H4      18.178948   18.351290   24.514169 H          1 MOL1         0.0833
       7    C3      20.324302   18.584520   24.401488 C.3        1 MOL1        -0.1684
       8    H5      20.794876   17.651450   24.065765 H          1 MOL1         0.0833
       9    H6      20.205579   18.471027   25.487733 H          1 MOL1         0.0833
      10    C4      21.272935   19.792991   24.173577 C.3        1 MOL1        -0.1760
      11    H7      20.797864   20.706737   24.553864 H          1 MOL1         0.0833
      12    H8      22.161148   19.638321   24.800427 H          1 MOL1         0.0833
      13    C5      21.759016   20.037055   22.723209 C.3        1 MOL1         0.1219
      14    H9      22.204400   19.112022   22.333207 H          1 MOL1         0.0790
      15    C6      20.650473   20.533199   21.759000 C.3        1 MOL1        -0.1760
      16    H10     19.833572   20.989212   22.327331 H          1 MOL1         0.0833
      17    H11     21.042061   21.352277   21.141171 H          1 MOL1         0.0833
      18    C7      20.093915   19.456864   20.791267 C.3        1 MOL1        -0.1684
      19    H12     20.824328   19.320206   19.982090 H          1 MOL1         0.0833
      20    H13     19.186015   19.845344   20.310275 H          1 MOL1         0.0833
      21    C8      19.796445   18.060189   21.392666 C.3        1 MOL1        -0.1684
      22    H14     20.713462   17.606472   21.785564 H          1 MOL1         0.0833
      23    H15     19.498355   17.405200   20.562634 H          1 MOL1         0.0833
      24    O1      22.776954   21.029433   22.779330 O.3        1 MOL1        -0.5508
      25    H16     23.125028   21.126322   21.868301 H          1 MOL1         0.3780
@<TRIPOS>BOND
    1     1     2    1
    2     1     3    1
    3     1     4    1
    4     4     5    1
    5     4     6    1
    6     4     7    1
    7     7     8    1
    8     7     9    1
    9     7    10    1
   10    10    11    1
   11    10    12    1
   12    10    13    1
   13    13    14    1
   14    13    15    1
   15    15    16    1
   16    15    17    1
   17    15    18    1
   18    18    19    1
   19    18    20    1
   20     1    21    1
   21    18    21    1
   22    21    22    1
   23    21    23    1
   24    13    24    1
   25    24    25    1
@<TRIPOS>SUBSTRUCTURE
       1 MOL1            1 RESIDUE      1      MOL     
@<SCITEGIC>MOL_PROPERTY
VConf Rank
SciTegic.value.IntegerValue
883

@<SCITEGIC>MOL_PROPERTY
Conf_Id
SciTegic.value.IntegerValue
60

@<SCITEGIC>MOL_PROPERTY
Delta U+W
SciTegic.value.DoubleValue
-1.838

@<SCITEGIC>MOL_PROPERTY
U+W
SciTegic.value.DoubleValue
9.075

@<SCITEGIC>MOL_PROPERTY
Grad RMS
SciTegic.value.DoubleValue
0.000000

@<SCITEGIC>MOL_PROPERTY
U
SciTegic.value.DoubleValue
11.150

@<SCITEGIC>MOL_PROPERTY
W
SciTegic.value.DoubleValue
-2.074

@<SCITEGIC>MOL_PROPERTY
W(PB)
SciTegic.value.DoubleValue
-4.196

@<SCITEGIC>MOL_PROPERTY
W(SA)
SciTegic.value.DoubleValue
2.121

@<SCITEGIC>MOL_PROPERTY
Valence
SciTegic.value.DoubleValue
16.582

@<SCITEGIC>MOL_PROPERTY
Coulomb
SciTegic.value.DoubleValue
-8.361

@<SCITEGIC>MOL_PROPERTY
VdW
SciTegic.value.DoubleValue
2.928

@<SCITEGIC>MOL_PROPERTY
VdW6
SciTegic.value.DoubleValue
-12.539

@<SCITEGIC>MOL_PROPERTY
VdW12
SciTegic.value.DoubleValue
15.467

@<SCITEGIC>MOL_PROPERTY
Bond
SciTegic.value.DoubleValue
0.441

@<SCITEGIC>MOL_PROPERTY
Angle
SciTegic.value.DoubleValue
5.093

@<SCITEGIC>MOL_PROPERTY
Pdih
SciTegic.value.DoubleValue
11.049

@<SCITEGIC>MOL_PROPERTY
Idih
SciTegic.value.DoubleValue
0.000

@<SCITEGIC>MOL_PROPERTY
Tether
SciTegic.value.DoubleValue
0.000

@<TRIPOS>MOLECULE
guest-s17_confgen4.mol2 : confsearch ligand conformer 884
          25          25           1
SMALL
USER_CHARGES
 
@<TRIPOS>ATOM
       1    C1      19.273934   20.718318   23.559851 C.3        1 MOL1        -0.1684
       2    H1      19.788574   21.510730   24.119969 H          1 MOL1         0.0833
       3    H2      18.202003   20.942265   23.647779 H          1 MOL1         0.0833
       4    C2      19.519794   19.356873   24.257479 C.3        1 MOL1        -0.1684
       5    H3      19.104321   19.431085   25.271726 H          1 MOL1         0.0833
       6    H4      18.929113   18.569779   23.775060 H          1 MOL1         0.0833
       7    C3      20.999377   18.918874   24.398403 C.3        1 MOL1        -0.1684
       8    H5      21.017612   18.005420   25.008497 H          1 MOL1         0.0833
       9    H6      21.547599   19.674454   24.977283 H          1 MOL1         0.0833
      10    C4      21.773743   18.631066   23.086045 C.3        1 MOL1        -0.1760
      11    H7      22.128270   19.567300   22.643269 H          1 MOL1         0.0833
      12    H8      22.692151   18.096468   23.362943 H          1 MOL1         0.0833
      13    C5      20.992191   17.804870   22.031863 C.3        1 MOL1         0.1219
      14    H9      20.163185   17.272275   22.516886 H          1 MOL1         0.0790
      15    C6      20.435354   18.645228   20.855795 C.3        1 MOL1        -0.1760
      16    H10     21.257597   19.204021   20.390059 H          1 MOL1         0.0833
      17    H11     20.079545   17.946569   20.086992 H          1 MOL1         0.0833
      18    C7      19.268282   19.617626   21.179268 C.3        1 MOL1        -0.1684
      19    H12     18.416836   19.074532   21.609219 H          1 MOL1         0.0833
      20    H13     18.903270   20.010017   20.220258 H          1 MOL1         0.0833
      21    C8      19.658064   20.831900   22.061568 C.3        1 MOL1        -0.1684
      22    H14     19.147042   21.719828   21.664737 H          1 MOL1         0.0833
      23    H15     20.724190   21.060371   21.952112 H          1 MOL1         0.0833
      24    O1      21.877101   16.837586   21.479178 O.3        1 MOL1        -0.5508
      25    H16     22.169564   16.268236   22.221352 H          1 MOL1         0.3780
@<TRIPOS>BOND
    1     1     2    1
    2     1     3    1
    3     1     4    1
    4     4     5    1
    5     4     6    1
    6     4     7    1
    7     7     8    1
    8     7     9    1
    9     7    10    1
   10    10    11    1
   11    10    12    1
   12    10    13    1
   13    13    14    1
   14    13    15    1
   15    15    16    1
   16    15    17    1
   17    15    18    1
   18    18    19    1
   19    18    20    1
   20     1    21    1
   21    18    21    1
   22    21    22    1
   23    21    23    1
   24    13    24    1
   25    24    25    1
@<TRIPOS>SUBSTRUCTURE
       1 MOL1            1 RESIDUE      1      MOL     
@<SCITEGIC>MOL_PROPERTY
VConf Rank
SciTegic.value.IntegerValue
884

@<SCITEGIC>MOL_PROPERTY
Conf_Id
SciTegic.value.IntegerValue
129

@<SCITEGIC>MOL_PROPERTY
Delta U+W
SciTegic.value.DoubleValue
-1.846

@<SCITEGIC>MOL_PROPERTY
U+W
SciTegic.value.DoubleValue
9.067

@<SCITEGIC>MOL_PROPERTY
Grad RMS
SciTegic.value.DoubleValue
0.000000

@<SCITEGIC>MOL_PROPERTY
U
SciTegic.value.DoubleValue
11.150

@<SCITEGIC>MOL_PROPERTY
W
SciTegic.value.DoubleValue
-2.083

@<SCITEGIC>MOL_PROPERTY
W(PB)
SciTegic.value.DoubleValue
-4.217

@<SCITEGIC>MOL_PROPERTY
W(SA)
SciTegic.value.DoubleValue
2.134

@<SCITEGIC>MOL_PROPERTY
Valence
SciTegic.value.DoubleValue
16.583

@<SCITEGIC>MOL_PROPERTY
Coulomb
SciTegic.value.DoubleValue
-8.361

@<SCITEGIC>MOL_PROPERTY
VdW
SciTegic.value.DoubleValue
2.928

@<SCITEGIC>MOL_PROPERTY
VdW6
SciTegic.value.DoubleValue
-12.539

@<SCITEGIC>MOL_PROPERTY
VdW12
SciTegic.value.DoubleValue
15.467

@<SCITEGIC>MOL_PROPERTY
Bond
SciTegic.value.DoubleValue
0.441

@<SCITEGIC>MOL_PROPERTY
Angle
SciTegic.value.DoubleValue
5.093

@<SCITEGIC>MOL_PROPERTY
Pdih
SciTegic.value.DoubleValue
11.049

@<SCITEGIC>MOL_PROPERTY
Idih
SciTegic.value.DoubleValue
0.000

@<SCITEGIC>MOL_PROPERTY
Tether
SciTegic.value.DoubleValue
0.000

@<TRIPOS>MOLECULE
guest-s17_confgen4.mol2 : confsearch ligand conformer 885
          25          25           1
SMALL
USER_CHARGES
 
@<TRIPOS>ATOM
       1    C1      19.175906   18.431658   24.214844 C.3        1 MOL1        -0.1684
       2    H1      19.243679   18.865658   25.221600 H          1 MOL1         0.0833
       3    H2      18.461220   17.601444   24.297841 H          1 MOL1         0.0833
       4    C2      20.547043   17.823885   23.826501 C.3        1 MOL1        -0.1684
       5    H3      20.774431   17.038162   24.559809 H          1 MOL1         0.0833
       6    H4      20.472294   17.294326   22.869851 H          1 MOL1         0.0833
       7    C3      21.748457   18.802005   23.814084 C.3        1 MOL1        -0.1684
       8    H5      22.655975   18.208316   23.638026 H          1 MOL1         0.0833
       9    H6      21.869316   19.241238   24.813566 H          1 MOL1         0.0833
      10    C4      21.716347   19.942247   22.763326 C.3        1 MOL1        -0.1760
      11    H7      21.098110   20.770710   23.123839 H          1 MOL1         0.0833
      12    H8      22.732126   20.357029   22.710755 H          1 MOL1         0.0833
      13    C5      21.265282   19.513442   21.343030 C.3        1 MOL1         0.1219
      14    H9      21.385306   18.427916   21.228588 H          1 MOL1         0.0790
      15    C6      19.807990   19.905936   20.992108 C.3        1 MOL1        -0.1760
      16    H10     19.676001   20.986432   21.134664 H          1 MOL1         0.0833
      17    H11     19.663996   19.727262   19.918061 H          1 MOL1         0.0833
      18    C7      18.678243   19.150968   21.743583 C.3        1 MOL1        -0.1684
      19    H12     18.759713   18.068174   21.583232 H          1 MOL1         0.0833
      20    H13     17.729769   19.439919   21.270433 H          1 MOL1         0.0833
      21    C8      18.566354   19.484829   23.253737 C.3        1 MOL1        -0.1684
      22    H14     17.500652   19.572600   23.505979 H          1 MOL1         0.0833
      23    H15     18.977548   20.479459   23.459722 H          1 MOL1         0.0833
      24    O1      22.113654   20.150585   20.396205 O.3        1 MOL1        -0.5508
      25    H16     21.985957   21.114212   20.514776 H          1 MOL1         0.3780
@<TRIPOS>BOND
    1     1     2    1
    2     1     3    1
    3     1     4    1
    4     4     5    1
    5     4     6    1
    6     4     7    1
    7     7     8    1
    8     7     9    1
    9     7    10    1
   10    10    11    1
   11    10    12    1
   12    10    13    1
   13    13    14    1
   14    13    15    1
   15    15    16    1
   16    15    17    1
   17    15    18    1
   18    18    19    1
   19    18    20    1
   20     1    21    1
   21    18    21    1
   22    21    22    1
   23    21    23    1
   24    13    24    1
   25    24    25    1
@<TRIPOS>SUBSTRUCTURE
       1 MOL1            1 RESIDUE      1      MOL     
@<SCITEGIC>MOL_PROPERTY
VConf Rank
SciTegic.value.IntegerValue
885

@<SCITEGIC>MOL_PROPERTY
Conf_Id
SciTegic.value.IntegerValue
140

@<SCITEGIC>MOL_PROPERTY
Delta U+W
SciTegic.value.DoubleValue
-1.702

@<SCITEGIC>MOL_PROPERTY
U+W
SciTegic.value.DoubleValue
9.211

@<SCITEGIC>MOL_PROPERTY
Grad RMS
SciTegic.value.DoubleValue
0.000000

@<SCITEGIC>MOL_PROPERTY
U
SciTegic.value.DoubleValue
11.181

@<SCITEGIC>MOL_PROPERTY
W
SciTegic.value.DoubleValue
-1.969

@<SCITEGIC>MOL_PROPERTY
W(PB)
SciTegic.value.DoubleValue
-4.093

@<SCITEGIC>MOL_PROPERTY
W(SA)
SciTegic.value.DoubleValue
2.124

@<SCITEGIC>MOL_PROPERTY
Valence
SciTegic.value.DoubleValue
16.954

@<SCITEGIC>MOL_PROPERTY
Coulomb
SciTegic.value.DoubleValue
-8.661

@<SCITEGIC>MOL_PROPERTY
VdW
SciTegic.value.DoubleValue
2.887

@<SCITEGIC>MOL_PROPERTY
VdW6
SciTegic.value.DoubleValue
-12.561

@<SCITEGIC>MOL_PROPERTY
VdW12
SciTegic.value.DoubleValue
15.448

@<SCITEGIC>MOL_PROPERTY
Bond
SciTegic.value.DoubleValue
0.433

@<SCITEGIC>MOL_PROPERTY
Angle
SciTegic.value.DoubleValue
5.120

@<SCITEGIC>MOL_PROPERTY
Pdih
SciTegic.value.DoubleValue
11.401

@<SCITEGIC>MOL_PROPERTY
Idih
SciTegic.value.DoubleValue
0.000

@<SCITEGIC>MOL_PROPERTY
Tether
SciTegic.value.DoubleValue
0.000

@<TRIPOS>MOLECULE
guest-s17_confgen4.mol2 : confsearch ligand conformer 886
          25          25           1
SMALL
USER_CHARGES
 
@<TRIPOS>ATOM
       1    C1      19.545969   18.772970   20.763089 C.3        1 MOL1        -0.1684
       2    H1      19.081105   19.562391   20.157099 H          1 MOL1         0.0833
       3    H2      19.492029   17.860939   20.152998 H          1 MOL1         0.0833
       4    C2      18.686568   18.542759   22.033081 C.3        1 MOL1        -0.1684
       5    H3      18.339624   19.497945   22.443023 H          1 MOL1         0.0833
       6    H4      17.767403   18.033632   21.712181 H          1 MOL1         0.0833
       7    C3      19.351737   17.684211   23.139875 C.3        1 MOL1        -0.1684
       8    H5      20.111969   17.014689   22.717285 H          1 MOL1         0.0833
       9    H6      18.579930   17.018479   23.549848 H          1 MOL1         0.0833
      10    C4      19.931329   18.493799   24.331368 C.3        1 MOL1        -0.1760
      11    H7      19.138907   19.120945   24.760286 H          1 MOL1         0.0833
      12    H8      20.200243   17.774752   25.116792 H          1 MOL1         0.0833
      13    C5      21.179952   19.365057   24.043722 C.3        1 MOL1         0.1219
      14    H9      21.959374   18.740879   23.586800 H          1 MOL1         0.0790
      15    C6      20.903499   20.597650   23.144356 C.3        1 MOL1        -0.1760
      16    H10     19.843646   20.868597   23.187228 H          1 MOL1         0.0833
      17    H11     21.429400   21.470408   23.554644 H          1 MOL1         0.0833
      18    C7      21.358481   20.449167   21.669155 C.3        1 MOL1        -0.1684
      19    H12     22.447237   20.592846   21.637254 H          1 MOL1         0.0833
      20    H13     20.932204   21.272240   21.079802 H          1 MOL1         0.0833
      21    C8      21.045588   19.102777   20.969440 C.3        1 MOL1        -0.1684
      22    H14     21.550808   18.276302   21.482172 H          1 MOL1         0.0833
      23    H15     21.511413   19.136606   19.975123 H          1 MOL1         0.0833
      24    O1      21.668196   19.829393   25.295987 O.3        1 MOL1        -0.5508
      25    H16     20.956133   20.378181   25.684241 H          1 MOL1         0.3780
@<TRIPOS>BOND
    1     1     2    1
    2     1     3    1
    3     1     4    1
    4     4     5    1
    5     4     6    1
    6     4     7    1
    7     7     8    1
    8     7     9    1
    9     7    10    1
   10    10    11    1
   11    10    12    1
   12    10    13    1
   13    13    14    1
   14    13    15    1
   15    15    16    1
   16    15    17    1
   17    15    18    1
   18    18    19    1
   19    18    20    1
   20     1    21    1
   21    18    21    1
   22    21    22    1
   23    21    23    1
   24    13    24    1
   25    24    25    1
@<TRIPOS>SUBSTRUCTURE
       1 MOL1            1 RESIDUE      1      MOL     
@<SCITEGIC>MOL_PROPERTY
VConf Rank
SciTegic.value.IntegerValue
886

@<SCITEGIC>MOL_PROPERTY
Conf_Id
SciTegic.value.IntegerValue
68

@<SCITEGIC>MOL_PROPERTY
Delta U+W
SciTegic.value.DoubleValue
-1.765

@<SCITEGIC>MOL_PROPERTY
U+W
SciTegic.value.DoubleValue
9.148

@<SCITEGIC>MOL_PROPERTY
Grad RMS
SciTegic.value.DoubleValue
0.000000

@<SCITEGIC>MOL_PROPERTY
U
SciTegic.value.DoubleValue
11.181

@<SCITEGIC>MOL_PROPERTY
W
SciTegic.value.DoubleValue
-2.032

@<SCITEGIC>MOL_PROPERTY
W(PB)
SciTegic.value.DoubleValue
-4.147

@<SCITEGIC>MOL_PROPERTY
W(SA)
SciTegic.value.DoubleValue
2.114

@<SCITEGIC>MOL_PROPERTY
Valence
SciTegic.value.DoubleValue
16.955

@<SCITEGIC>MOL_PROPERTY
Coulomb
SciTegic.value.DoubleValue
-8.661

@<SCITEGIC>MOL_PROPERTY
VdW
SciTegic.value.DoubleValue
2.887

@<SCITEGIC>MOL_PROPERTY
VdW6
SciTegic.value.DoubleValue
-12.561

@<SCITEGIC>MOL_PROPERTY
VdW12
SciTegic.value.DoubleValue
15.448

@<SCITEGIC>MOL_PROPERTY
Bond
SciTegic.value.DoubleValue
0.433

@<SCITEGIC>MOL_PROPERTY
Angle
SciTegic.value.DoubleValue
5.121

@<SCITEGIC>MOL_PROPERTY
Pdih
SciTegic.value.DoubleValue
11.402

@<SCITEGIC>MOL_PROPERTY
Idih
SciTegic.value.DoubleValue
0.000

@<SCITEGIC>MOL_PROPERTY
Tether
SciTegic.value.DoubleValue
0.000

@<TRIPOS>MOLECULE
guest-s17_confgen4.mol2 : confsearch ligand conformer 887
          25          25           1
SMALL
USER_CHARGES
 
@<TRIPOS>ATOM
       1    C1      21.528515   18.461209   21.521731 C.3        1 MOL1        -0.1684
       2    H1      22.343130   18.136538   20.859865 H          1 MOL1         0.0833
       3    H2      20.735150   17.723326   21.357441 H          1 MOL1         0.0833
       4    C2      21.067709   19.869023   21.062359 C.3        1 MOL1        -0.1684
       5    H3      21.570180   20.657155   21.637671 H          1 MOL1         0.0833
       6    H4      21.411164   20.007472   20.028005 H          1 MOL1         0.0833
       7    C3      19.531208   20.082952   21.061102 C.3        1 MOL1        -0.1684
       8    H5      19.056332   19.310720   20.440436 H          1 MOL1         0.0833
       9    H6      19.327437   21.035321   20.552866 H          1 MOL1         0.0833
      10    C4      18.832973   20.128305   22.446369 C.3        1 MOL1        -0.1760
      11    H7      19.274200   20.914663   23.070482 H          1 MOL1         0.0833
      12    H8      17.797572   20.448832   22.267991 H          1 MOL1         0.0833
      13    C5      18.808199   18.772368   23.198505 C.3        1 MOL1         0.1219
      14    H9      18.974119   17.961813   22.479468 H          1 MOL1         0.0790
      15    C6      19.837791   18.649575   24.348682 C.3        1 MOL1        -0.1760
      16    H10     19.461372   19.209997   25.214599 H          1 MOL1         0.0833
      17    H11     19.879509   17.599372   24.665567 H          1 MOL1         0.0833
      18    C7      21.278417   19.148173   24.065734 C.3        1 MOL1        -0.1684
      19    H12     21.845502   19.057739   25.002195 H          1 MOL1         0.0833
      20    H13     21.276369   20.222071   23.846541 H          1 MOL1         0.0833
      21    C8      22.063625   18.377666   22.974906 C.3        1 MOL1        -0.1684
      22    H14     22.146036   17.321219   23.264241 H          1 MOL1         0.0833
      23    H15     23.091444   18.765719   22.975518 H          1 MOL1         0.0833
      24    O1      17.514876   18.590253   23.761385 O.3        1 MOL1        -0.5508
      25    H16     17.377770   19.331655   24.386217 H          1 MOL1         0.3780
@<TRIPOS>BOND
    1     1     2    1
    2     1     3    1
    3     1     4    1
    4     4     5    1
    5     4     6    1
    6     4     7    1
    7     7     8    1
    8     7     9    1
    9     7    10    1
   10    10    11    1
   11    10    12    1
   12    10    13    1
   13    13    14    1
   14    13    15    1
   15    15    16    1
   16    15    17    1
   17    15    18    1
   18    18    19    1
   19    18    20    1
   20     1    21    1
   21    18    21    1
   22    21    22    1
   23    21    23    1
   24    13    24    1
   25    24    25    1
@<TRIPOS>SUBSTRUCTURE
       1 MOL1            1 RESIDUE      1      MOL     
@<SCITEGIC>MOL_PROPERTY
VConf Rank
SciTegic.value.IntegerValue
887

@<SCITEGIC>MOL_PROPERTY
Conf_Id
SciTegic.value.IntegerValue
165

@<SCITEGIC>MOL_PROPERTY
Delta U+W
SciTegic.value.DoubleValue
-1.999

@<SCITEGIC>MOL_PROPERTY
U+W
SciTegic.value.DoubleValue
8.915

@<SCITEGIC>MOL_PROPERTY
Grad RMS
SciTegic.value.DoubleValue
0.000000

@<SCITEGIC>MOL_PROPERTY
U
SciTegic.value.DoubleValue
10.935

@<SCITEGIC>MOL_PROPERTY
W
SciTegic.value.DoubleValue
-2.020

@<SCITEGIC>MOL_PROPERTY
W(PB)
SciTegic.value.DoubleValue
-4.135

@<SCITEGIC>MOL_PROPERTY
W(SA)
SciTegic.value.DoubleValue
2.115

@<SCITEGIC>MOL_PROPERTY
Valence
SciTegic.value.DoubleValue
16.757

@<SCITEGIC>MOL_PROPERTY
Coulomb
SciTegic.value.DoubleValue
-8.731

@<SCITEGIC>MOL_PROPERTY
VdW
SciTegic.value.DoubleValue
2.908

@<SCITEGIC>MOL_PROPERTY
VdW6
SciTegic.value.DoubleValue
-12.597

@<SCITEGIC>MOL_PROPERTY
VdW12
SciTegic.value.DoubleValue
15.506

@<SCITEGIC>MOL_PROPERTY
Bond
SciTegic.value.DoubleValue
0.434

@<SCITEGIC>MOL_PROPERTY
Angle
SciTegic.value.DoubleValue
5.069

@<SCITEGIC>MOL_PROPERTY
Pdih
SciTegic.value.DoubleValue
11.254

@<SCITEGIC>MOL_PROPERTY
Idih
SciTegic.value.DoubleValue
0.000

@<SCITEGIC>MOL_PROPERTY
Tether
SciTegic.value.DoubleValue
0.000

@<TRIPOS>MOLECULE
guest-s17_confgen4.mol2 : confsearch ligand conformer 888
          25          25           1
SMALL
USER_CHARGES
 
@<TRIPOS>ATOM
       1    C1      21.074321   17.941004   23.777599 C.3        1 MOL1        -0.1684
       2    H1      21.449535   17.173263   24.468158 H          1 MOL1         0.0833
       3    H2      21.973675   18.320405   23.279584 H          1 MOL1         0.0833
       4    C2      20.417156   19.047597   24.643068 C.3        1 MOL1        -0.1684
       5    H3      19.841692   18.552739   25.437400 H          1 MOL1         0.0833
       6    H4      21.205647   19.613286   25.157700 H          1 MOL1         0.0833
       7    C3      19.461296   20.034801   23.927458 C.3        1 MOL1        -0.1684
       8    H5      19.017539   20.678362   24.699215 H          1 MOL1         0.0833
       9    H6      18.610729   19.495510   23.495030 H          1 MOL1         0.0833
      10    C4      20.109024   20.963745   22.868428 C.3        1 MOL1        -0.1760
      11    H7      19.336879   21.669961   22.534414 H          1 MOL1         0.0833
      12    H8      20.883723   21.570112   23.355130 H          1 MOL1         0.0833
      13    C5      20.721424   20.289134   21.616379 C.3        1 MOL1         0.1219
      14    H9      21.696018   19.860021   21.876934 H          1 MOL1         0.0790
      15    C6      19.838655   19.184272   20.980627 C.3        1 MOL1        -0.1760
      16    H10     18.785666   19.320364   21.254143 H          1 MOL1         0.0833
      17    H11     19.867722   19.302498   19.888973 H          1 MOL1         0.0833
      18    C7      20.297706   17.734271   21.290079 C.3        1 MOL1        -0.1684
      19    H12     21.344348   17.611094   20.979666 H          1 MOL1         0.0833
      20    H13     19.718660   17.056467   20.648160 H          1 MOL1         0.0833
      21    C8      20.135022   17.250017   22.754968 C.3        1 MOL1        -0.1684
      22    H14     20.368603   16.176543   22.765163 H          1 MOL1         0.0833
      23    H15     19.086648   17.316849   23.072858 H          1 MOL1         0.0833
      24    O1      20.938264   21.308043   20.646678 O.3        1 MOL1        -0.5508
      25    H16     21.533587   21.968231   21.059208 H          1 MOL1         0.3780
@<TRIPOS>BOND
    1     1     2    1
    2     1     3    1
    3     1     4    1
    4     4     5    1
    5     4     6    1
    6     4     7    1
    7     7     8    1
    8     7     9    1
    9     7    10    1
   10    10    11    1
   11    10    12    1
   12    10    13    1
   13    13    14    1
   14    13    15    1
   15    15    16    1
   16    15    17    1
   17    15    18    1
   18    18    19    1
   19    18    20    1
   20     1    21    1
   21    18    21    1
   22    21    22    1
   23    21    23    1
   24    13    24    1
   25    24    25    1
@<TRIPOS>SUBSTRUCTURE
       1 MOL1            1 RESIDUE      1      MOL     
@<SCITEGIC>MOL_PROPERTY
VConf Rank
SciTegic.value.IntegerValue
888

@<SCITEGIC>MOL_PROPERTY
Conf_Id
SciTegic.value.IntegerValue
133

@<SCITEGIC>MOL_PROPERTY
Delta U+W
SciTegic.value.DoubleValue
-2.139

@<SCITEGIC>MOL_PROPERTY
U+W
SciTegic.value.DoubleValue
8.774

@<SCITEGIC>MOL_PROPERTY
Grad RMS
SciTegic.value.DoubleValue
0.000000

@<SCITEGIC>MOL_PROPERTY
U
SciTegic.value.DoubleValue
10.905

@<SCITEGIC>MOL_PROPERTY
W
SciTegic.value.DoubleValue
-2.131

@<SCITEGIC>MOL_PROPERTY
W(PB)
SciTegic.value.DoubleValue
-4.281

@<SCITEGIC>MOL_PROPERTY
W(SA)
SciTegic.value.DoubleValue
2.150

@<SCITEGIC>MOL_PROPERTY
Valence
SciTegic.value.DoubleValue
16.378

@<SCITEGIC>MOL_PROPERTY
Coulomb
SciTegic.value.DoubleValue
-8.448

@<SCITEGIC>MOL_PROPERTY
VdW
SciTegic.value.DoubleValue
2.976

@<SCITEGIC>MOL_PROPERTY
VdW6
SciTegic.value.DoubleValue
-12.570

@<SCITEGIC>MOL_PROPERTY
VdW12
SciTegic.value.DoubleValue
15.545

@<SCITEGIC>MOL_PROPERTY
Bond
SciTegic.value.DoubleValue
0.439

@<SCITEGIC>MOL_PROPERTY
Angle
SciTegic.value.DoubleValue
5.049

@<SCITEGIC>MOL_PROPERTY
Pdih
SciTegic.value.DoubleValue
10.889

@<SCITEGIC>MOL_PROPERTY
Idih
SciTegic.value.DoubleValue
0.000

@<SCITEGIC>MOL_PROPERTY
Tether
SciTegic.value.DoubleValue
0.000

@<TRIPOS>MOLECULE
guest-s17_confgen4.mol2 : confsearch ligand conformer 889
          25          25           1
SMALL
USER_CHARGES
 
@<TRIPOS>ATOM
       1    C1      21.415017   19.105748   21.216586 C.3        1 MOL1        -0.1684
       2    H1      22.132009   18.961842   20.396647 H          1 MOL1         0.0833
       3    H2      20.859529   20.007596   20.935681 H          1 MOL1         0.0833
       4    C2      22.218611   19.344488   22.521485 C.3        1 MOL1        -0.1684
       5    H3      22.354533   18.408953   23.079077 H          1 MOL1         0.0833
       6    H4      23.232249   19.654680   22.232816 H          1 MOL1         0.0833
       7    C3      21.650552   20.456304   23.442379 C.3        1 MOL1        -0.1684
       8    H5      21.570650   21.393782   22.875157 H          1 MOL1         0.0833
       9    H6      22.392965   20.650341   24.228475 H          1 MOL1         0.0833
      10    C4      20.294400   20.160336   24.136818 C.3        1 MOL1        -0.1760
      11    H7      20.361164   19.243874   24.734948 H          1 MOL1         0.0833
      12    H8      20.126077   20.965102   24.865206 H          1 MOL1         0.0833
      13    C5      19.077540   20.105986   23.177401 C.3        1 MOL1         0.1219
      14    H9      19.335788   20.622231   22.245383 H          1 MOL1         0.0790
      15    C6      18.578073   18.677601   22.848773 C.3        1 MOL1        -0.1760
      16    H10     18.008094   18.306649   23.711347 H          1 MOL1         0.0833
      17    H11     17.864076   18.737701   22.017321 H          1 MOL1         0.0833
      18    C7      19.652727   17.612525   22.510014 C.3        1 MOL1        -0.1684
      19    H12     19.132928   16.653646   22.379409 H          1 MOL1         0.0833
      20    H13     20.316715   17.452195   23.367164 H          1 MOL1         0.0833
      21    C8      20.482341   17.866605   21.226453 C.3        1 MOL1        -0.1684
      22    H14     19.807060   17.921540   20.361845 H          1 MOL1         0.0833
      23    H15     21.105970   16.977816   21.058684 H          1 MOL1         0.0833
      24    O1      17.995559   20.807516   23.779631 O.3        1 MOL1        -0.5508
      25    H16     17.257744   20.795859   23.134703 H          1 MOL1         0.3780
@<TRIPOS>BOND
    1     1     2    1
    2     1     3    1
    3     1     4    1
    4     4     5    1
    5     4     6    1
    6     4     7    1
    7     7     8    1
    8     7     9    1
    9     7    10    1
   10    10    11    1
   11    10    12    1
   12    10    13    1
   13    13    14    1
   14    13    15    1
   15    15    16    1
   16    15    17    1
   17    15    18    1
   18    18    19    1
   19    18    20    1
   20     1    21    1
   21    18    21    1
   22    21    22    1
   23    21    23    1
   24    13    24    1
   25    24    25    1
@<TRIPOS>SUBSTRUCTURE
       1 MOL1            1 RESIDUE      1      MOL     
@<SCITEGIC>MOL_PROPERTY
VConf Rank
SciTegic.value.IntegerValue
889

@<SCITEGIC>MOL_PROPERTY
Conf_Id
SciTegic.value.IntegerValue
95

@<SCITEGIC>MOL_PROPERTY
Delta U+W
SciTegic.value.DoubleValue
-2.190

@<SCITEGIC>MOL_PROPERTY
U+W
SciTegic.value.DoubleValue
8.723

@<SCITEGIC>MOL_PROPERTY
Grad RMS
SciTegic.value.DoubleValue
0.000000

@<SCITEGIC>MOL_PROPERTY
U
SciTegic.value.DoubleValue
10.905

@<SCITEGIC>MOL_PROPERTY
W
SciTegic.value.DoubleValue
-2.182

@<SCITEGIC>MOL_PROPERTY
W(PB)
SciTegic.value.DoubleValue
-4.296

@<SCITEGIC>MOL_PROPERTY
W(SA)
SciTegic.value.DoubleValue
2.114

@<SCITEGIC>MOL_PROPERTY
Valence
SciTegic.value.DoubleValue
16.377

@<SCITEGIC>MOL_PROPERTY
Coulomb
SciTegic.value.DoubleValue
-8.448

@<SCITEGIC>MOL_PROPERTY
VdW
SciTegic.value.DoubleValue
2.976

@<SCITEGIC>MOL_PROPERTY
VdW6
SciTegic.value.DoubleValue
-12.570

@<SCITEGIC>MOL_PROPERTY
VdW12
SciTegic.value.DoubleValue
15.546

@<SCITEGIC>MOL_PROPERTY
Bond
SciTegic.value.DoubleValue
0.439

@<SCITEGIC>MOL_PROPERTY
Angle
SciTegic.value.DoubleValue
5.049

@<SCITEGIC>MOL_PROPERTY
Pdih
SciTegic.value.DoubleValue
10.889

@<SCITEGIC>MOL_PROPERTY
Idih
SciTegic.value.DoubleValue
0.000

@<SCITEGIC>MOL_PROPERTY
Tether
SciTegic.value.DoubleValue
0.000

@<TRIPOS>MOLECULE
guest-s17_confgen4.mol2 : confsearch ligand conformer 890
          25          25           1
SMALL
USER_CHARGES
 
@<TRIPOS>ATOM
       1    C1      21.999207   19.075263   23.304177 C.3        1 MOL1        -0.1684
       2    H1      23.062053   19.020243   23.576635 H          1 MOL1         0.0833
       3    H2      21.488301   18.705456   24.198857 H          1 MOL1         0.0833
       4    C2      21.786925   18.109160   22.101763 C.3        1 MOL1        -0.1684
       5    H3      22.697739   18.144180   21.488467 H          1 MOL1         0.0833
       6    H4      21.728210   17.079006   22.478336 H          1 MOL1         0.0833
       7    C3      20.591743   18.375442   21.149329 C.3        1 MOL1        -0.1684
       8    H5      20.674815   17.674379   20.307648 H          1 MOL1         0.0833
       9    H6      20.716023   19.355834   20.678781 H          1 MOL1         0.0833
      10    C4      19.157413   18.219638   21.736649 C.3        1 MOL1        -0.1760
      11    H7      18.452390   18.773056   21.102581 H          1 MOL1         0.0833
      12    H8      18.881630   17.161949   21.634171 H          1 MOL1         0.0833
      13    C5      18.923987   18.613779   23.217141 C.3        1 MOL1         0.1219
      14    H9      19.602803   18.019459   23.837471 H          1 MOL1         0.0790
      15    C6      19.074026   20.119801   23.577664 C.3        1 MOL1        -0.1760
      16    H10     18.110972   20.611129   23.384171 H          1 MOL1         0.0833
      17    H11     19.234011   20.200526   24.660335 H          1 MOL1         0.0833
      18    C7      20.160096   20.952572   22.844207 C.3        1 MOL1        -0.1684
      19    H12     20.038762   22.000124   23.151819 H          1 MOL1         0.0833
      20    H13     19.937475   20.973391   21.772723 H          1 MOL1         0.0833
      21    C8      21.648928   20.571980   23.093278 C.3        1 MOL1        -0.1684
      22    H14     21.978811   21.107821   23.993789 H          1 MOL1         0.0833
      23    H15     22.260040   20.973893   22.273857 H          1 MOL1         0.0833
      24    O1      17.596694   18.228397   23.555350 O.3        1 MOL1        -0.5508
      25    H16     17.530027   17.265469   23.386879 H          1 MOL1         0.3780
@<TRIPOS>BOND
    1     1     2    1
    2     1     3    1
    3     1     4    1
    4     4     5    1
    5     4     6    1
    6     4     7    1
    7     7     8    1
    8     7     9    1
    9     7    10    1
   10    10    11    1
   11    10    12    1
   12    10    13    1
   13    13    14    1
   14    13    15    1
   15    15    16    1
   16    15    17    1
   17    15    18    1
   18    18    19    1
   19    18    20    1
   20     1    21    1
   21    18    21    1
   22    21    22    1
   23    21    23    1
   24    13    24    1
   25    24    25    1
@<TRIPOS>SUBSTRUCTURE
       1 MOL1            1 RESIDUE      1      MOL     
@<SCITEGIC>MOL_PROPERTY
VConf Rank
SciTegic.value.IntegerValue
890

@<SCITEGIC>MOL_PROPERTY
Conf_Id
SciTegic.value.IntegerValue
161

@<SCITEGIC>MOL_PROPERTY
Delta U+W
SciTegic.value.DoubleValue
2.120

@<SCITEGIC>MOL_PROPERTY
U+W
SciTegic.value.DoubleValue
13.033

@<SCITEGIC>MOL_PROPERTY
Grad RMS
SciTegic.value.DoubleValue
0.000000

@<SCITEGIC>MOL_PROPERTY
U
SciTegic.value.DoubleValue
15.076

@<SCITEGIC>MOL_PROPERTY
W
SciTegic.value.DoubleValue
-2.043

@<SCITEGIC>MOL_PROPERTY
W(PB)
SciTegic.value.DoubleValue
-4.186

@<SCITEGIC>MOL_PROPERTY
W(SA)
SciTegic.value.DoubleValue
2.143

@<SCITEGIC>MOL_PROPERTY
Valence
SciTegic.value.DoubleValue
18.884

@<SCITEGIC>MOL_PROPERTY
Coulomb
SciTegic.value.DoubleValue
-8.074

@<SCITEGIC>MOL_PROPERTY
VdW
SciTegic.value.DoubleValue
4.266

@<SCITEGIC>MOL_PROPERTY
VdW6
SciTegic.value.DoubleValue
-13.486

@<SCITEGIC>MOL_PROPERTY
VdW12
SciTegic.value.DoubleValue
17.752

@<SCITEGIC>MOL_PROPERTY
Bond
SciTegic.value.DoubleValue
0.713

@<SCITEGIC>MOL_PROPERTY
Angle
SciTegic.value.DoubleValue
8.955

@<SCITEGIC>MOL_PROPERTY
Pdih
SciTegic.value.DoubleValue
9.215

@<SCITEGIC>MOL_PROPERTY
Idih
SciTegic.value.DoubleValue
0.000

@<SCITEGIC>MOL_PROPERTY
Tether
SciTegic.value.DoubleValue
0.000

@<TRIPOS>MOLECULE
guest-s17_confgen4.mol2 : confsearch ligand conformer 891
          25          25           1
SMALL
USER_CHARGES
 
@<TRIPOS>ATOM
       1    C1      19.522466   21.008509   22.469929 C.3        1 MOL1        -0.1684
       2    H1      19.170151   22.036764   22.629777 H          1 MOL1         0.0833
       3    H2      19.034159   20.687014   21.541256 H          1 MOL1         0.0833
       4    C2      19.026150   20.143092   23.655003 C.3        1 MOL1        -0.1684
       5    H3      19.732110   20.189783   24.495019 H          1 MOL1         0.0833
       6    H4      18.103141   20.610052   24.025373 H          1 MOL1         0.0833
       7    C3      18.673778   18.672182   23.297805 C.3        1 MOL1        -0.1684
       8    H5      18.204758   18.606358   22.306859 H          1 MOL1         0.0833
       9    H6      17.899072   18.350423   24.007384 H          1 MOL1         0.0833
      10    C4      19.843409   17.661748   23.422140 C.3        1 MOL1        -0.1760
      11    H7      20.500502   17.953142   24.250564 H          1 MOL1         0.0833
      12    H8      19.418544   16.695499   23.724607 H          1 MOL1         0.0833
      13    C5      20.661182   17.398392   22.132286 C.3        1 MOL1         0.1219
      14    H9      20.022506   16.835005   21.436973 H          1 MOL1         0.0790
      15    C6      21.178552   18.645558   21.378768 C.3        1 MOL1        -0.1760
      16    H10     21.918275   18.316897   20.636558 H          1 MOL1         0.0833
      17    H11     20.361489   19.065139   20.782009 H          1 MOL1         0.0833
      18    C7      21.822371   19.733465   22.279426 C.3        1 MOL1        -0.1684
      19    H12     22.847236   19.919794   21.930625 H          1 MOL1         0.0833
      20    H13     21.935832   19.379648   23.310465 H          1 MOL1         0.0833
      21    C8      21.061013   21.080687   22.281978 C.3        1 MOL1        -0.1684
      22    H14     21.265910   21.603448   21.337760 H          1 MOL1         0.0833
      23    H15     21.485867   21.714349   23.072391 H          1 MOL1         0.0833
      24    O1      21.780024   16.594508   22.479167 O.3        1 MOL1        -0.5508
      25    H16     22.384447   17.178602   22.980483 H          1 MOL1         0.3780
@<TRIPOS>BOND
    1     1     2    1
    2     1     3    1
    3     1     4    1
    4     4     5    1
    5     4     6    1
    6     4     7    1
    7     7     8    1
    8     7     9    1
    9     7    10    1
   10    10    11    1
   11    10    12    1
   12    10    13    1
   13    13    14    1
   14    13    15    1
   15    15    16    1
   16    15    17    1
   17    15    18    1
   18    18    19    1
   19    18    20    1
   20     1    21    1
   21    18    21    1
   22    21    22    1
   23    21    23    1
   24    13    24    1
   25    24    25    1
@<TRIPOS>SUBSTRUCTURE
       1 MOL1            1 RESIDUE      1      MOL     
@<SCITEGIC>MOL_PROPERTY
VConf Rank
SciTegic.value.IntegerValue
891

@<SCITEGIC>MOL_PROPERTY
Conf_Id
SciTegic.value.IntegerValue
164

@<SCITEGIC>MOL_PROPERTY
Delta U+W
SciTegic.value.DoubleValue
0.008

@<SCITEGIC>MOL_PROPERTY
U+W
SciTegic.value.DoubleValue
10.922

@<SCITEGIC>MOL_PROPERTY
Grad RMS
SciTegic.value.DoubleValue
0.000000

@<SCITEGIC>MOL_PROPERTY
U
SciTegic.value.DoubleValue
12.433

@<SCITEGIC>MOL_PROPERTY
W
SciTegic.value.DoubleValue
-1.511

@<SCITEGIC>MOL_PROPERTY
W(PB)
SciTegic.value.DoubleValue
-3.669

@<SCITEGIC>MOL_PROPERTY
W(SA)
SciTegic.value.DoubleValue
2.157

@<SCITEGIC>MOL_PROPERTY
Valence
SciTegic.value.DoubleValue
19.007

@<SCITEGIC>MOL_PROPERTY
Coulomb
SciTegic.value.DoubleValue
-9.373

@<SCITEGIC>MOL_PROPERTY
VdW
SciTegic.value.DoubleValue
2.799

@<SCITEGIC>MOL_PROPERTY
VdW6
SciTegic.value.DoubleValue
-12.597

@<SCITEGIC>MOL_PROPERTY
VdW12
SciTegic.value.DoubleValue
15.396

@<SCITEGIC>MOL_PROPERTY
Bond
SciTegic.value.DoubleValue
0.425

@<SCITEGIC>MOL_PROPERTY
Angle
SciTegic.value.DoubleValue
4.784

@<SCITEGIC>MOL_PROPERTY
Pdih
SciTegic.value.DoubleValue
13.799

@<SCITEGIC>MOL_PROPERTY
Idih
SciTegic.value.DoubleValue
0.000

@<SCITEGIC>MOL_PROPERTY
Tether
SciTegic.value.DoubleValue
0.000

@<TRIPOS>MOLECULE
guest-s17_confgen4.mol2 : confsearch ligand conformer 892
          25          25           1
SMALL
USER_CHARGES
 
@<TRIPOS>ATOM
       1    C1      19.239913   17.925096   23.346499 C.3        1 MOL1        -0.1684
       2    H1      20.114119   17.964569   24.006139 H          1 MOL1         0.0833
       3    H2      18.599523   17.146506   23.782815 H          1 MOL1         0.0833
       4    C2      19.650779   17.443455   21.932664 C.3        1 MOL1        -0.1684
       5    H3      20.088335   16.441584   22.040848 H          1 MOL1         0.0833
       6    H4      18.749731   17.309064   21.319021 H          1 MOL1         0.0833
       7    C3      20.663564   18.320998   21.153596 C.3        1 MOL1        -0.1684
       8    H5      20.149282   19.147237   20.649704 H          1 MOL1         0.0833
       9    H6      21.062583   17.706085   20.335263 H          1 MOL1         0.0833
      10    C4      21.859450   18.852249   21.988105 C.3        1 MOL1        -0.1760
      11    H7      22.049961   18.208314   22.855188 H          1 MOL1         0.0833
      12    H8      22.757408   18.768244   21.361326 H          1 MOL1         0.0833
      13    C5      21.745777   20.336206   22.418714 C.3        1 MOL1         0.1219
      14    H9      21.550401   20.939398   21.520612 H          1 MOL1         0.0790
      15    C6      20.658637   20.670766   23.470700 C.3        1 MOL1        -0.1760
      16    H10     20.809661   20.086652   24.386551 H          1 MOL1         0.0833
      17    H11     20.809765   21.717764   23.765987 H          1 MOL1         0.0833
      18    C7      19.197490   20.541210   22.963705 C.3        1 MOL1        -0.1684
      19    H12     19.157852   20.648654   21.873775 H          1 MOL1         0.0833
      20    H13     18.624852   21.397751   23.345057 H          1 MOL1         0.0833
      21    C8      18.452771   19.257711   23.411802 C.3        1 MOL1        -0.1684
      22    H14     17.526766   19.161112   22.828972 H          1 MOL1         0.0833
      23    H15     18.134292   19.400772   24.453438 H          1 MOL1         0.0833
      24    O1      23.001426   20.725603   22.958078 O.3        1 MOL1        -0.5508
      25    H16     23.144302   20.171806   23.752862 H          1 MOL1         0.3780
@<TRIPOS>BOND
    1     1     2    1
    2     1     3    1
    3     1     4    1
    4     4     5    1
    5     4     6    1
    6     4     7    1
    7     7     8    1
    8     7     9    1
    9     7    10    1
   10    10    11    1
   11    10    12    1
   12    10    13    1
   13    13    14    1
   14    13    15    1
   15    15    16    1
   16    15    17    1
   17    15    18    1
   18    18    19    1
   19    18    20    1
   20     1    21    1
   21    18    21    1
   22    21    22    1
   23    21    23    1
   24    13    24    1
   25    24    25    1
@<TRIPOS>SUBSTRUCTURE
       1 MOL1            1 RESIDUE      1      MOL     
@<SCITEGIC>MOL_PROPERTY
VConf Rank
SciTegic.value.IntegerValue
892

@<SCITEGIC>MOL_PROPERTY
Conf_Id
SciTegic.value.IntegerValue
15

@<SCITEGIC>MOL_PROPERTY
Delta U+W
SciTegic.value.DoubleValue
-1.271

@<SCITEGIC>MOL_PROPERTY
U+W
SciTegic.value.DoubleValue
9.643

@<SCITEGIC>MOL_PROPERTY
Grad RMS
SciTegic.value.DoubleValue
0.000000

@<SCITEGIC>MOL_PROPERTY
U
SciTegic.value.DoubleValue
11.413

@<SCITEGIC>MOL_PROPERTY
W
SciTegic.value.DoubleValue
-1.770

@<SCITEGIC>MOL_PROPERTY
W(PB)
SciTegic.value.DoubleValue
-3.908

@<SCITEGIC>MOL_PROPERTY
W(SA)
SciTegic.value.DoubleValue
2.138

@<SCITEGIC>MOL_PROPERTY
Valence
SciTegic.value.DoubleValue
17.496

@<SCITEGIC>MOL_PROPERTY
Coulomb
SciTegic.value.DoubleValue
-8.736

@<SCITEGIC>MOL_PROPERTY
VdW
SciTegic.value.DoubleValue
2.653

@<SCITEGIC>MOL_PROPERTY
VdW6
SciTegic.value.DoubleValue
-12.485

@<SCITEGIC>MOL_PROPERTY
VdW12
SciTegic.value.DoubleValue
15.138

@<SCITEGIC>MOL_PROPERTY
Bond
SciTegic.value.DoubleValue
0.414

@<SCITEGIC>MOL_PROPERTY
Angle
SciTegic.value.DoubleValue
5.295

@<SCITEGIC>MOL_PROPERTY
Pdih
SciTegic.value.DoubleValue
11.787

@<SCITEGIC>MOL_PROPERTY
Idih
SciTegic.value.DoubleValue
0.000

@<SCITEGIC>MOL_PROPERTY
Tether
SciTegic.value.DoubleValue
0.000

@<TRIPOS>MOLECULE
guest-s17_confgen4.mol2 : confsearch ligand conformer 893
          25          25           1
SMALL
USER_CHARGES
 
@<TRIPOS>ATOM
       1    C1      21.756499   18.286097   23.531954 C.3        1 MOL1        -0.1684
       2    H1      22.419011   17.642995   24.127336 H          1 MOL1         0.0833
       3    H2      22.315604   19.221673   23.404425 H          1 MOL1         0.0833
       4    C2      21.549815   17.581720   22.165220 C.3        1 MOL1        -0.1684
       5    H3      22.511899   17.577653   21.634934 H          1 MOL1         0.0833
       6    H4      21.302680   16.526240   22.343152 H          1 MOL1         0.0833
       7    C3      20.471508   18.181670   21.231065 C.3        1 MOL1        -0.1684
       8    H5      19.477574   17.862447   21.565675 H          1 MOL1         0.0833
       9    H6      20.591534   17.729200   20.237258 H          1 MOL1         0.0833
      10    C4      20.543564   19.724349   21.088219 C.3        1 MOL1        -0.1760
      11    H7      21.454154   20.118056   21.553204 H          1 MOL1         0.0833
      12    H8      20.642084   19.969877   20.022759 H          1 MOL1         0.0833
      13    C5      19.305060   20.476661   21.627108 C.3        1 MOL1         0.1219
      14    H9      18.483454   20.317762   20.913985 H          1 MOL1         0.0790
      15    C6      18.786296   20.046674   23.023702 C.3        1 MOL1        -0.1760
      16    H10     18.026971   20.781377   23.323655 H          1 MOL1         0.0833
      17    H11     18.235839   19.101542   22.944750 H          1 MOL1         0.0833
      18    C7      19.834839   19.948382   24.163850 C.3        1 MOL1        -0.1684
      19    H12     19.309560   20.189444   25.098256 H          1 MOL1         0.0833
      20    H13     20.607628   20.720922   24.059983 H          1 MOL1         0.0833
      21    C8      20.472573   18.545093   24.358409 C.3        1 MOL1        -0.1684
      22    H14     19.735528   17.747422   24.195097 H          1 MOL1         0.0833
      23    H15     20.754313   18.467784   25.417570 H          1 MOL1         0.0833
      24    O1      19.611414   21.863351   21.667692 O.3        1 MOL1        -0.5508
      25    H16     20.275238   21.970154   22.378379 H          1 MOL1         0.3780
@<TRIPOS>BOND
    1     1     2    1
    2     1     3    1
    3     1     4    1
    4     4     5    1
    5     4     6    1
    6     4     7    1
    7     7     8    1
    8     7     9    1
    9     7    10    1
   10    10    11    1
   11    10    12    1
   12    10    13    1
   13    13    14    1
   14    13    15    1
   15    15    16    1
   16    15    17    1
   17    15    18    1
   18    18    19    1
   19    18    20    1
   20     1    21    1
   21    18    21    1
   22    21    22    1
   23    21    23    1
   24    13    24    1
   25    24    25    1
@<TRIPOS>SUBSTRUCTURE
       1 MOL1            1 RESIDUE      1      MOL     
@<SCITEGIC>MOL_PROPERTY
VConf Rank
SciTegic.value.IntegerValue
893

@<SCITEGIC>MOL_PROPERTY
Conf_Id
SciTegic.value.IntegerValue
115

@<SCITEGIC>MOL_PROPERTY
Delta U+W
SciTegic.value.DoubleValue
0.038

@<SCITEGIC>MOL_PROPERTY
U+W
SciTegic.value.DoubleValue
10.952

@<SCITEGIC>MOL_PROPERTY
Grad RMS
SciTegic.value.DoubleValue
0.000000

@<SCITEGIC>MOL_PROPERTY
U
SciTegic.value.DoubleValue
12.526

@<SCITEGIC>MOL_PROPERTY
W
SciTegic.value.DoubleValue
-1.575

@<SCITEGIC>MOL_PROPERTY
W(PB)
SciTegic.value.DoubleValue
-3.698

@<SCITEGIC>MOL_PROPERTY
W(SA)
SciTegic.value.DoubleValue
2.123

@<SCITEGIC>MOL_PROPERTY
Valence
SciTegic.value.DoubleValue
19.016

@<SCITEGIC>MOL_PROPERTY
Coulomb
SciTegic.value.DoubleValue
-9.226

@<SCITEGIC>MOL_PROPERTY
VdW
SciTegic.value.DoubleValue
2.737

@<SCITEGIC>MOL_PROPERTY
VdW6
SciTegic.value.DoubleValue
-12.612

@<SCITEGIC>MOL_PROPERTY
VdW12
SciTegic.value.DoubleValue
15.349

@<SCITEGIC>MOL_PROPERTY
Bond
SciTegic.value.DoubleValue
0.421

@<SCITEGIC>MOL_PROPERTY
Angle
SciTegic.value.DoubleValue
4.883

@<SCITEGIC>MOL_PROPERTY
Pdih
SciTegic.value.DoubleValue
13.711

@<SCITEGIC>MOL_PROPERTY
Idih
SciTegic.value.DoubleValue
0.000

@<SCITEGIC>MOL_PROPERTY
Tether
SciTegic.value.DoubleValue
0.000

@<TRIPOS>MOLECULE
guest-s17_confgen4.mol2 : confsearch ligand conformer 894
          25          25           1
SMALL
USER_CHARGES
 
@<TRIPOS>ATOM
       1    C1      18.615257   19.522345   21.408705 C.3        1 MOL1        -0.1684
       2    H1      17.813271   20.118661   20.952404 H          1 MOL1         0.0833
       3    H2      18.624083   18.571565   20.858782 H          1 MOL1         0.0833
       4    C2      18.224749   19.278300   22.885011 C.3        1 MOL1        -0.1684
       5    H3      18.096488   20.237493   23.404714 H          1 MOL1         0.0833
       6    H4      17.232808   18.806029   22.888513 H          1 MOL1         0.0833
       7    C3      19.189012   18.365963   23.677938 C.3        1 MOL1        -0.1684
       8    H5      19.503729   17.514818   23.059487 H          1 MOL1         0.0833
       9    H6      18.618371   17.927547   24.508193 H          1 MOL1         0.0833
      10    C4      20.409258   19.104937   24.290193 C.3        1 MOL1        -0.1760
      11    H7      20.270750   20.193027   24.264023 H          1 MOL1         0.0833
      12    H8      20.450734   18.841219   25.355694 H          1 MOL1         0.0833
      13    C5      21.767483   18.730019   23.655672 C.3        1 MOL1         0.1219
      14    H9      21.754788   17.662625   23.392650 H          1 MOL1         0.0790
      15    C6      22.141550   19.551440   22.401968 C.3        1 MOL1        -0.1760
      16    H10     22.219378   20.615607   22.660966 H          1 MOL1         0.0833
      17    H11     23.149674   19.244579   22.093852 H          1 MOL1         0.0833
      18    C7      21.204892   19.367042   21.183224 C.3        1 MOL1        -0.1684
      19    H12     20.932965   18.309511   21.066112 H          1 MOL1         0.0833
      20    H13     21.784540   19.619216   20.284534 H          1 MOL1         0.0833
      21    C8      19.948530   20.276676   21.194450 C.3        1 MOL1        -0.1684
      22    H14     19.890939   20.768919   20.213847 H          1 MOL1         0.0833
      23    H15     20.048738   21.092266   21.922873 H          1 MOL1         0.0833
      24    O1      22.782713   18.948211   24.627962 O.3        1 MOL1        -0.5508
      25    H16     23.627143   18.654742   24.226529 H          1 MOL1         0.3780
@<TRIPOS>BOND
    1     1     2    1
    2     1     3    1
    3     1     4    1
    4     4     5    1
    5     4     6    1
    6     4     7    1
    7     7     8    1
    8     7     9    1
    9     7    10    1
   10    10    11    1
   11    10    12    1
   12    10    13    1
   13    13    14    1
   14    13    15    1
   15    15    16    1
   16    15    17    1
   17    15    18    1
   18    18    19    1
   19    18    20    1
   20     1    21    1
   21    18    21    1
   22    21    22    1
   23    21    23    1
   24    13    24    1
   25    24    25    1
@<TRIPOS>SUBSTRUCTURE
       1 MOL1            1 RESIDUE      1      MOL     
@<SCITEGIC>MOL_PROPERTY
VConf Rank
SciTegic.value.IntegerValue
894

@<SCITEGIC>MOL_PROPERTY
Conf_Id
SciTegic.value.IntegerValue
30

@<SCITEGIC>MOL_PROPERTY
Delta U+W
SciTegic.value.DoubleValue
0.000

@<SCITEGIC>MOL_PROPERTY
U+W
SciTegic.value.DoubleValue
10.913

@<SCITEGIC>MOL_PROPERTY
Grad RMS
SciTegic.value.DoubleValue
0.000000

@<SCITEGIC>MOL_PROPERTY
U
SciTegic.value.DoubleValue
13.140

@<SCITEGIC>MOL_PROPERTY
W
SciTegic.value.DoubleValue
-2.227

@<SCITEGIC>MOL_PROPERTY
W(PB)
SciTegic.value.DoubleValue
-4.367

@<SCITEGIC>MOL_PROPERTY
W(SA)
SciTegic.value.DoubleValue
2.140

@<SCITEGIC>MOL_PROPERTY
Valence
SciTegic.value.DoubleValue
19.155

@<SCITEGIC>MOL_PROPERTY
Coulomb
SciTegic.value.DoubleValue
-8.157

@<SCITEGIC>MOL_PROPERTY
VdW
SciTegic.value.DoubleValue
2.142

@<SCITEGIC>MOL_PROPERTY
VdW6
SciTegic.value.DoubleValue
-11.576

@<SCITEGIC>MOL_PROPERTY
VdW12
SciTegic.value.DoubleValue
13.718

@<SCITEGIC>MOL_PROPERTY
Bond
SciTegic.value.DoubleValue
0.294

@<SCITEGIC>MOL_PROPERTY
Angle
SciTegic.value.DoubleValue
3.547

@<SCITEGIC>MOL_PROPERTY
Pdih
SciTegic.value.DoubleValue
15.314

@<SCITEGIC>MOL_PROPERTY
Idih
SciTegic.value.DoubleValue
0.000

@<SCITEGIC>MOL_PROPERTY
Tether
SciTegic.value.DoubleValue
0.000

@<TRIPOS>MOLECULE
guest-s17_confgen4.mol2 : confsearch ligand conformer 895
          25          25           1
SMALL
USER_CHARGES
 
@<TRIPOS>ATOM
       1    C1      20.491315   21.294704   22.074676 C.3        1 MOL1        -0.1684
       2    H1      20.933567   22.173451   22.563627 H          1 MOL1         0.0833
       3    H2      20.045399   21.666991   21.142295 H          1 MOL1         0.0833
       4    C2      19.352942   20.753217   22.974110 C.3        1 MOL1        -0.1684
       5    H3      18.767248   21.611093   23.331714 H          1 MOL1         0.0833
       6    H4      18.649360   20.171501   22.367369 H          1 MOL1         0.0833
       7    C3      19.837688   19.939364   24.200677 C.3        1 MOL1        -0.1684
       8    H5      19.418404   20.389473   25.110780 H          1 MOL1         0.0833
       9    H6      20.923930   20.021445   24.323063 H          1 MOL1         0.0833
      10    C4      19.426736   18.445453   24.170593 C.3        1 MOL1        -0.1760
      11    H7      19.968089   17.920830   24.969009 H          1 MOL1         0.0833
      12    H8      18.362512   18.372745   24.430027 H          1 MOL1         0.0833
      13    C5      19.637506   17.688399   22.835444 C.3        1 MOL1         0.1219
      14    H9      18.906198   18.045431   22.098082 H          1 MOL1         0.0790
      15    C6      21.055437   17.812494   22.226044 C.3        1 MOL1        -0.1760
      16    H10     21.804635   17.916424   23.021312 H          1 MOL1         0.0833
      17    H11     21.295117   16.865756   21.723812 H          1 MOL1         0.0833
      18    C7      21.216073   18.935690   21.162852 C.3        1 MOL1        -0.1684
      19    H12     20.313882   19.029070   20.543375 H          1 MOL1         0.0833
      20    H13     22.009505   18.612453   20.474942 H          1 MOL1         0.0833
      21    C8      21.642573   20.314824   21.724001 C.3        1 MOL1        -0.1684
      22    H14     22.263541   20.810241   20.965036 H          1 MOL1         0.0833
      23    H15     22.309807   20.179166   22.584655 H          1 MOL1         0.0833
      24    O1      19.375339   16.312783   23.086771 O.3        1 MOL1        -0.5508
      25    H16     19.431831   15.852302   22.223510 H          1 MOL1         0.3780
@<TRIPOS>BOND
    1     1     2    1
    2     1     3    1
    3     1     4    1
    4     4     5    1
    5     4     6    1
    6     4     7    1
    7     7     8    1
    8     7     9    1
    9     7    10    1
   10    10    11    1
   11    10    12    1
   12    10    13    1
   13    13    14    1
   14    13    15    1
   15    15    16    1
   16    15    17    1
   17    15    18    1
   18    18    19    1
   19    18    20    1
   20     1    21    1
   21    18    21    1
   22    21    22    1
   23    21    23    1
   24    13    24    1
   25    24    25    1
@<TRIPOS>SUBSTRUCTURE
       1 MOL1            1 RESIDUE      1      MOL     
@<SCITEGIC>MOL_PROPERTY
VConf Rank
SciTegic.value.IntegerValue
895

@<SCITEGIC>MOL_PROPERTY
Conf_Id
SciTegic.value.IntegerValue
162

@<SCITEGIC>MOL_PROPERTY
Delta U+W
SciTegic.value.DoubleValue
0.219

@<SCITEGIC>MOL_PROPERTY
U+W
SciTegic.value.DoubleValue
11.132

@<SCITEGIC>MOL_PROPERTY
Grad RMS
SciTegic.value.DoubleValue
0.000000

@<SCITEGIC>MOL_PROPERTY
U
SciTegic.value.DoubleValue
13.296

@<SCITEGIC>MOL_PROPERTY
W
SciTegic.value.DoubleValue
-2.164

@<SCITEGIC>MOL_PROPERTY
W(PB)
SciTegic.value.DoubleValue
-4.311

@<SCITEGIC>MOL_PROPERTY
W(SA)
SciTegic.value.DoubleValue
2.148

@<SCITEGIC>MOL_PROPERTY
Valence
SciTegic.value.DoubleValue
18.607

@<SCITEGIC>MOL_PROPERTY
Coulomb
SciTegic.value.DoubleValue
-8.339

@<SCITEGIC>MOL_PROPERTY
VdW
SciTegic.value.DoubleValue
3.028

@<SCITEGIC>MOL_PROPERTY
VdW6
SciTegic.value.DoubleValue
-12.271

@<SCITEGIC>MOL_PROPERTY
VdW12
SciTegic.value.DoubleValue
15.299

@<SCITEGIC>MOL_PROPERTY
Bond
SciTegic.value.DoubleValue
0.423

@<SCITEGIC>MOL_PROPERTY
Angle
SciTegic.value.DoubleValue
4.488

@<SCITEGIC>MOL_PROPERTY
Pdih
SciTegic.value.DoubleValue
13.696

@<SCITEGIC>MOL_PROPERTY
Idih
SciTegic.value.DoubleValue
0.000

@<SCITEGIC>MOL_PROPERTY
Tether
SciTegic.value.DoubleValue
0.000

@<TRIPOS>MOLECULE
guest-s17_confgen4.mol2 : confsearch ligand conformer 896
          25          25           1
SMALL
USER_CHARGES
 
@<TRIPOS>ATOM
       1    C1      19.793069   20.291868   21.066405 C.3        1 MOL1        -0.1684
       2    H1      19.906982   19.372458   20.478269 H          1 MOL1         0.0833
       3    H2      19.428207   21.039480   20.348828 H          1 MOL1         0.0833
       4    C2      18.702043   20.095439   22.148431 C.3        1 MOL1        -0.1684
       5    H3      18.812096   20.836042   22.951940 H          1 MOL1         0.0833
       6    H4      17.737869   20.323226   21.673435 H          1 MOL1         0.0833
       7    C3      18.591499   18.655622   22.723119 C.3        1 MOL1        -0.1684
       8    H5      18.766499   17.902476   21.943175 H          1 MOL1         0.0833
       9    H6      17.546172   18.516607   23.031497 H          1 MOL1         0.0833
      10    C4      19.468357   18.372115   23.970489 C.3        1 MOL1        -0.1760
      11    H7      19.551255   19.278040   24.583452 H          1 MOL1         0.0833
      12    H8      18.930941   17.652248   24.601512 H          1 MOL1         0.0833
      13    C5      20.868910   17.765088   23.703482 C.3        1 MOL1         0.1219
      14    H9      20.727418   16.728750   23.364254 H          1 MOL1         0.0790
      15    C6      21.735276   18.482430   22.640992 C.3        1 MOL1        -0.1760
      16    H10     22.758897   18.090701   22.702211 H          1 MOL1         0.0833
      17    H11     21.390430   18.188808   21.643773 H          1 MOL1         0.0833
      18    C7      21.783806   20.027281   22.777206 C.3        1 MOL1        -0.1684
      19    H12     22.831304   20.339601   22.884744 H          1 MOL1         0.0833
      20    H13     21.298783   20.353939   23.704653 H          1 MOL1         0.0833
      21    C8      21.171696   20.788881   21.576760 C.3        1 MOL1        -0.1684
      22    H14     21.879974   20.751638   20.737896 H          1 MOL1         0.0833
      23    H15     21.087780   21.849610   21.849753 H          1 MOL1         0.0833
      24    O1      21.579921   17.754183   24.935734 O.3        1 MOL1        -0.5508
      25    H16     22.461524   17.370789   24.748914 H          1 MOL1         0.3780
@<TRIPOS>BOND
    1     1     2    1
    2     1     3    1
    3     1     4    1
    4     4     5    1
    5     4     6    1
    6     4     7    1
    7     7     8    1
    8     7     9    1
    9     7    10    1
   10    10    11    1
   11    10    12    1
   12    10    13    1
   13    13    14    1
   14    13    15    1
   15    15    16    1
   16    15    17    1
   17    15    18    1
   18    18    19    1
   19    18    20    1
   20     1    21    1
   21    18    21    1
   22    21    22    1
   23    21    23    1
   24    13    24    1
   25    24    25    1
@<TRIPOS>SUBSTRUCTURE
       1 MOL1            1 RESIDUE      1      MOL     
@<SCITEGIC>MOL_PROPERTY
VConf Rank
SciTegic.value.IntegerValue
896

@<SCITEGIC>MOL_PROPERTY
Conf_Id
SciTegic.value.IntegerValue
155

@<SCITEGIC>MOL_PROPERTY
Delta U+W
SciTegic.value.DoubleValue
0.339

@<SCITEGIC>MOL_PROPERTY
U+W
SciTegic.value.DoubleValue
11.252

@<SCITEGIC>MOL_PROPERTY
Grad RMS
SciTegic.value.DoubleValue
0.000000

@<SCITEGIC>MOL_PROPERTY
U
SciTegic.value.DoubleValue
13.420

@<SCITEGIC>MOL_PROPERTY
W
SciTegic.value.DoubleValue
-2.167

@<SCITEGIC>MOL_PROPERTY
W(PB)
SciTegic.value.DoubleValue
-4.325

@<SCITEGIC>MOL_PROPERTY
W(SA)
SciTegic.value.DoubleValue
2.157

@<SCITEGIC>MOL_PROPERTY
Valence
SciTegic.value.DoubleValue
18.609

@<SCITEGIC>MOL_PROPERTY
Coulomb
SciTegic.value.DoubleValue
-8.052

@<SCITEGIC>MOL_PROPERTY
VdW
SciTegic.value.DoubleValue
2.863

@<SCITEGIC>MOL_PROPERTY
VdW6
SciTegic.value.DoubleValue
-12.524

@<SCITEGIC>MOL_PROPERTY
VdW12
SciTegic.value.DoubleValue
15.387

@<SCITEGIC>MOL_PROPERTY
Bond
SciTegic.value.DoubleValue
0.430

@<SCITEGIC>MOL_PROPERTY
Angle
SciTegic.value.DoubleValue
4.724

@<SCITEGIC>MOL_PROPERTY
Pdih
SciTegic.value.DoubleValue
13.455

@<SCITEGIC>MOL_PROPERTY
Idih
SciTegic.value.DoubleValue
0.000

@<SCITEGIC>MOL_PROPERTY
Tether
SciTegic.value.DoubleValue
0.000

@<TRIPOS>MOLECULE
guest-s17_confgen4.mol2 : confsearch ligand conformer 897
          25          25           1
SMALL
USER_CHARGES
 
@<TRIPOS>ATOM
       1    C1      21.626918   20.566088   23.444900 C.3        1 MOL1        -0.1684
       2    H1      22.544141   20.710975   22.858345 H          1 MOL1         0.0833
       3    H2      21.712271   21.255468   24.295931 H          1 MOL1         0.0833
       4    C2      20.406325   21.031805   22.608192 C.3        1 MOL1        -0.1684
       5    H3      19.506953   20.998241   23.231203 H          1 MOL1         0.0833
       6    H4      20.535317   22.102845   22.400947 H          1 MOL1         0.0833
       7    C3      20.159619   20.328344   21.241629 C.3        1 MOL1        -0.1684
       8    H5      20.762224   20.853152   20.487974 H          1 MOL1         0.0833
       9    H6      19.114145   20.486116   20.943616 H          1 MOL1         0.0833
      10    C4      20.499693   18.817658   21.122956 C.3        1 MOL1        -0.1760
      11    H7      20.396499   18.540360   20.065716 H          1 MOL1         0.0833
      12    H8      21.566613   18.673424   21.314349 H          1 MOL1         0.0833
      13    C5      19.659296   17.811796   21.963360 C.3        1 MOL1         0.1219
      14    H9      20.261431   16.901599   22.096562 H          1 MOL1         0.0790
      15    C6      19.174509   18.270601   23.361580 C.3        1 MOL1        -0.1760
      16    H10     18.520806   19.139923   23.245508 H          1 MOL1         0.0833
      17    H11     18.504033   17.492586   23.749884 H          1 MOL1         0.0833
      18    C7      20.251642   18.529300   24.457556 C.3        1 MOL1        -0.1684
      19    H12     20.459856   17.568206   24.947232 H          1 MOL1         0.0833
      20    H13     19.817113   19.167498   25.238715 H          1 MOL1         0.0833
      21    C8      21.617840   19.118742   24.018523 C.3        1 MOL1        -0.1684
      22    H14     22.109041   18.423907   23.330117 H          1 MOL1         0.0833
      23    H15     22.276967   19.116845   24.897401 H          1 MOL1         0.0833
      24    O1      18.497562   17.479029   21.211146 O.3        1 MOL1        -0.5508
      25    H16     18.807912   17.140363   20.346144 H          1 MOL1         0.3780
@<TRIPOS>BOND
    1     1     2    1
    2     1     3    1
    3     1     4    1
    4     4     5    1
    5     4     6    1
    6     4     7    1
    7     7     8    1
    8     7     9    1
    9     7    10    1
   10    10    11    1
   11    10    12    1
   12    10    13    1
   13    13    14    1
   14    13    15    1
   15    15    16    1
   16    15    17    1
   17    15    18    1
   18    18    19    1
   19    18    20    1
   20     1    21    1
   21    18    21    1
   22    21    22    1
   23    21    23    1
   24    13    24    1
   25    24    25    1
@<TRIPOS>SUBSTRUCTURE
       1 MOL1            1 RESIDUE      1      MOL     
@<SCITEGIC>MOL_PROPERTY
VConf Rank
SciTegic.value.IntegerValue
897

@<SCITEGIC>MOL_PROPERTY
Conf_Id
SciTegic.value.IntegerValue
146

@<SCITEGIC>MOL_PROPERTY
Delta U+W
SciTegic.value.DoubleValue
2.553

@<SCITEGIC>MOL_PROPERTY
U+W
SciTegic.value.DoubleValue
13.466

@<SCITEGIC>MOL_PROPERTY
Grad RMS
SciTegic.value.DoubleValue
0.000000

@<SCITEGIC>MOL_PROPERTY
U
SciTegic.value.DoubleValue
15.643

@<SCITEGIC>MOL_PROPERTY
W
SciTegic.value.DoubleValue
-2.176

@<SCITEGIC>MOL_PROPERTY
W(PB)
SciTegic.value.DoubleValue
-4.307

@<SCITEGIC>MOL_PROPERTY
W(SA)
SciTegic.value.DoubleValue
2.131

@<SCITEGIC>MOL_PROPERTY
Valence
SciTegic.value.DoubleValue
18.916

@<SCITEGIC>MOL_PROPERTY
Coulomb
SciTegic.value.DoubleValue
-7.506

@<SCITEGIC>MOL_PROPERTY
VdW
SciTegic.value.DoubleValue
4.232

@<SCITEGIC>MOL_PROPERTY
VdW6
SciTegic.value.DoubleValue
-13.632

@<SCITEGIC>MOL_PROPERTY
VdW12
SciTegic.value.DoubleValue
17.864

@<SCITEGIC>MOL_PROPERTY
Bond
SciTegic.value.DoubleValue
0.735

@<SCITEGIC>MOL_PROPERTY
Angle
SciTegic.value.DoubleValue
9.140

@<SCITEGIC>MOL_PROPERTY
Pdih
SciTegic.value.DoubleValue
9.042

@<SCITEGIC>MOL_PROPERTY
Idih
SciTegic.value.DoubleValue
0.000

@<SCITEGIC>MOL_PROPERTY
Tether
SciTegic.value.DoubleValue
0.000

@<TRIPOS>MOLECULE
guest-s17_confgen4.mol2 : confsearch ligand conformer 898
          25          25           1
SMALL
USER_CHARGES
 
@<TRIPOS>ATOM
       1    C1      19.682250   19.733340   24.575319 C.3        1 MOL1        -0.1684
       2    H1      18.819382   20.385546   24.766606 H          1 MOL1         0.0833
       3    H2      20.063638   19.448770   25.565509 H          1 MOL1         0.0833
       4    C2      20.793519   20.549586   23.868945 C.3        1 MOL1        -0.1684
       5    H3      21.080149   21.364725   24.547321 H          1 MOL1         0.0833
       6    H4      21.702144   19.945724   23.764553 H          1 MOL1         0.0833
       7    C3      20.409819   21.193694   22.513113 C.3        1 MOL1        -0.1684
       8    H5      21.250118   21.827747   22.198701 H          1 MOL1         0.0833
       9    H6      19.561703   21.875583   22.662010 H          1 MOL1         0.0833
      10    C4      20.080802   20.228606   21.344329 C.3        1 MOL1        -0.1760
      11    H7      19.046961   19.877314   21.420718 H          1 MOL1         0.0833
      12    H8      20.101032   20.822178   20.420317 H          1 MOL1         0.0833
      13    C5      21.045630   19.024251   21.193627 C.3        1 MOL1         0.1219
      14    H9      21.991646   19.243821   21.706546 H          1 MOL1         0.0790
      15    C6      20.474158   17.684260   21.722408 C.3        1 MOL1        -0.1760
      16    H10     19.512356   17.483972   21.231957 H          1 MOL1         0.0833
      17    H11     21.145590   16.878195   21.398713 H          1 MOL1         0.0833
      18    C7      20.303020   17.552274   23.260229 C.3        1 MOL1        -0.1684
      19    H12     21.260253   17.709393   23.773863 H          1 MOL1         0.0833
      20    H13     20.036878   16.506102   23.464375 H          1 MOL1         0.0833
      21    C8      19.189941   18.443064   23.870173 C.3        1 MOL1        -0.1684
      22    H14     18.651824   17.850062   24.622381 H          1 MOL1         0.0833
      23    H15     18.430627   18.680357   23.116543 H          1 MOL1         0.0833
      24    O1      21.321257   18.849376   19.808420 O.3        1 MOL1        -0.5508
      25    H16     21.976399   18.123957   19.739299 H          1 MOL1         0.3780
@<TRIPOS>BOND
    1     1     2    1
    2     1     3    1
    3     1     4    1
    4     4     5    1
    5     4     6    1
    6     4     7    1
    7     7     8    1
    8     7     9    1
    9     7    10    1
   10    10    11    1
   11    10    12    1
   12    10    13    1
   13    13    14    1
   14    13    15    1
   15    15    16    1
   16    15    17    1
   17    15    18    1
   18    18    19    1
   19    18    20    1
   20     1    21    1
   21    18    21    1
   22    21    22    1
   23    21    23    1
   24    13    24    1
   25    24    25    1
@<TRIPOS>SUBSTRUCTURE
       1 MOL1            1 RESIDUE      1      MOL     
@<SCITEGIC>MOL_PROPERTY
VConf Rank
SciTegic.value.IntegerValue
898

@<SCITEGIC>MOL_PROPERTY
Conf_Id
SciTegic.value.IntegerValue
62

@<SCITEGIC>MOL_PROPERTY
Delta U+W
SciTegic.value.DoubleValue
-1.779

@<SCITEGIC>MOL_PROPERTY
U+W
SciTegic.value.DoubleValue
9.134

@<SCITEGIC>MOL_PROPERTY
Grad RMS
SciTegic.value.DoubleValue
0.000000

@<SCITEGIC>MOL_PROPERTY
U
SciTegic.value.DoubleValue
11.364

@<SCITEGIC>MOL_PROPERTY
W
SciTegic.value.DoubleValue
-2.230

@<SCITEGIC>MOL_PROPERTY
W(PB)
SciTegic.value.DoubleValue
-4.359

@<SCITEGIC>MOL_PROPERTY
W(SA)
SciTegic.value.DoubleValue
2.129

@<SCITEGIC>MOL_PROPERTY
Valence
SciTegic.value.DoubleValue
16.582

@<SCITEGIC>MOL_PROPERTY
Coulomb
SciTegic.value.DoubleValue
-8.150

@<SCITEGIC>MOL_PROPERTY
VdW
SciTegic.value.DoubleValue
2.933

@<SCITEGIC>MOL_PROPERTY
VdW6
SciTegic.value.DoubleValue
-12.531

@<SCITEGIC>MOL_PROPERTY
VdW12
SciTegic.value.DoubleValue
15.464

@<SCITEGIC>MOL_PROPERTY
Bond
SciTegic.value.DoubleValue
0.439

@<SCITEGIC>MOL_PROPERTY
Angle
SciTegic.value.DoubleValue
5.099

@<SCITEGIC>MOL_PROPERTY
Pdih
SciTegic.value.DoubleValue
11.044

@<SCITEGIC>MOL_PROPERTY
Idih
SciTegic.value.DoubleValue
0.000

@<SCITEGIC>MOL_PROPERTY
Tether
SciTegic.value.DoubleValue
0.000

@<TRIPOS>MOLECULE
guest-s17_confgen4.mol2 : confsearch ligand conformer 899
          25          25           1
SMALL
USER_CHARGES
 
@<TRIPOS>ATOM
       1    C1      19.945012   20.915644   22.073299 C.3        1 MOL1        -0.1684
       2    H1      19.854645   20.979865   23.163635 H          1 MOL1         0.0833
       3    H2      19.679822   21.919349   21.714287 H          1 MOL1         0.0833
       4    C2      18.895461   19.930245   21.501385 C.3        1 MOL1        -0.1684
       5    H3      17.902503   20.310717   21.777363 H          1 MOL1         0.0833
       6    H4      18.930228   19.959782   20.403927 H          1 MOL1         0.0833
       7    C3      18.983841   18.454683   21.967890 C.3        1 MOL1        -0.1684
       8    H5      19.725215   17.907393   21.374738 H          1 MOL1         0.0833
       9    H6      18.026076   17.978251   21.717445 H          1 MOL1         0.0833
      10    C4      19.243581   18.253242   23.484884 C.3        1 MOL1        -0.1760
      11    H7      18.915276   19.127144   24.060872 H          1 MOL1         0.0833
      12    H8      18.599126   17.428956   23.817412 H          1 MOL1         0.0833
      13    C5      20.701027   17.876767   23.853001 C.3        1 MOL1         0.1219
      14    H9      20.994203   17.004587   23.251062 H          1 MOL1         0.0790
      15    C6      21.769095   18.980819   23.652475 C.3        1 MOL1        -0.1760
      16    H10     21.513094   19.873882   24.235305 H          1 MOL1         0.0833
      17    H11     22.702443   18.606572   24.093620 H          1 MOL1         0.0833
      18    C7      22.068572   19.343193   22.173094 C.3        1 MOL1        -0.1684
      19    H12     21.811388   18.507019   21.513082 H          1 MOL1         0.0833
      20    H13     23.155556   19.456896   22.061352 H          1 MOL1         0.0833
      21    C8      21.417410   20.656069   21.667855 C.3        1 MOL1        -0.1684
      22    H14     21.505875   20.699965   20.573903 H          1 MOL1         0.0833
      23    H15     22.015790   21.495273   22.048064 H          1 MOL1         0.0833
      24    O1      20.717998   17.509876   25.226875 O.3        1 MOL1        -0.5508
      25    H16     20.088954   16.765545   25.328972 H          1 MOL1         0.3780
@<TRIPOS>BOND
    1     1     2    1
    2     1     3    1
    3     1     4    1
    4     4     5    1
    5     4     6    1
    6     4     7    1
    7     7     8    1
    8     7     9    1
    9     7    10    1
   10    10    11    1
   11    10    12    1
   12    10    13    1
   13    13    14    1
   14    13    15    1
   15    15    16    1
   16    15    17    1
   17    15    18    1
   18    18    19    1
   19    18    20    1
   20     1    21    1
   21    18    21    1
   22    21    22    1
   23    21    23    1
   24    13    24    1
   25    24    25    1
@<TRIPOS>SUBSTRUCTURE
       1 MOL1            1 RESIDUE      1      MOL     
@<SCITEGIC>MOL_PROPERTY
VConf Rank
SciTegic.value.IntegerValue
899

@<SCITEGIC>MOL_PROPERTY
Conf_Id
SciTegic.value.IntegerValue
121

@<SCITEGIC>MOL_PROPERTY
Delta U+W
SciTegic.value.DoubleValue
-1.283

@<SCITEGIC>MOL_PROPERTY
U+W
SciTegic.value.DoubleValue
9.630

@<SCITEGIC>MOL_PROPERTY
Grad RMS
SciTegic.value.DoubleValue
0.000000

@<SCITEGIC>MOL_PROPERTY
U
SciTegic.value.DoubleValue
11.876

@<SCITEGIC>MOL_PROPERTY
W
SciTegic.value.DoubleValue
-2.246

@<SCITEGIC>MOL_PROPERTY
W(PB)
SciTegic.value.DoubleValue
-4.376

@<SCITEGIC>MOL_PROPERTY
W(SA)
SciTegic.value.DoubleValue
2.130

@<SCITEGIC>MOL_PROPERTY
Valence
SciTegic.value.DoubleValue
17.153

@<SCITEGIC>MOL_PROPERTY
Coulomb
SciTegic.value.DoubleValue
-7.966

@<SCITEGIC>MOL_PROPERTY
VdW
SciTegic.value.DoubleValue
2.689

@<SCITEGIC>MOL_PROPERTY
VdW6
SciTegic.value.DoubleValue
-12.458

@<SCITEGIC>MOL_PROPERTY
VdW12
SciTegic.value.DoubleValue
15.147

@<SCITEGIC>MOL_PROPERTY
Bond
SciTegic.value.DoubleValue
0.421

@<SCITEGIC>MOL_PROPERTY
Angle
SciTegic.value.DoubleValue
5.258

@<SCITEGIC>MOL_PROPERTY
Pdih
SciTegic.value.DoubleValue
11.475

@<SCITEGIC>MOL_PROPERTY
Idih
SciTegic.value.DoubleValue
0.000

@<SCITEGIC>MOL_PROPERTY
Tether
SciTegic.value.DoubleValue
0.000

@<TRIPOS>MOLECULE
guest-s17_confgen4.mol2 : confsearch ligand conformer 900
          25          25           1
SMALL
USER_CHARGES
 
@<TRIPOS>ATOM
       1    C1      21.245173   20.756636   22.017387 C.3        1 MOL1        -0.1684
       2    H1      22.013779   19.976282   22.055029 H          1 MOL1         0.0833
       3    H2      21.764796   21.637401   21.616284 H          1 MOL1         0.0833
       4    C2      20.768936   21.114905   23.447270 C.3        1 MOL1        -0.1684
       5    H3      21.644773   21.473445   24.005160 H          1 MOL1         0.0833
       6    H4      20.079199   21.968265   23.397045 H          1 MOL1         0.0833
       7    C3      20.109935   19.983375   24.276898 C.3        1 MOL1        -0.1684
       8    H5      19.048566   19.886913   24.021681 H          1 MOL1         0.0833
       9    H6      20.111533   20.308215   25.326385 H          1 MOL1         0.0833
      10    C4      20.816700   18.603702   24.195909 C.3        1 MOL1        -0.1760
      11    H7      21.874645   18.715355   23.929309 H          1 MOL1         0.0833
      12    H8      20.817962   18.176247   25.207388 H          1 MOL1         0.0833
      13    C5      20.129484   17.569163   23.269962 C.3        1 MOL1         0.1219
      14    H9      19.074276   17.491037   23.568981 H          1 MOL1         0.0790
      15    C6      20.182944   17.863061   21.749386 C.3        1 MOL1        -0.1760
      16    H10     21.222647   17.956130   21.412327 H          1 MOL1         0.0833
      17    H11     19.789090   16.978744   21.231498 H          1 MOL1         0.0833
      18    C7      19.335624   19.079210   21.288586 C.3        1 MOL1        -0.1684
      19    H12     18.526156   19.275931   22.000664 H          1 MOL1         0.0833
      20    H13     18.821286   18.805935   20.357028 H          1 MOL1         0.0833
      21    C8      20.137183   20.375116   21.004245 C.3        1 MOL1        -0.1684
      22    H14     19.434842   21.213409   20.901893 H          1 MOL1         0.0833
      23    H15     20.614367   20.265761   20.020768 H          1 MOL1         0.0833
      24    O1      20.760309   16.313601   23.489166 O.3        1 MOL1        -0.5508
      25    H16     20.274359   15.654733   22.950747 H          1 MOL1         0.3780
@<TRIPOS>BOND
    1     1     2    1
    2     1     3    1
    3     1     4    1
    4     4     5    1
    5     4     6    1
    6     4     7    1
    7     7     8    1
    8     7     9    1
    9     7    10    1
   10    10    11    1
   11    10    12    1
   12    10    13    1
   13    13    14    1
   14    13    15    1
   15    15    16    1
   16    15    17    1
   17    15    18    1
   18    18    19    1
   19    18    20    1
   20     1    21    1
   21    18    21    1
   22    21    22    1
   23    21    23    1
   24    13    24    1
   25    24    25    1
@<TRIPOS>SUBSTRUCTURE
       1 MOL1            1 RESIDUE      1      MOL     
@<SCITEGIC>MOL_PROPERTY
VConf Rank
SciTegic.value.IntegerValue
900

@<SCITEGIC>MOL_PROPERTY
Conf_Id
SciTegic.value.IntegerValue
24

@<SCITEGIC>MOL_PROPERTY
Delta U+W
SciTegic.value.DoubleValue
-1.236

@<SCITEGIC>MOL_PROPERTY
U+W
SciTegic.value.DoubleValue
9.678

@<SCITEGIC>MOL_PROPERTY
Grad RMS
SciTegic.value.DoubleValue
0.000000

@<SCITEGIC>MOL_PROPERTY
U
SciTegic.value.DoubleValue
11.876

@<SCITEGIC>MOL_PROPERTY
W
SciTegic.value.DoubleValue
-2.199

@<SCITEGIC>MOL_PROPERTY
W(PB)
SciTegic.value.DoubleValue
-4.335

@<SCITEGIC>MOL_PROPERTY
W(SA)
SciTegic.value.DoubleValue
2.137

@<SCITEGIC>MOL_PROPERTY
Valence
SciTegic.value.DoubleValue
17.153

@<SCITEGIC>MOL_PROPERTY
Coulomb
SciTegic.value.DoubleValue
-7.966

@<SCITEGIC>MOL_PROPERTY
VdW
SciTegic.value.DoubleValue
2.689

@<SCITEGIC>MOL_PROPERTY
VdW6
SciTegic.value.DoubleValue
-12.458

@<SCITEGIC>MOL_PROPERTY
VdW12
SciTegic.value.DoubleValue
15.147

@<SCITEGIC>MOL_PROPERTY
Bond
SciTegic.value.DoubleValue
0.421

@<SCITEGIC>MOL_PROPERTY
Angle
SciTegic.value.DoubleValue
5.258

@<SCITEGIC>MOL_PROPERTY
Pdih
SciTegic.value.DoubleValue
11.475

@<SCITEGIC>MOL_PROPERTY
Idih
SciTegic.value.DoubleValue
0.000

@<SCITEGIC>MOL_PROPERTY
Tether
SciTegic.value.DoubleValue
0.000

@<TRIPOS>MOLECULE
guest-s17_confgen4.mol2 : confsearch ligand conformer 901
          25          25           1
SMALL
USER_CHARGES
 
@<TRIPOS>ATOM
       1    C1      21.009753   21.060593   23.385936 C.3        1 MOL1        -0.1684
       2    H1      20.699373   22.031882   22.977232 H          1 MOL1         0.0833
       3    H2      21.774433   21.286953   24.141501 H          1 MOL1         0.0833
       4    C2      19.800531   20.411395   24.110177 C.3        1 MOL1        -0.1684
       5    H3      20.137986   19.623654   24.795656 H          1 MOL1         0.0833
       6    H4      19.367302   21.182104   24.762394 H          1 MOL1         0.0833
       7    C3      18.671835   19.870998   23.197666 C.3        1 MOL1        -0.1684
       8    H5      18.557448   20.500044   22.304540 H          1 MOL1         0.0833
       9    H6      17.731132   19.982327   23.754339 H          1 MOL1         0.0833
      10    C4      18.794141   18.368851   22.814883 C.3        1 MOL1        -0.1760
      11    H7      19.197985   17.784360   23.651399 H          1 MOL1         0.0833
      12    H8      17.770397   17.999573   22.664780 H          1 MOL1         0.0833
      13    C5      19.593236   18.086892   21.519111 C.3        1 MOL1         0.1219
      14    H9      19.496150   18.954853   20.853608 H          1 MOL1         0.0790
      15    C6      21.095084   17.762904   21.722319 C.3        1 MOL1        -0.1760
      16    H10     21.195739   16.760623   22.158977 H          1 MOL1         0.0833
      17    H11     21.560455   17.707656   20.729345 H          1 MOL1         0.0833
      18    C7      21.913012   18.752446   22.589753 C.3        1 MOL1        -0.1684
      19    H12     22.979107   18.528110   22.448781 H          1 MOL1         0.0833
      20    H13     21.724360   18.556382   23.651666 H          1 MOL1         0.0833
      21    C8      21.669428   20.244089   22.247672 C.3        1 MOL1        -0.1684
      22    H14     21.078511   20.347570   21.330194 H          1 MOL1         0.0833
      23    H15     22.634664   20.712050   22.010601 H          1 MOL1         0.0833
      24    O1      19.005734   16.968959   20.865830 O.3        1 MOL1        -0.5508
      25    H16     19.085068   16.213656   21.484051 H          1 MOL1         0.3780
@<TRIPOS>BOND
    1     1     2    1
    2     1     3    1
    3     1     4    1
    4     4     5    1
    5     4     6    1
    6     4     7    1
    7     7     8    1
    8     7     9    1
    9     7    10    1
   10    10    11    1
   11    10    12    1
   12    10    13    1
   13    13    14    1
   14    13    15    1
   15    15    16    1
   16    15    17    1
   17    15    18    1
   18    18    19    1
   19    18    20    1
   20     1    21    1
   21    18    21    1
   22    21    22    1
   23    21    23    1
   24    13    24    1
   25    24    25    1
@<TRIPOS>SUBSTRUCTURE
       1 MOL1            1 RESIDUE      1      MOL     
@<SCITEGIC>MOL_PROPERTY
VConf Rank
SciTegic.value.IntegerValue
901

@<SCITEGIC>MOL_PROPERTY
Conf_Id
SciTegic.value.IntegerValue
167

@<SCITEGIC>MOL_PROPERTY
Delta U+W
SciTegic.value.DoubleValue
0.388

@<SCITEGIC>MOL_PROPERTY
U+W
SciTegic.value.DoubleValue
11.301

@<SCITEGIC>MOL_PROPERTY
Grad RMS
SciTegic.value.DoubleValue
0.000000

@<SCITEGIC>MOL_PROPERTY
U
SciTegic.value.DoubleValue
13.202

@<SCITEGIC>MOL_PROPERTY
W
SciTegic.value.DoubleValue
-1.901

@<SCITEGIC>MOL_PROPERTY
W(PB)
SciTegic.value.DoubleValue
-4.065

@<SCITEGIC>MOL_PROPERTY
W(SA)
SciTegic.value.DoubleValue
2.163

@<SCITEGIC>MOL_PROPERTY
Valence
SciTegic.value.DoubleValue
18.957

@<SCITEGIC>MOL_PROPERTY
Coulomb
SciTegic.value.DoubleValue
-8.753

@<SCITEGIC>MOL_PROPERTY
VdW
SciTegic.value.DoubleValue
2.998

@<SCITEGIC>MOL_PROPERTY
VdW6
SciTegic.value.DoubleValue
-12.294

@<SCITEGIC>MOL_PROPERTY
VdW12
SciTegic.value.DoubleValue
15.292

@<SCITEGIC>MOL_PROPERTY
Bond
SciTegic.value.DoubleValue
0.419

@<SCITEGIC>MOL_PROPERTY
Angle
SciTegic.value.DoubleValue
4.543

@<SCITEGIC>MOL_PROPERTY
Pdih
SciTegic.value.DoubleValue
13.996

@<SCITEGIC>MOL_PROPERTY
Idih
SciTegic.value.DoubleValue
0.000

@<SCITEGIC>MOL_PROPERTY
Tether
SciTegic.value.DoubleValue
0.000

@<TRIPOS>MOLECULE
guest-s17_confgen4.mol2 : confsearch ligand conformer 902
          25          25           1
SMALL
USER_CHARGES
 
@<TRIPOS>ATOM
       1    C1      19.703547   20.690627   21.321414 C.3        1 MOL1        -0.1684
       2    H1      18.813764   21.306078   21.511171 H          1 MOL1         0.0833
       3    H2      20.119012   21.055938   20.372280 H          1 MOL1         0.0833
       4    C2      19.260417   19.219894   21.107205 C.3        1 MOL1        -0.1684
       5    H3      18.471560   18.946589   21.817003 H          1 MOL1         0.0833
       6    H4      18.771585   19.170935   20.124514 H          1 MOL1         0.0833
       7    C3      20.401118   18.169603   21.130297 C.3        1 MOL1        -0.1684
       8    H5      21.361000   18.623296   20.851802 H          1 MOL1         0.0833
       9    H6      20.190642   17.436205   20.339898 H          1 MOL1         0.0833
      10    C4      20.531346   17.377451   22.459877 C.3        1 MOL1        -0.1760
      11    H7      19.571353   16.899957   22.695791 H          1 MOL1         0.0833
      12    H8      21.236622   16.553985   22.285875 H          1 MOL1         0.0833
      13    C5      21.026469   18.165471   23.698136 C.3        1 MOL1         0.1219
      14    H9      21.970274   18.669067   23.449584 H          1 MOL1         0.0790
      15    C6      20.006125   19.200013   24.239752 C.3        1 MOL1        -0.1760
      16    H10     18.994363   18.936068   23.915804 H          1 MOL1         0.0833
      17    H11     19.966096   19.136014   25.335309 H          1 MOL1         0.0833
      18    C7      20.315756   20.676171   23.879404 C.3        1 MOL1        -0.1684
      19    H12     21.117726   21.024999   24.544315 H          1 MOL1         0.0833
      20    H13     19.439606   21.293204   24.120616 H          1 MOL1         0.0833
      21    C8      20.758581   20.963963   22.422712 C.3        1 MOL1        -0.1684
      22    H14     21.693103   20.439424   22.193201 H          1 MOL1         0.0833
      23    H15     21.019407   22.029615   22.366343 H          1 MOL1         0.0833
      24    O1      21.287605   17.217541   24.726435 O.3        1 MOL1        -0.5508
      25    H16     21.664934   17.717732   25.480060 H          1 MOL1         0.3780
@<TRIPOS>BOND
    1     1     2    1
    2     1     3    1
    3     1     4    1
    4     4     5    1
    5     4     6    1
    6     4     7    1
    7     7     8    1
    8     7     9    1
    9     7    10    1
   10    10    11    1
   11    10    12    1
   12    10    13    1
   13    13    14    1
   14    13    15    1
   15    15    16    1
   16    15    17    1
   17    15    18    1
   18    18    19    1
   19    18    20    1
   20     1    21    1
   21    18    21    1
   22    21    22    1
   23    21    23    1
   24    13    24    1
   25    24    25    1
@<TRIPOS>SUBSTRUCTURE
       1 MOL1            1 RESIDUE      1      MOL     
@<SCITEGIC>MOL_PROPERTY
VConf Rank
SciTegic.value.IntegerValue
902

@<SCITEGIC>MOL_PROPERTY
Conf_Id
SciTegic.value.IntegerValue
60

@<SCITEGIC>MOL_PROPERTY
Delta U+W
SciTegic.value.DoubleValue
-1.838

@<SCITEGIC>MOL_PROPERTY
U+W
SciTegic.value.DoubleValue
9.075

@<SCITEGIC>MOL_PROPERTY
Grad RMS
SciTegic.value.DoubleValue
0.000000

@<SCITEGIC>MOL_PROPERTY
U
SciTegic.value.DoubleValue
11.150

@<SCITEGIC>MOL_PROPERTY
W
SciTegic.value.DoubleValue
-2.074

@<SCITEGIC>MOL_PROPERTY
W(PB)
SciTegic.value.DoubleValue
-4.196

@<SCITEGIC>MOL_PROPERTY
W(SA)
SciTegic.value.DoubleValue
2.121

@<SCITEGIC>MOL_PROPERTY
Valence
SciTegic.value.DoubleValue
16.582

@<SCITEGIC>MOL_PROPERTY
Coulomb
SciTegic.value.DoubleValue
-8.361

@<SCITEGIC>MOL_PROPERTY
VdW
SciTegic.value.DoubleValue
2.928

@<SCITEGIC>MOL_PROPERTY
VdW6
SciTegic.value.DoubleValue
-12.539

@<SCITEGIC>MOL_PROPERTY
VdW12
SciTegic.value.DoubleValue
15.467

@<SCITEGIC>MOL_PROPERTY
Bond
SciTegic.value.DoubleValue
0.441

@<SCITEGIC>MOL_PROPERTY
Angle
SciTegic.value.DoubleValue
5.093

@<SCITEGIC>MOL_PROPERTY
Pdih
SciTegic.value.DoubleValue
11.049

@<SCITEGIC>MOL_PROPERTY
Idih
SciTegic.value.DoubleValue
0.000

@<SCITEGIC>MOL_PROPERTY
Tether
SciTegic.value.DoubleValue
0.000

@<TRIPOS>MOLECULE
guest-s17_confgen4.mol2 : confsearch ligand conformer 903
          25          25           1
SMALL
USER_CHARGES
 
@<TRIPOS>ATOM
       1    C1      20.324927   21.202712   23.104540 C.3        1 MOL1        -0.1684
       2    H1      19.626633   21.624833   23.839865 H          1 MOL1         0.0833
       3    H2      20.904414   22.054837   22.723758 H          1 MOL1         0.0833
       4    C2      19.522969   20.620717   21.913402 C.3        1 MOL1        -0.1684
       5    H3      18.959561   21.449906   21.464136 H          1 MOL1         0.0833
       6    H4      20.204236   20.289840   21.121226 H          1 MOL1         0.0833
       7    C3      18.503358   19.505487   22.256224 C.3        1 MOL1        -0.1684
       8    H5      17.938054   19.281050   21.341346 H          1 MOL1         0.0833
       9    H6      17.767523   19.894791   22.972841 H          1 MOL1         0.0833
      10    C4      19.078704   18.172126   22.800178 C.3        1 MOL1        -0.1760
      11    H7      19.290690   18.260618   23.870461 H          1 MOL1         0.0833
      12    H8      18.275120   17.425847   22.743068 H          1 MOL1         0.0833
      13    C5      20.329300   17.643970   22.050656 C.3        1 MOL1         0.1219
      14    H9      20.392675   18.110391   21.058392 H          1 MOL1         0.0790
      15    C6      21.662635   17.874174   22.804731 C.3        1 MOL1        -0.1760
      16    H10     21.589626   17.437127   23.809173 H          1 MOL1         0.0833
      17    H11     22.441161   17.298117   22.287198 H          1 MOL1         0.0833
      18    C7      22.162179   19.340667   22.914738 C.3        1 MOL1        -0.1684
      19    H12     22.282315   19.786758   21.919077 H          1 MOL1         0.0833
      20    H13     23.176032   19.302837   23.336135 H          1 MOL1         0.0833
      21    C8      21.308860   20.251903   23.834707 C.3        1 MOL1        -0.1684
      22    H14     21.992685   20.883076   24.418692 H          1 MOL1         0.0833
      23    H15     20.782081   19.653829   24.586781 H          1 MOL1         0.0833
      24    O1      20.181142   16.240337   21.871688 O.3        1 MOL1        -0.5508
      25    H16     19.371837   16.109741   21.334580 H          1 MOL1         0.3780
@<TRIPOS>BOND
    1     1     2    1
    2     1     3    1
    3     1     4    1
    4     4     5    1
    5     4     6    1
    6     4     7    1
    7     7     8    1
    8     7     9    1
    9     7    10    1
   10    10    11    1
   11    10    12    1
   12    10    13    1
   13    13    14    1
   14    13    15    1
   15    15    16    1
   16    15    17    1
   17    15    18    1
   18    18    19    1
   19    18    20    1
   20     1    21    1
   21    18    21    1
   22    21    22    1
   23    21    23    1
   24    13    24    1
   25    24    25    1
@<TRIPOS>SUBSTRUCTURE
       1 MOL1            1 RESIDUE      1      MOL     
@<SCITEGIC>MOL_PROPERTY
VConf Rank
SciTegic.value.IntegerValue
903

@<SCITEGIC>MOL_PROPERTY
Conf_Id
SciTegic.value.IntegerValue
129

@<SCITEGIC>MOL_PROPERTY
Delta U+W
SciTegic.value.DoubleValue
-1.846

@<SCITEGIC>MOL_PROPERTY
U+W
SciTegic.value.DoubleValue
9.067

@<SCITEGIC>MOL_PROPERTY
Grad RMS
SciTegic.value.DoubleValue
0.000000

@<SCITEGIC>MOL_PROPERTY
U
SciTegic.value.DoubleValue
11.150

@<SCITEGIC>MOL_PROPERTY
W
SciTegic.value.DoubleValue
-2.083

@<SCITEGIC>MOL_PROPERTY
W(PB)
SciTegic.value.DoubleValue
-4.217

@<SCITEGIC>MOL_PROPERTY
W(SA)
SciTegic.value.DoubleValue
2.134

@<SCITEGIC>MOL_PROPERTY
Valence
SciTegic.value.DoubleValue
16.583

@<SCITEGIC>MOL_PROPERTY
Coulomb
SciTegic.value.DoubleValue
-8.361

@<SCITEGIC>MOL_PROPERTY
VdW
SciTegic.value.DoubleValue
2.928

@<SCITEGIC>MOL_PROPERTY
VdW6
SciTegic.value.DoubleValue
-12.539

@<SCITEGIC>MOL_PROPERTY
VdW12
SciTegic.value.DoubleValue
15.467

@<SCITEGIC>MOL_PROPERTY
Bond
SciTegic.value.DoubleValue
0.441

@<SCITEGIC>MOL_PROPERTY
Angle
SciTegic.value.DoubleValue
5.093

@<SCITEGIC>MOL_PROPERTY
Pdih
SciTegic.value.DoubleValue
11.049

@<SCITEGIC>MOL_PROPERTY
Idih
SciTegic.value.DoubleValue
0.000

@<SCITEGIC>MOL_PROPERTY
Tether
SciTegic.value.DoubleValue
0.000

@<TRIPOS>MOLECULE
guest-s17_confgen4.mol2 : confsearch ligand conformer 904
          25          25           1
SMALL
USER_CHARGES
 
@<TRIPOS>ATOM
       1    C1      21.219759   17.428946   22.262778 C.3        1 MOL1        -0.1684
       2    H1      22.316105   17.371845   22.227147 H          1 MOL1         0.0833
       3    H2      20.863726   16.407363   22.071652 H          1 MOL1         0.0833
       4    C2      20.715863   18.319109   21.099200 C.3        1 MOL1        -0.1684
       5    H3      21.037048   17.843375   20.162545 H          1 MOL1         0.0833
       6    H4      19.620896   18.304207   21.054181 H          1 MOL1         0.0833
       7    C3      21.241130   19.776469   21.077679 C.3        1 MOL1        -0.1684
       8    H5      20.894260   20.238869   20.143377 H          1 MOL1         0.0833
       9    H6      22.337729   19.766224   21.015534 H          1 MOL1         0.0833
      10    C4      20.811643   20.696345   22.250130 C.3        1 MOL1        -0.1760
      11    H7      21.451649   20.521832   23.121035 H          1 MOL1         0.0833
      12    H8      21.034164   21.727856   21.945028 H          1 MOL1         0.0833
      13    C5      19.317468   20.593273   22.651866 C.3        1 MOL1         0.1219
      14    H9      18.740620   20.160314   21.823818 H          1 MOL1         0.0790
      15    C6      19.059485   19.770324   23.939149 C.3        1 MOL1        -0.1760
      16    H10     19.658142   20.181870   24.762226 H          1 MOL1         0.0833
      17    H11     18.010917   19.923046   24.227966 H          1 MOL1         0.0833
      18    C7      19.298230   18.238539   23.851642 C.3        1 MOL1        -0.1684
      19    H12     18.678510   17.792062   23.063354 H          1 MOL1         0.0833
      20    H13     18.927238   17.802162   24.789142 H          1 MOL1         0.0833
      21    C8      20.783442   17.819939   23.698467 C.3        1 MOL1        -0.1684
      22    H14     20.959128   16.944286   24.338324 H          1 MOL1         0.0833
      23    H15     21.445229   18.592219   24.106417 H          1 MOL1         0.0833
      24    O1      18.828771   21.907943   22.886346 O.3        1 MOL1        -0.5508
      25    H16     19.354218   22.269994   23.629156 H          1 MOL1         0.3780
@<TRIPOS>BOND
    1     1     2    1
    2     1     3    1
    3     1     4    1
    4     4     5    1
    5     4     6    1
    6     4     7    1
    7     7     8    1
    8     7     9    1
    9     7    10    1
   10    10    11    1
   11    10    12    1
   12    10    13    1
   13    13    14    1
   14    13    15    1
   15    15    16    1
   16    15    17    1
   17    15    18    1
   18    18    19    1
   19    18    20    1
   20     1    21    1
   21    18    21    1
   22    21    22    1
   23    21    23    1
   24    13    24    1
   25    24    25    1
@<TRIPOS>SUBSTRUCTURE
       1 MOL1            1 RESIDUE      1      MOL     
@<SCITEGIC>MOL_PROPERTY
VConf Rank
SciTegic.value.IntegerValue
904

@<SCITEGIC>MOL_PROPERTY
Conf_Id
SciTegic.value.IntegerValue
140

@<SCITEGIC>MOL_PROPERTY
Delta U+W
SciTegic.value.DoubleValue
-1.702

@<SCITEGIC>MOL_PROPERTY
U+W
SciTegic.value.DoubleValue
9.211

@<SCITEGIC>MOL_PROPERTY
Grad RMS
SciTegic.value.DoubleValue
0.000000

@<SCITEGIC>MOL_PROPERTY
U
SciTegic.value.DoubleValue
11.181

@<SCITEGIC>MOL_PROPERTY
W
SciTegic.value.DoubleValue
-1.969

@<SCITEGIC>MOL_PROPERTY
W(PB)
SciTegic.value.DoubleValue
-4.093

@<SCITEGIC>MOL_PROPERTY
W(SA)
SciTegic.value.DoubleValue
2.124

@<SCITEGIC>MOL_PROPERTY
Valence
SciTegic.value.DoubleValue
16.954

@<SCITEGIC>MOL_PROPERTY
Coulomb
SciTegic.value.DoubleValue
-8.661

@<SCITEGIC>MOL_PROPERTY
VdW
SciTegic.value.DoubleValue
2.887

@<SCITEGIC>MOL_PROPERTY
VdW6
SciTegic.value.DoubleValue
-12.561

@<SCITEGIC>MOL_PROPERTY
VdW12
SciTegic.value.DoubleValue
15.448

@<SCITEGIC>MOL_PROPERTY
Bond
SciTegic.value.DoubleValue
0.433

@<SCITEGIC>MOL_PROPERTY
Angle
SciTegic.value.DoubleValue
5.120

@<SCITEGIC>MOL_PROPERTY
Pdih
SciTegic.value.DoubleValue
11.401

@<SCITEGIC>MOL_PROPERTY
Idih
SciTegic.value.DoubleValue
0.000

@<SCITEGIC>MOL_PROPERTY
Tether
SciTegic.value.DoubleValue
0.000

@<TRIPOS>MOLECULE
guest-s17_confgen4.mol2 : confsearch ligand conformer 905
          25          25           1
SMALL
USER_CHARGES
 
@<TRIPOS>ATOM
       1    C1      19.281056   17.812972   21.467765 C.3        1 MOL1        -0.1684
       2    H1      19.513062   17.714818   20.398631 H          1 MOL1         0.0833
       3    H2      18.481146   17.086242   21.665065 H          1 MOL1         0.0833
       4    C2      18.706871   19.229437   21.729272 C.3        1 MOL1        -0.1684
       5    H3      19.259994   19.982223   21.156410 H          1 MOL1         0.0833
       6    H4      17.694887   19.250787   21.302090 H          1 MOL1         0.0833
       7    C3      18.609251   19.642839   23.220619 C.3        1 MOL1        -0.1684
       8    H5      18.535801   18.761672   23.870961 H          1 MOL1         0.0833
       9    H6      17.658438   20.176910   23.353608 H          1 MOL1         0.0833
      10    C4      19.735485   20.594595   23.707212 C.3        1 MOL1        -0.1760
      11    H7      19.756899   21.485149   23.065596 H          1 MOL1         0.0833
      12    H8      19.453010   20.953608   24.705987 H          1 MOL1         0.0833
      13    C5      21.161512   19.996963   23.808084 C.3        1 MOL1         0.1219
      14    H9      21.130752   19.089383   24.425518 H          1 MOL1         0.0790
      15    C6      21.816263   19.676073   22.439544 C.3        1 MOL1        -0.1760
      16    H10     21.350516   20.270985   21.647270 H          1 MOL1         0.0833
      17    H11     22.864159   20.005214   22.453518 H          1 MOL1         0.0833
      18    C7      21.820016   18.175038   22.049477 C.3        1 MOL1        -0.1684
      19    H12     22.620813   17.682218   22.617722 H          1 MOL1         0.0833
      20    H13     22.104215   18.081819   20.992576 H          1 MOL1         0.0833
      21    C8      20.513863   17.380534   22.300469 C.3        1 MOL1        -0.1684
      22    H14     20.268459   17.371364   23.368596 H          1 MOL1         0.0833
      23    H15     20.719863   16.329618   22.055634 H          1 MOL1         0.0833
      24    O1      21.974030   20.954141   24.475753 O.3        1 MOL1        -0.5508
      25    H16     21.982382   21.753013   23.909469 H          1 MOL1         0.3780
@<TRIPOS>BOND
    1     1     2    1
    2     1     3    1
    3     1     4    1
    4     4     5    1
    5     4     6    1
    6     4     7    1
    7     7     8    1
    8     7     9    1
    9     7    10    1
   10    10    11    1
   11    10    12    1
   12    10    13    1
   13    13    14    1
   14    13    15    1
   15    15    16    1
   16    15    17    1
   17    15    18    1
   18    18    19    1
   19    18    20    1
   20     1    21    1
   21    18    21    1
   22    21    22    1
   23    21    23    1
   24    13    24    1
   25    24    25    1
@<TRIPOS>SUBSTRUCTURE
       1 MOL1            1 RESIDUE      1      MOL     
@<SCITEGIC>MOL_PROPERTY
VConf Rank
SciTegic.value.IntegerValue
905

@<SCITEGIC>MOL_PROPERTY
Conf_Id
SciTegic.value.IntegerValue
68

@<SCITEGIC>MOL_PROPERTY
Delta U+W
SciTegic.value.DoubleValue
-1.765

@<SCITEGIC>MOL_PROPERTY
U+W
SciTegic.value.DoubleValue
9.148

@<SCITEGIC>MOL_PROPERTY
Grad RMS
SciTegic.value.DoubleValue
0.000000

@<SCITEGIC>MOL_PROPERTY
U
SciTegic.value.DoubleValue
11.181

@<SCITEGIC>MOL_PROPERTY
W
SciTegic.value.DoubleValue
-2.032

@<SCITEGIC>MOL_PROPERTY
W(PB)
SciTegic.value.DoubleValue
-4.147

@<SCITEGIC>MOL_PROPERTY
W(SA)
SciTegic.value.DoubleValue
2.114

@<SCITEGIC>MOL_PROPERTY
Valence
SciTegic.value.DoubleValue
16.955

@<SCITEGIC>MOL_PROPERTY
Coulomb
SciTegic.value.DoubleValue
-8.661

@<SCITEGIC>MOL_PROPERTY
VdW
SciTegic.value.DoubleValue
2.887

@<SCITEGIC>MOL_PROPERTY
VdW6
SciTegic.value.DoubleValue
-12.561

@<SCITEGIC>MOL_PROPERTY
VdW12
SciTegic.value.DoubleValue
15.448

@<SCITEGIC>MOL_PROPERTY
Bond
SciTegic.value.DoubleValue
0.433

@<SCITEGIC>MOL_PROPERTY
Angle
SciTegic.value.DoubleValue
5.121

@<SCITEGIC>MOL_PROPERTY
Pdih
SciTegic.value.DoubleValue
11.402

@<SCITEGIC>MOL_PROPERTY
Idih
SciTegic.value.DoubleValue
0.000

@<SCITEGIC>MOL_PROPERTY
Tether
SciTegic.value.DoubleValue
0.000

@<TRIPOS>MOLECULE
guest-s17_confgen4.mol2 : confsearch ligand conformer 906
          25          25           1
SMALL
USER_CHARGES
 
@<TRIPOS>ATOM
       1    C1      19.473400   20.650274   21.783901 C.3        1 MOL1        -0.1684
       2    H1      19.086697   21.477581   21.173082 H          1 MOL1         0.0833
       3    H2      19.206265   20.923531   22.810965 H          1 MOL1         0.0833
       4    C2      21.014388   20.606645   21.614320 C.3        1 MOL1        -0.1684
       5    H3      21.306552   19.892273   20.833983 H          1 MOL1         0.0833
       6    H4      21.332740   21.588011   21.236706 H          1 MOL1         0.0833
       7    C3      21.806308   20.346986   22.922770 C.3        1 MOL1        -0.1684
       8    H5      21.531593   21.103072   23.671062 H          1 MOL1         0.0833
       9    H6      22.870067   20.518139   22.708395 H          1 MOL1         0.0833
      10    C4      21.672507   18.933417   23.549246 C.3        1 MOL1        -0.1760
      11    H7      21.971553   18.165547   22.825709 H          1 MOL1         0.0833
      12    H8      22.415260   18.873885   24.356330 H          1 MOL1         0.0833
      13    C5      20.273267   18.622334   24.141058 C.3        1 MOL1         0.1219
      14    H9      19.744070   19.565117   24.321768 H          1 MOL1         0.0790
      15    C6      19.387818   17.702933   23.264288 C.3        1 MOL1        -0.1760
      16    H10     19.737700   16.668648   23.380097 H          1 MOL1         0.0833
      17    H11     18.366079   17.721126   23.665290 H          1 MOL1         0.0833
      18    C7      19.338263   18.007052   21.744710 C.3        1 MOL1        -0.1684
      19    H12     18.732795   17.220845   21.273530 H          1 MOL1         0.0833
      20    H13     20.333017   17.894480   21.298504 H          1 MOL1         0.0833
      21    C8      18.719050   19.369098   21.342783 C.3        1 MOL1        -0.1684
      22    H14     17.684781   19.420433   21.709169 H          1 MOL1         0.0833
      23    H15     18.645859   19.384899   20.246703 H          1 MOL1         0.0833
      24    O1      20.445835   17.978094   25.397186 O.3        1 MOL1        -0.5508
      25    H16     20.934734   17.148713   25.218318 H          1 MOL1         0.3780
@<TRIPOS>BOND
    1     1     2    1
    2     1     3    1
    3     1     4    1
    4     4     5    1
    5     4     6    1
    6     4     7    1
    7     7     8    1
    8     7     9    1
    9     7    10    1
   10    10    11    1
   11    10    12    1
   12    10    13    1
   13    13    14    1
   14    13    15    1
   15    15    16    1
   16    15    17    1
   17    15    18    1
   18    18    19    1
   19    18    20    1
   20     1    21    1
   21    18    21    1
   22    21    22    1
   23    21    23    1
   24    13    24    1
   25    24    25    1
@<TRIPOS>SUBSTRUCTURE
       1 MOL1            1 RESIDUE      1      MOL     
@<SCITEGIC>MOL_PROPERTY
VConf Rank
SciTegic.value.IntegerValue
906

@<SCITEGIC>MOL_PROPERTY
Conf_Id
SciTegic.value.IntegerValue
165

@<SCITEGIC>MOL_PROPERTY
Delta U+W
SciTegic.value.DoubleValue
-1.999

@<SCITEGIC>MOL_PROPERTY
U+W
SciTegic.value.DoubleValue
8.915

@<SCITEGIC>MOL_PROPERTY
Grad RMS
SciTegic.value.DoubleValue
0.000000

@<SCITEGIC>MOL_PROPERTY
U
SciTegic.value.DoubleValue
10.935

@<SCITEGIC>MOL_PROPERTY
W
SciTegic.value.DoubleValue
-2.020

@<SCITEGIC>MOL_PROPERTY
W(PB)
SciTegic.value.DoubleValue
-4.135

@<SCITEGIC>MOL_PROPERTY
W(SA)
SciTegic.value.DoubleValue
2.115

@<SCITEGIC>MOL_PROPERTY
Valence
SciTegic.value.DoubleValue
16.757

@<SCITEGIC>MOL_PROPERTY
Coulomb
SciTegic.value.DoubleValue
-8.731

@<SCITEGIC>MOL_PROPERTY
VdW
SciTegic.value.DoubleValue
2.908

@<SCITEGIC>MOL_PROPERTY
VdW6
SciTegic.value.DoubleValue
-12.597

@<SCITEGIC>MOL_PROPERTY
VdW12
SciTegic.value.DoubleValue
15.506

@<SCITEGIC>MOL_PROPERTY
Bond
SciTegic.value.DoubleValue
0.434

@<SCITEGIC>MOL_PROPERTY
Angle
SciTegic.value.DoubleValue
5.069

@<SCITEGIC>MOL_PROPERTY
Pdih
SciTegic.value.DoubleValue
11.254

@<SCITEGIC>MOL_PROPERTY
Idih
SciTegic.value.DoubleValue
0.000

@<SCITEGIC>MOL_PROPERTY
Tether
SciTegic.value.DoubleValue
0.000

@<TRIPOS>MOLECULE
guest-s17_confgen4.mol2 : confsearch ligand conformer 907
          25          25           1
SMALL
USER_CHARGES
 
@<TRIPOS>ATOM
       1    C1      20.955784   20.352923   21.407645 C.3        1 MOL1        -0.1684
       2    H1      21.311886   21.000861   20.594964 H          1 MOL1         0.0833
       3    H2      21.118778   20.943430   22.316236 H          1 MOL1         0.0833
       4    C2      21.853341   19.088075   21.405893 C.3        1 MOL1        -0.1684
       5    H3      22.008859   18.790317   20.359872 H          1 MOL1         0.0833
       6    H4      22.847721   19.355795   21.788125 H          1 MOL1         0.0833
       7    C3      21.329093   17.844347   22.166580 C.3        1 MOL1        -0.1684
       8    H5      22.035526   17.024231   21.979330 H          1 MOL1         0.0833
       9    H6      20.384675   17.500562   21.729341 H          1 MOL1         0.0833
      10    C4      21.192049   17.993425   23.703794 C.3        1 MOL1        -0.1760
      11    H7      20.919018   17.008635   24.106483 H          1 MOL1         0.0833
      12    H8      22.176949   18.230719   24.126145 H          1 MOL1         0.0833
      13    C5      20.166525   19.030069   24.224780 C.3        1 MOL1         0.1219
      14    H9      20.592883   20.036241   24.137055 H          1 MOL1         0.0790
      15    C6      18.794190   19.000222   23.503677 C.3        1 MOL1        -0.1760
      16    H10     18.621662   18.025137   23.032974 H          1 MOL1         0.0833
      17    H11     18.003060   19.096406   24.259583 H          1 MOL1         0.0833
      18    C7      18.579736   20.144807   22.477555 C.3        1 MOL1        -0.1684
      19    H12     18.726418   21.112161   22.977253 H          1 MOL1         0.0833
      20    H13     17.524184   20.127573   22.173770 H          1 MOL1         0.0833
      21    C8      19.442084   20.095323   21.188844 C.3        1 MOL1        -0.1684
      22    H14     19.066266   20.883108   20.521637 H          1 MOL1         0.0833
      23    H15     19.275165   19.156949   20.644601 H          1 MOL1         0.0833
      24    O1      19.956580   18.763926   25.607027 O.3        1 MOL1        -0.5508
      25    H16     20.831107   18.833346   26.043858 H          1 MOL1         0.3780
@<TRIPOS>BOND
    1     1     2    1
    2     1     3    1
    3     1     4    1
    4     4     5    1
    5     4     6    1
    6     4     7    1
    7     7     8    1
    8     7     9    1
    9     7    10    1
   10    10    11    1
   11    10    12    1
   12    10    13    1
   13    13    14    1
   14    13    15    1
   15    15    16    1
   16    15    17    1
   17    15    18    1
   18    18    19    1
   19    18    20    1
   20     1    21    1
   21    18    21    1
   22    21    22    1
   23    21    23    1
   24    13    24    1
   25    24    25    1
@<TRIPOS>SUBSTRUCTURE
       1 MOL1            1 RESIDUE      1      MOL     
@<SCITEGIC>MOL_PROPERTY
VConf Rank
SciTegic.value.IntegerValue
907

@<SCITEGIC>MOL_PROPERTY
Conf_Id
SciTegic.value.IntegerValue
133

@<SCITEGIC>MOL_PROPERTY
Delta U+W
SciTegic.value.DoubleValue
-2.139

@<SCITEGIC>MOL_PROPERTY
U+W
SciTegic.value.DoubleValue
8.774

@<SCITEGIC>MOL_PROPERTY
Grad RMS
SciTegic.value.DoubleValue
0.000000

@<SCITEGIC>MOL_PROPERTY
U
SciTegic.value.DoubleValue
10.905

@<SCITEGIC>MOL_PROPERTY
W
SciTegic.value.DoubleValue
-2.131

@<SCITEGIC>MOL_PROPERTY
W(PB)
SciTegic.value.DoubleValue
-4.281

@<SCITEGIC>MOL_PROPERTY
W(SA)
SciTegic.value.DoubleValue
2.150

@<SCITEGIC>MOL_PROPERTY
Valence
SciTegic.value.DoubleValue
16.378

@<SCITEGIC>MOL_PROPERTY
Coulomb
SciTegic.value.DoubleValue
-8.448

@<SCITEGIC>MOL_PROPERTY
VdW
SciTegic.value.DoubleValue
2.976

@<SCITEGIC>MOL_PROPERTY
VdW6
SciTegic.value.DoubleValue
-12.570

@<SCITEGIC>MOL_PROPERTY
VdW12
SciTegic.value.DoubleValue
15.545

@<SCITEGIC>MOL_PROPERTY
Bond
SciTegic.value.DoubleValue
0.439

@<SCITEGIC>MOL_PROPERTY
Angle
SciTegic.value.DoubleValue
5.049

@<SCITEGIC>MOL_PROPERTY
Pdih
SciTegic.value.DoubleValue
10.889

@<SCITEGIC>MOL_PROPERTY
Idih
SciTegic.value.DoubleValue
0.000

@<SCITEGIC>MOL_PROPERTY
Tether
SciTegic.value.DoubleValue
0.000

@<TRIPOS>MOLECULE
guest-s17_confgen4.mol2 : confsearch ligand conformer 908
          25          25           1
SMALL
USER_CHARGES
 
@<TRIPOS>ATOM
       1    C1      21.199067   18.874437   24.211004 C.3        1 MOL1        -0.1684
       2    H1      21.680371   18.704548   25.183922 H          1 MOL1         0.0833
       3    H2      21.921902   18.493393   23.480854 H          1 MOL1         0.0833
       4    C2      20.998857   20.402216   24.034001 C.3        1 MOL1        -0.1684
       5    H3      19.994552   20.709118   24.353049 H          1 MOL1         0.0833
       6    H4      21.685463   20.907557   24.726975 H          1 MOL1         0.0833
       7    C3      21.313233   20.940308   22.613263 C.3        1 MOL1        -0.1684
       8    H5      22.339849   20.662882   22.337435 H          1 MOL1         0.0833
       9    H6      21.308291   22.037691   22.663258 H          1 MOL1         0.0833
      10    C4      20.344771   20.515344   21.477271 C.3        1 MOL1        -0.1760
      11    H7      19.316906   20.811326   21.718117 H          1 MOL1         0.0833
      12    H8      20.612205   21.107101   20.591363 H          1 MOL1         0.0833
      13    C5      20.412792   19.012672   21.101063 C.3        1 MOL1         0.1219
      14    H9      21.363213   18.599041   21.458087 H          1 MOL1         0.0790
      15    C6      19.244873   18.156550   21.649488 C.3        1 MOL1        -0.1760
      16    H10     18.358815   18.347521   21.029047 H          1 MOL1         0.0833
      17    H11     19.490271   17.096062   21.508557 H          1 MOL1         0.0833
      18    C7      18.834161   18.383420   23.127281 C.3        1 MOL1        -0.1684
      19    H12     17.953875   17.755822   23.322003 H          1 MOL1         0.0833
      20    H13     18.479038   19.410054   23.272895 H          1 MOL1         0.0833
      21    C8      19.900623   18.026397   24.192897 C.3        1 MOL1        -0.1684
      22    H14     20.168813   16.965450   24.097848 H          1 MOL1         0.0833
      23    H15     19.424209   18.123941   25.178047 H          1 MOL1         0.0833
      24    O1      20.393451   18.900666   19.682405 O.3        1 MOL1        -0.5508
      25    H16     20.482769   17.947395   19.473275 H          1 MOL1         0.3780
@<TRIPOS>BOND
    1     1     2    1
    2     1     3    1
    3     1     4    1
    4     4     5    1
    5     4     6    1
    6     4     7    1
    7     7     8    1
    8     7     9    1
    9     7    10    1
   10    10    11    1
   11    10    12    1
   12    10    13    1
   13    13    14    1
   14    13    15    1
   15    15    16    1
   16    15    17    1
   17    15    18    1
   18    18    19    1
   19    18    20    1
   20     1    21    1
   21    18    21    1
   22    21    22    1
   23    21    23    1
   24    13    24    1
   25    24    25    1
@<TRIPOS>SUBSTRUCTURE
       1 MOL1            1 RESIDUE      1      MOL     
@<SCITEGIC>MOL_PROPERTY
VConf Rank
SciTegic.value.IntegerValue
908

@<SCITEGIC>MOL_PROPERTY
Conf_Id
SciTegic.value.IntegerValue
95

@<SCITEGIC>MOL_PROPERTY
Delta U+W
SciTegic.value.DoubleValue
-2.190

@<SCITEGIC>MOL_PROPERTY
U+W
SciTegic.value.DoubleValue
8.723

@<SCITEGIC>MOL_PROPERTY
Grad RMS
SciTegic.value.DoubleValue
0.000000

@<SCITEGIC>MOL_PROPERTY
U
SciTegic.value.DoubleValue
10.905

@<SCITEGIC>MOL_PROPERTY
W
SciTegic.value.DoubleValue
-2.182

@<SCITEGIC>MOL_PROPERTY
W(PB)
SciTegic.value.DoubleValue
-4.296

@<SCITEGIC>MOL_PROPERTY
W(SA)
SciTegic.value.DoubleValue
2.114

@<SCITEGIC>MOL_PROPERTY
Valence
SciTegic.value.DoubleValue
16.377

@<SCITEGIC>MOL_PROPERTY
Coulomb
SciTegic.value.DoubleValue
-8.448

@<SCITEGIC>MOL_PROPERTY
VdW
SciTegic.value.DoubleValue
2.976

@<SCITEGIC>MOL_PROPERTY
VdW6
SciTegic.value.DoubleValue
-12.570

@<SCITEGIC>MOL_PROPERTY
VdW12
SciTegic.value.DoubleValue
15.546

@<SCITEGIC>MOL_PROPERTY
Bond
SciTegic.value.DoubleValue
0.439

@<SCITEGIC>MOL_PROPERTY
Angle
SciTegic.value.DoubleValue
5.049

@<SCITEGIC>MOL_PROPERTY
Pdih
SciTegic.value.DoubleValue
10.889

@<SCITEGIC>MOL_PROPERTY
Idih
SciTegic.value.DoubleValue
0.000

@<SCITEGIC>MOL_PROPERTY
Tether
SciTegic.value.DoubleValue
0.000

@<TRIPOS>MOLECULE
guest-s17_confgen4.mol2 : confsearch ligand conformer 909
          25          25           1
SMALL
USER_CHARGES
 
@<TRIPOS>ATOM
       1    C1      18.693659   19.679627   23.380647 C.3        1 MOL1        -0.1684
       2    H1      17.758312   19.912887   23.907540 H          1 MOL1         0.0833
       3    H2      18.480658   19.966809   22.346049 H          1 MOL1         0.0833
       4    C2      18.911502   18.142484   23.498769 C.3        1 MOL1        -0.1684
       5    H3      18.534462   17.832740   24.483066 H          1 MOL1         0.0833
       6    H4      18.269017   17.634211   22.767097 H          1 MOL1         0.0833
       7    C3      20.358086   17.595461   23.377710 C.3        1 MOL1        -0.1684
       8    H5      20.327181   16.520932   23.604095 H          1 MOL1         0.0833
       9    H6      20.969837   18.009489   24.185404 H          1 MOL1         0.0833
      10    C4      21.072860   17.754523   22.002822 C.3        1 MOL1        -0.1760
      11    H7      22.157154   17.674375   22.155319 H          1 MOL1         0.0833
      12    H8      20.793722   16.885116   21.393333 H          1 MOL1         0.0833
      13    C5      20.771962   19.020819   21.161605 C.3        1 MOL1         0.1219
      14    H9      19.692771   19.059446   20.980850 H          1 MOL1         0.0790
      15    C6      21.251340   20.382601   21.741551 C.3        1 MOL1        -0.1760
      16    H10     22.295534   20.531491   21.435274 H          1 MOL1         0.0833
      17    H11     20.683422   21.184281   21.252607 H          1 MOL1         0.0833
      18    C7      21.198416   20.592902   23.279078 C.3        1 MOL1        -0.1684
      19    H12     21.672704   21.559215   23.498169 H          1 MOL1         0.0833
      20    H13     21.858294   19.868027   23.766099 H          1 MOL1         0.0833
      21    C8      19.796387   20.607430   23.955547 C.3        1 MOL1        -0.1684
      22    H14     19.413213   21.635260   23.895444 H          1 MOL1         0.0833
      23    H15     19.917412   20.403006   25.027931 H          1 MOL1         0.0833
      24    O1      21.405687   18.852633   19.898783 O.3        1 MOL1        -0.5508
      25    H16     21.049489   18.026179   19.511288 H          1 MOL1         0.3780
@<TRIPOS>BOND
    1     1     2    1
    2     1     3    1
    3     1     4    1
    4     4     5    1
    5     4     6    1
    6     4     7    1
    7     7     8    1
    8     7     9    1
    9     7    10    1
   10    10    11    1
   11    10    12    1
   12    10    13    1
   13    13    14    1
   14    13    15    1
   15    15    16    1
   16    15    17    1
   17    15    18    1
   18    18    19    1
   19    18    20    1
   20     1    21    1
   21    18    21    1
   22    21    22    1
   23    21    23    1
   24    13    24    1
   25    24    25    1
@<TRIPOS>SUBSTRUCTURE
       1 MOL1            1 RESIDUE      1      MOL     
@<SCITEGIC>MOL_PROPERTY
VConf Rank
SciTegic.value.IntegerValue
909

@<SCITEGIC>MOL_PROPERTY
Conf_Id
SciTegic.value.IntegerValue
161

@<SCITEGIC>MOL_PROPERTY
Delta U+W
SciTegic.value.DoubleValue
2.120

@<SCITEGIC>MOL_PROPERTY
U+W
SciTegic.value.DoubleValue
13.033

@<SCITEGIC>MOL_PROPERTY
Grad RMS
SciTegic.value.DoubleValue
0.000000

@<SCITEGIC>MOL_PROPERTY
U
SciTegic.value.DoubleValue
15.076

@<SCITEGIC>MOL_PROPERTY
W
SciTegic.value.DoubleValue
-2.043

@<SCITEGIC>MOL_PROPERTY
W(PB)
SciTegic.value.DoubleValue
-4.186

@<SCITEGIC>MOL_PROPERTY
W(SA)
SciTegic.value.DoubleValue
2.143

@<SCITEGIC>MOL_PROPERTY
Valence
SciTegic.value.DoubleValue
18.884

@<SCITEGIC>MOL_PROPERTY
Coulomb
SciTegic.value.DoubleValue
-8.074

@<SCITEGIC>MOL_PROPERTY
VdW
SciTegic.value.DoubleValue
4.266

@<SCITEGIC>MOL_PROPERTY
VdW6
SciTegic.value.DoubleValue
-13.486

@<SCITEGIC>MOL_PROPERTY
VdW12
SciTegic.value.DoubleValue
17.752

@<SCITEGIC>MOL_PROPERTY
Bond
SciTegic.value.DoubleValue
0.713

@<SCITEGIC>MOL_PROPERTY
Angle
SciTegic.value.DoubleValue
8.955

@<SCITEGIC>MOL_PROPERTY
Pdih
SciTegic.value.DoubleValue
9.215

@<SCITEGIC>MOL_PROPERTY
Idih
SciTegic.value.DoubleValue
0.000

@<SCITEGIC>MOL_PROPERTY
Tether
SciTegic.value.DoubleValue
0.000

@<TRIPOS>MOLECULE
guest-s17_confgen4.mol2 : confsearch ligand conformer 910
          25          25           1
SMALL
USER_CHARGES
 
@<TRIPOS>ATOM
       1    C1      22.251905   18.884680   22.396930 C.3        1 MOL1        -0.1684
       2    H1      23.349538   18.914582   22.432899 H          1 MOL1         0.0833
       3    H2      22.017905   18.213145   21.561154 H          1 MOL1         0.0833
       4    C2      21.744377   20.314455   22.084144 C.3        1 MOL1        -0.1684
       5    H3      21.637645   20.901247   23.006354 H          1 MOL1         0.0833
       6    H4      22.537139   20.815355   21.511608 H          1 MOL1         0.0833
       7    C3      20.453914   20.384100   21.220902 C.3        1 MOL1        -0.1684
       8    H5      20.445013   19.595107   20.456901 H          1 MOL1         0.0833
       9    H6      20.497076   21.328908   20.661728 H          1 MOL1         0.0833
      10    C4      19.123629   20.394814   22.017584 C.3        1 MOL1        -0.1760
      11    H7      19.260685   20.932595   22.963615 H          1 MOL1         0.0833
      12    H8      18.400995   20.997559   21.451781 H          1 MOL1         0.0833
      13    C5      18.456356   19.016373   22.255229 C.3        1 MOL1         0.1219
      14    H9      18.073786   18.655733   21.289645 H          1 MOL1         0.0790
      15    C6      19.360007   17.905869   22.839249 C.3        1 MOL1        -0.1760
      16    H10     18.718474   17.076638   23.166197 H          1 MOL1         0.0833
      17    H11     19.966457   17.479748   22.032774 H          1 MOL1         0.0833
      18    C7      20.252615   18.347693   24.029742 C.3        1 MOL1        -0.1684
      19    H12     20.036751   17.702021   24.891855 H          1 MOL1         0.0833
      20    H13     19.996365   19.359316   24.364487 H          1 MOL1         0.0833
      21    C8      21.770933   18.274205   23.739929 C.3        1 MOL1        -0.1684
      22    H14     22.085088   17.221938   23.769088 H          1 MOL1         0.0833
      23    H15     22.302810   18.767581   24.564835 H          1 MOL1         0.0833
      24    O1      17.360530   19.206475   23.139193 O.3        1 MOL1        -0.5508
      25    H16     17.752950   19.389922   24.016782 H          1 MOL1         0.3780
@<TRIPOS>BOND
    1     1     2    1
    2     1     3    1
    3     1     4    1
    4     4     5    1
    5     4     6    1
    6     4     7    1
    7     7     8    1
    8     7     9    1
    9     7    10    1
   10    10    11    1
   11    10    12    1
   12    10    13    1
   13    13    14    1
   14    13    15    1
   15    15    16    1
   16    15    17    1
   17    15    18    1
   18    18    19    1
   19    18    20    1
   20     1    21    1
   21    18    21    1
   22    21    22    1
   23    21    23    1
   24    13    24    1
   25    24    25    1
@<TRIPOS>SUBSTRUCTURE
       1 MOL1            1 RESIDUE      1      MOL     
@<SCITEGIC>MOL_PROPERTY
VConf Rank
SciTegic.value.IntegerValue
910

@<SCITEGIC>MOL_PROPERTY
Conf_Id
SciTegic.value.IntegerValue
164

@<SCITEGIC>MOL_PROPERTY
Delta U+W
SciTegic.value.DoubleValue
0.008

@<SCITEGIC>MOL_PROPERTY
U+W
SciTegic.value.DoubleValue
10.922

@<SCITEGIC>MOL_PROPERTY
Grad RMS
SciTegic.value.DoubleValue
0.000000

@<SCITEGIC>MOL_PROPERTY
U
SciTegic.value.DoubleValue
12.433

@<SCITEGIC>MOL_PROPERTY
W
SciTegic.value.DoubleValue
-1.511

@<SCITEGIC>MOL_PROPERTY
W(PB)
SciTegic.value.DoubleValue
-3.669

@<SCITEGIC>MOL_PROPERTY
W(SA)
SciTegic.value.DoubleValue
2.157

@<SCITEGIC>MOL_PROPERTY
Valence
SciTegic.value.DoubleValue
19.007

@<SCITEGIC>MOL_PROPERTY
Coulomb
SciTegic.value.DoubleValue
-9.373

@<SCITEGIC>MOL_PROPERTY
VdW
SciTegic.value.DoubleValue
2.799

@<SCITEGIC>MOL_PROPERTY
VdW6
SciTegic.value.DoubleValue
-12.597

@<SCITEGIC>MOL_PROPERTY
VdW12
SciTegic.value.DoubleValue
15.396

@<SCITEGIC>MOL_PROPERTY
Bond
SciTegic.value.DoubleValue
0.425

@<SCITEGIC>MOL_PROPERTY
Angle
SciTegic.value.DoubleValue
4.784

@<SCITEGIC>MOL_PROPERTY
Pdih
SciTegic.value.DoubleValue
13.799

@<SCITEGIC>MOL_PROPERTY
Idih
SciTegic.value.DoubleValue
0.000

@<SCITEGIC>MOL_PROPERTY
Tether
SciTegic.value.DoubleValue
0.000

@<TRIPOS>MOLECULE
guest-s17_confgen4.mol2 : confsearch ligand conformer 911
          25          25           1
SMALL
USER_CHARGES
 
@<TRIPOS>ATOM
       1    C1      21.444974   17.826118   22.313385 C.3        1 MOL1        -0.1684
       2    H1      22.091061   18.704819   22.420046 H          1 MOL1         0.0833
       3    H2      22.137527   16.996000   22.118583 H          1 MOL1         0.0833
       4    C2      20.537787   17.970324   21.066014 C.3        1 MOL1        -0.1684
       5    H3      21.194890   18.064947   20.190705 H          1 MOL1         0.0833
       6    H4      19.976164   17.038332   20.916092 H          1 MOL1         0.0833
       7    C3      19.547740   19.162873   21.046133 C.3        1 MOL1        -0.1684
       8    H5      18.634580   18.914403   21.598821 H          1 MOL1         0.0833
       9    H6      19.213969   19.289441   20.007104 H          1 MOL1         0.0833
      10    C4      20.129703   20.515564   21.536362 C.3        1 MOL1        -0.1760
      11    H7      21.219720   20.540016   21.417847 H          1 MOL1         0.0833
      12    H8      19.747288   21.297158   20.866208 H          1 MOL1         0.0833
      13    C5      19.723335   20.916345   22.976748 C.3        1 MOL1         0.1219
      14    H9      18.627183   20.872164   23.048156 H          1 MOL1         0.0790
      15    C6      20.316631   20.063743   24.126335 C.3        1 MOL1        -0.1760
      16    H10     21.412796   20.073346   24.093013 H          1 MOL1         0.0833
      17    H11     20.050460   20.564333   25.066974 H          1 MOL1         0.0833
      18    C7      19.775975   18.611239   24.208223 C.3        1 MOL1        -0.1684
      19    H12     18.788912   18.541361   23.737175 H          1 MOL1         0.0833
      20    H13     19.593491   18.372202   25.264900 H          1 MOL1         0.0833
      21    C8      20.724290   17.519555   23.649930 C.3        1 MOL1        -0.1684
      22    H14     20.166554   16.578172   23.553833 H          1 MOL1         0.0833
      23    H15     21.499094   17.329707   24.405270 H          1 MOL1         0.0833
      24    O1      20.133924   22.261188   23.181716 O.3        1 MOL1        -0.5508
      25    H16     21.110595   22.265458   23.111850 H          1 MOL1         0.3780
@<TRIPOS>BOND
    1     1     2    1
    2     1     3    1
    3     1     4    1
    4     4     5    1
    5     4     6    1
    6     4     7    1
    7     7     8    1
    8     7     9    1
    9     7    10    1
   10    10    11    1
   11    10    12    1
   12    10    13    1
   13    13    14    1
   14    13    15    1
   15    15    16    1
   16    15    17    1
   17    15    18    1
   18    18    19    1
   19    18    20    1
   20     1    21    1
   21    18    21    1
   22    21    22    1
   23    21    23    1
   24    13    24    1
   25    24    25    1
@<TRIPOS>SUBSTRUCTURE
       1 MOL1            1 RESIDUE      1      MOL     
@<SCITEGIC>MOL_PROPERTY
VConf Rank
SciTegic.value.IntegerValue
911

@<SCITEGIC>MOL_PROPERTY
Conf_Id
SciTegic.value.IntegerValue
15

@<SCITEGIC>MOL_PROPERTY
Delta U+W
SciTegic.value.DoubleValue
-1.271

@<SCITEGIC>MOL_PROPERTY
U+W
SciTegic.value.DoubleValue
9.643

@<SCITEGIC>MOL_PROPERTY
Grad RMS
SciTegic.value.DoubleValue
0.000000

@<SCITEGIC>MOL_PROPERTY
U
SciTegic.value.DoubleValue
11.413

@<SCITEGIC>MOL_PROPERTY
W
SciTegic.value.DoubleValue
-1.770

@<SCITEGIC>MOL_PROPERTY
W(PB)
SciTegic.value.DoubleValue
-3.908

@<SCITEGIC>MOL_PROPERTY
W(SA)
SciTegic.value.DoubleValue
2.138

@<SCITEGIC>MOL_PROPERTY
Valence
SciTegic.value.DoubleValue
17.496

@<SCITEGIC>MOL_PROPERTY
Coulomb
SciTegic.value.DoubleValue
-8.736

@<SCITEGIC>MOL_PROPERTY
VdW
SciTegic.value.DoubleValue
2.653

@<SCITEGIC>MOL_PROPERTY
VdW6
SciTegic.value.DoubleValue
-12.485

@<SCITEGIC>MOL_PROPERTY
VdW12
SciTegic.value.DoubleValue
15.138

@<SCITEGIC>MOL_PROPERTY
Bond
SciTegic.value.DoubleValue
0.414

@<SCITEGIC>MOL_PROPERTY
Angle
SciTegic.value.DoubleValue
5.295

@<SCITEGIC>MOL_PROPERTY
Pdih
SciTegic.value.DoubleValue
11.787

@<SCITEGIC>MOL_PROPERTY
Idih
SciTegic.value.DoubleValue
0.000

@<SCITEGIC>MOL_PROPERTY
Tether
SciTegic.value.DoubleValue
0.000

@<TRIPOS>MOLECULE
guest-s17_confgen4.mol2 : confsearch ligand conformer 912
          25          25           1
SMALL
USER_CHARGES
 
@<TRIPOS>ATOM
       1    C1      21.882415   18.138748   22.988260 C.3        1 MOL1        -0.1684
       2    H1      22.867480   17.692572   23.182051 H          1 MOL1         0.0833
       3    H2      21.314019   17.350780   22.478165 H          1 MOL1         0.0833
       4    C2      21.251982   18.461791   24.368486 C.3        1 MOL1        -0.1684
       5    H3      21.049900   17.511716   24.881656 H          1 MOL1         0.0833
       6    H4      21.996546   18.982149   24.986245 H          1 MOL1         0.0833
       7    C3      19.954578   19.305579   24.358715 C.3        1 MOL1        -0.1684
       8    H5      20.205162   20.361876   24.206355 H          1 MOL1         0.0833
       9    H6      19.513523   19.264194   25.363974 H          1 MOL1         0.0833
      10    C4      18.896079   18.829061   23.330142 C.3        1 MOL1        -0.1760
      11    H7      19.184260   17.868531   22.888864 H          1 MOL1         0.0833
      12    H8      17.959853   18.623965   23.865504 H          1 MOL1         0.0833
      13    C5      18.580382   19.851765   22.214490 C.3        1 MOL1         0.1219
      14    H9      17.976363   20.654673   22.660953 H          1 MOL1         0.0790
      15    C6      19.796380   20.524566   21.526619 C.3        1 MOL1        -0.1760
      16    H10     19.408754   21.079215   20.661492 H          1 MOL1         0.0833
      17    H11     20.216986   21.297710   22.180723 H          1 MOL1         0.0833
      18    C7      20.928948   19.588101   21.027254 C.3        1 MOL1        -0.1684
      19    H12     21.375524   20.072772   20.148161 H          1 MOL1         0.0833
      20    H13     20.523674   18.637379   20.657533 H          1 MOL1         0.0833
      21    C8      22.082864   19.345927   22.038989 C.3        1 MOL1        -0.1684
      22    H14     22.309862   20.257094   22.608579 H          1 MOL1         0.0833
      23    H15     22.986051   19.140214   21.448133 H          1 MOL1         0.0833
      24    O1      17.805106   19.197716   21.219717 O.3        1 MOL1        -0.5508
      25    H16     18.407950   18.560448   20.786575 H          1 MOL1         0.3780
@<TRIPOS>BOND
    1     1     2    1
    2     1     3    1
    3     1     4    1
    4     4     5    1
    5     4     6    1
    6     4     7    1
    7     7     8    1
    8     7     9    1
    9     7    10    1
   10    10    11    1
   11    10    12    1
   12    10    13    1
   13    13    14    1
   14    13    15    1
   15    15    16    1
   16    15    17    1
   17    15    18    1
   18    18    19    1
   19    18    20    1
   20     1    21    1
   21    18    21    1
   22    21    22    1
   23    21    23    1
   24    13    24    1
   25    24    25    1
@<TRIPOS>SUBSTRUCTURE
       1 MOL1            1 RESIDUE      1      MOL     
@<SCITEGIC>MOL_PROPERTY
VConf Rank
SciTegic.value.IntegerValue
912

@<SCITEGIC>MOL_PROPERTY
Conf_Id
SciTegic.value.IntegerValue
115

@<SCITEGIC>MOL_PROPERTY
Delta U+W
SciTegic.value.DoubleValue
0.038

@<SCITEGIC>MOL_PROPERTY
U+W
SciTegic.value.DoubleValue
10.952

@<SCITEGIC>MOL_PROPERTY
Grad RMS
SciTegic.value.DoubleValue
0.000000

@<SCITEGIC>MOL_PROPERTY
U
SciTegic.value.DoubleValue
12.526

@<SCITEGIC>MOL_PROPERTY
W
SciTegic.value.DoubleValue
-1.575

@<SCITEGIC>MOL_PROPERTY
W(PB)
SciTegic.value.DoubleValue
-3.698

@<SCITEGIC>MOL_PROPERTY
W(SA)
SciTegic.value.DoubleValue
2.123

@<SCITEGIC>MOL_PROPERTY
Valence
SciTegic.value.DoubleValue
19.016

@<SCITEGIC>MOL_PROPERTY
Coulomb
SciTegic.value.DoubleValue
-9.226

@<SCITEGIC>MOL_PROPERTY
VdW
SciTegic.value.DoubleValue
2.737

@<SCITEGIC>MOL_PROPERTY
VdW6
SciTegic.value.DoubleValue
-12.612

@<SCITEGIC>MOL_PROPERTY
VdW12
SciTegic.value.DoubleValue
15.349

@<SCITEGIC>MOL_PROPERTY
Bond
SciTegic.value.DoubleValue
0.421

@<SCITEGIC>MOL_PROPERTY
Angle
SciTegic.value.DoubleValue
4.883

@<SCITEGIC>MOL_PROPERTY
Pdih
SciTegic.value.DoubleValue
13.711

@<SCITEGIC>MOL_PROPERTY
Idih
SciTegic.value.DoubleValue
0.000

@<SCITEGIC>MOL_PROPERTY
Tether
SciTegic.value.DoubleValue
0.000

@<TRIPOS>MOLECULE
guest-s17_confgen4.mol2 : confsearch ligand conformer 913
          25          25           1
SMALL
USER_CHARGES
 
@<TRIPOS>ATOM
       1    C1      18.830179   19.346294   21.136235 C.3        1 MOL1        -0.1684
       2    H1      17.831334   19.146314   20.724771 H          1 MOL1         0.0833
       3    H2      19.285553   20.081311   20.458843 H          1 MOL1         0.0833
       4    C2      19.621966   18.018745   21.089078 C.3        1 MOL1        -0.1684
       5    H3      19.099026   17.246881   21.669900 H          1 MOL1         0.0833
       6    H4      19.608325   17.665055   20.049023 H          1 MOL1         0.0833
       7    C3      21.098052   18.117296   21.538913 C.3        1 MOL1        -0.1684
       8    H5      21.558669   19.030116   21.138200 H          1 MOL1         0.0833
       9    H6      21.641156   17.286193   21.068308 H          1 MOL1         0.0833
      10    C4      21.307615   18.001731   23.072754 C.3        1 MOL1        -0.1760
      11    H7      20.402994   17.632834   23.572139 H          1 MOL1         0.0833
      12    H8      22.070179   17.229372   23.241627 H          1 MOL1         0.0833
      13    C5      21.792131   19.302841   23.751216 C.3        1 MOL1         0.1219
      14    H9      22.475471   19.827213   23.068025 H          1 MOL1         0.0790
      15    C6      20.662775   20.269567   24.171252 C.3        1 MOL1        -0.1760
      16    H10     20.004771   19.781645   24.902384 H          1 MOL1         0.0833
      17    H11     21.127492   21.110651   24.702314 H          1 MOL1         0.0833
      18    C7      19.825000   20.857048   23.009500 C.3        1 MOL1        -0.1684
      19    H12     20.476051   21.131061   22.168618 H          1 MOL1         0.0833
      20    H13     19.393919   21.803620   23.363621 H          1 MOL1         0.0833
      21    C8      18.649516   19.957604   22.545561 C.3        1 MOL1        -0.1684
      22    H14     17.748032   20.585020   22.515913 H          1 MOL1         0.0833
      23    H15     18.431044   19.170592   23.279529 H          1 MOL1         0.0833
      24    O1      22.508193   18.945651   24.927361 O.3        1 MOL1        -0.5508
      25    H16     22.852399   19.778101   25.313214 H          1 MOL1         0.3780
@<TRIPOS>BOND
    1     1     2    1
    2     1     3    1
    3     1     4    1
    4     4     5    1
    5     4     6    1
    6     4     7    1
    7     7     8    1
    8     7     9    1
    9     7    10    1
   10    10    11    1
   11    10    12    1
   12    10    13    1
   13    13    14    1
   14    13    15    1
   15    15    16    1
   16    15    17    1
   17    15    18    1
   18    18    19    1
   19    18    20    1
   20     1    21    1
   21    18    21    1
   22    21    22    1
   23    21    23    1
   24    13    24    1
   25    24    25    1
@<TRIPOS>SUBSTRUCTURE
       1 MOL1            1 RESIDUE      1      MOL     
@<SCITEGIC>MOL_PROPERTY
VConf Rank
SciTegic.value.IntegerValue
913

@<SCITEGIC>MOL_PROPERTY
Conf_Id
SciTegic.value.IntegerValue
30

@<SCITEGIC>MOL_PROPERTY
Delta U+W
SciTegic.value.DoubleValue
0.000

@<SCITEGIC>MOL_PROPERTY
U+W
SciTegic.value.DoubleValue
10.913

@<SCITEGIC>MOL_PROPERTY
Grad RMS
SciTegic.value.DoubleValue
0.000000

@<SCITEGIC>MOL_PROPERTY
U
SciTegic.value.DoubleValue
13.140

@<SCITEGIC>MOL_PROPERTY
W
SciTegic.value.DoubleValue
-2.227

@<SCITEGIC>MOL_PROPERTY
W(PB)
SciTegic.value.DoubleValue
-4.367

@<SCITEGIC>MOL_PROPERTY
W(SA)
SciTegic.value.DoubleValue
2.140

@<SCITEGIC>MOL_PROPERTY
Valence
SciTegic.value.DoubleValue
19.155

@<SCITEGIC>MOL_PROPERTY
Coulomb
SciTegic.value.DoubleValue
-8.157

@<SCITEGIC>MOL_PROPERTY
VdW
SciTegic.value.DoubleValue
2.142

@<SCITEGIC>MOL_PROPERTY
VdW6
SciTegic.value.DoubleValue
-11.576

@<SCITEGIC>MOL_PROPERTY
VdW12
SciTegic.value.DoubleValue
13.718

@<SCITEGIC>MOL_PROPERTY
Bond
SciTegic.value.DoubleValue
0.294

@<SCITEGIC>MOL_PROPERTY
Angle
SciTegic.value.DoubleValue
3.547

@<SCITEGIC>MOL_PROPERTY
Pdih
SciTegic.value.DoubleValue
15.314

@<SCITEGIC>MOL_PROPERTY
Idih
SciTegic.value.DoubleValue
0.000

@<SCITEGIC>MOL_PROPERTY
Tether
SciTegic.value.DoubleValue
0.000

@<TRIPOS>MOLECULE
guest-s17_confgen4.mol2 : confsearch ligand conformer 914
          25          25           1
SMALL
USER_CHARGES
 
@<TRIPOS>ATOM
       1    C1      20.884642   21.301118   22.686642 C.3        1 MOL1        -0.1684
       2    H1      21.383636   21.950660   21.954552 H          1 MOL1         0.0833
       3    H2      20.759560   21.913552   23.589997 H          1 MOL1         0.0833
       4    C2      21.832714   20.124636   23.025955 C.3        1 MOL1        -0.1684
       5    H3      22.843328   20.533155   23.162492 H          1 MOL1         0.0833
       6    H4      21.567787   19.708834   24.004973 H          1 MOL1         0.0833
       7    C3      21.889376   19.015329   21.945201 C.3        1 MOL1        -0.1684
       8    H5      22.934727   18.874888   21.638276 H          1 MOL1         0.0833
       9    H6      21.369606   19.328439   21.032273 H          1 MOL1         0.0833
      10    C4      21.338946   17.645327   22.416029 C.3        1 MOL1        -0.1760
      11    H7      21.245784   16.989602   21.540183 H          1 MOL1         0.0833
      12    H8      22.088074   17.174982   23.066220 H          1 MOL1         0.0833
      13    C5      19.992936   17.658088   23.183018 C.3        1 MOL1         0.1219
      14    H9      20.148957   18.091735   24.179810 H          1 MOL1         0.0790
      15    C6      18.844902   18.426203   22.483510 C.3        1 MOL1        -0.1760
      16    H10     18.952967   18.363578   21.393119 H          1 MOL1         0.0833
      17    H11     17.901699   17.911984   22.711420 H          1 MOL1         0.0833
      18    C7      18.670674   19.902519   22.939455 C.3        1 MOL1        -0.1684
      19    H12     18.863966   20.012128   24.015115 H          1 MOL1         0.0833
      20    H13     17.609288   20.153925   22.807196 H          1 MOL1         0.0833
      21    C8      19.482818   20.940972   22.126535 C.3        1 MOL1        -0.1684
      22    H14     18.902324   21.873231   22.095125 H          1 MOL1         0.0833
      23    H15     19.555706   20.622733   21.078804 H          1 MOL1         0.0833
      24    O1      19.591301   16.303331   23.348968 O.3        1 MOL1        -0.5508
      25    H16     18.782917   16.314350   23.902907 H          1 MOL1         0.3780
@<TRIPOS>BOND
    1     1     2    1
    2     1     3    1
    3     1     4    1
    4     4     5    1
    5     4     6    1
    6     4     7    1
    7     7     8    1
    8     7     9    1
    9     7    10    1
   10    10    11    1
   11    10    12    1
   12    10    13    1
   13    13    14    1
   14    13    15    1
   15    15    16    1
   16    15    17    1
   17    15    18    1
   18    18    19    1
   19    18    20    1
   20     1    21    1
   21    18    21    1
   22    21    22    1
   23    21    23    1
   24    13    24    1
   25    24    25    1
@<TRIPOS>SUBSTRUCTURE
       1 MOL1            1 RESIDUE      1      MOL     
@<SCITEGIC>MOL_PROPERTY
VConf Rank
SciTegic.value.IntegerValue
914

@<SCITEGIC>MOL_PROPERTY
Conf_Id
SciTegic.value.IntegerValue
162

@<SCITEGIC>MOL_PROPERTY
Delta U+W
SciTegic.value.DoubleValue
0.219

@<SCITEGIC>MOL_PROPERTY
U+W
SciTegic.value.DoubleValue
11.132

@<SCITEGIC>MOL_PROPERTY
Grad RMS
SciTegic.value.DoubleValue
0.000000

@<SCITEGIC>MOL_PROPERTY
U
SciTegic.value.DoubleValue
13.296

@<SCITEGIC>MOL_PROPERTY
W
SciTegic.value.DoubleValue
-2.164

@<SCITEGIC>MOL_PROPERTY
W(PB)
SciTegic.value.DoubleValue
-4.311

@<SCITEGIC>MOL_PROPERTY
W(SA)
SciTegic.value.DoubleValue
2.148

@<SCITEGIC>MOL_PROPERTY
Valence
SciTegic.value.DoubleValue
18.607

@<SCITEGIC>MOL_PROPERTY
Coulomb
SciTegic.value.DoubleValue
-8.339

@<SCITEGIC>MOL_PROPERTY
VdW
SciTegic.value.DoubleValue
3.028

@<SCITEGIC>MOL_PROPERTY
VdW6
SciTegic.value.DoubleValue
-12.271

@<SCITEGIC>MOL_PROPERTY
VdW12
SciTegic.value.DoubleValue
15.299

@<SCITEGIC>MOL_PROPERTY
Bond
SciTegic.value.DoubleValue
0.423

@<SCITEGIC>MOL_PROPERTY
Angle
SciTegic.value.DoubleValue
4.488

@<SCITEGIC>MOL_PROPERTY
Pdih
SciTegic.value.DoubleValue
13.696

@<SCITEGIC>MOL_PROPERTY
Idih
SciTegic.value.DoubleValue
0.000

@<SCITEGIC>MOL_PROPERTY
Tether
SciTegic.value.DoubleValue
0.000

@<TRIPOS>MOLECULE
guest-s17_confgen4.mol2 : confsearch ligand conformer 915
          25          25           1
SMALL
USER_CHARGES
 
@<TRIPOS>ATOM
       1    C1      20.754590   17.781006   21.352407 C.3        1 MOL1        -0.1684
       2    H1      20.048571   17.147902   21.904593 H          1 MOL1         0.0833
       3    H2      21.084775   17.160872   20.507790 H          1 MOL1         0.0833
       4    C2      20.018661   19.017513   20.778681 C.3        1 MOL1        -0.1684
       5    H3      20.730428   19.819896   20.542455 H          1 MOL1         0.0833
       6    H4      19.591765   18.714184   19.812818 H          1 MOL1         0.0833
       7    C3      18.841683   19.547760   21.644199 C.3        1 MOL1        -0.1684
       8    H5      18.291965   18.721891   22.115280 H          1 MOL1         0.0833
       9    H6      18.126459   20.016180   20.954149 H          1 MOL1         0.0833
      10    C4      19.224254   20.624735   22.692508 C.3        1 MOL1        -0.1760
      11    H7      20.038884   21.249879   22.306674 H          1 MOL1         0.0833
      12    H8      18.370780   21.306962   22.799100 H          1 MOL1         0.0833
      13    C5      19.558918   20.111313   24.115787 C.3        1 MOL1         0.1219
      14    H9      18.623666   19.760664   24.575612 H          1 MOL1         0.0790
      15    C6      20.577828   18.950182   24.203256 C.3        1 MOL1        -0.1760
      16    H10     20.881284   18.829682   25.251299 H          1 MOL1         0.0833
      17    H11     20.069477   18.011762   23.957238 H          1 MOL1         0.0833
      18    C7      21.849821   19.134931   23.334132 C.3        1 MOL1        -0.1684
      19    H12     22.732957   19.082804   23.985066 H          1 MOL1         0.0833
      20    H13     21.883549   20.140442   22.898335 H          1 MOL1         0.0833
      21    C8      22.010567   18.079317   22.213587 C.3        1 MOL1        -0.1684
      22    H14     22.347487   17.135852   22.664251 H          1 MOL1         0.0833
      23    H15     22.826008   18.402149   21.552113 H          1 MOL1         0.0833
      24    O1      20.058987   21.210579   24.867881 O.3        1 MOL1        -0.5508
      25    H16     20.267346   20.868862   25.761712 H          1 MOL1         0.3780
@<TRIPOS>BOND
    1     1     2    1
    2     1     3    1
    3     1     4    1
    4     4     5    1
    5     4     6    1
    6     4     7    1
    7     7     8    1
    8     7     9    1
    9     7    10    1
   10    10    11    1
   11    10    12    1
   12    10    13    1
   13    13    14    1
   14    13    15    1
   15    15    16    1
   16    15    17    1
   17    15    18    1
   18    18    19    1
   19    18    20    1
   20     1    21    1
   21    18    21    1
   22    21    22    1
   23    21    23    1
   24    13    24    1
   25    24    25    1
@<TRIPOS>SUBSTRUCTURE
       1 MOL1            1 RESIDUE      1      MOL     
@<SCITEGIC>MOL_PROPERTY
VConf Rank
SciTegic.value.IntegerValue
915

@<SCITEGIC>MOL_PROPERTY
Conf_Id
SciTegic.value.IntegerValue
155

@<SCITEGIC>MOL_PROPERTY
Delta U+W
SciTegic.value.DoubleValue
0.339

@<SCITEGIC>MOL_PROPERTY
U+W
SciTegic.value.DoubleValue
11.252

@<SCITEGIC>MOL_PROPERTY
Grad RMS
SciTegic.value.DoubleValue
0.000000

@<SCITEGIC>MOL_PROPERTY
U
SciTegic.value.DoubleValue
13.420

@<SCITEGIC>MOL_PROPERTY
W
SciTegic.value.DoubleValue
-2.167

@<SCITEGIC>MOL_PROPERTY
W(PB)
SciTegic.value.DoubleValue
-4.325

@<SCITEGIC>MOL_PROPERTY
W(SA)
SciTegic.value.DoubleValue
2.157

@<SCITEGIC>MOL_PROPERTY
Valence
SciTegic.value.DoubleValue
18.609

@<SCITEGIC>MOL_PROPERTY
Coulomb
SciTegic.value.DoubleValue
-8.052

@<SCITEGIC>MOL_PROPERTY
VdW
SciTegic.value.DoubleValue
2.863

@<SCITEGIC>MOL_PROPERTY
VdW6
SciTegic.value.DoubleValue
-12.524

@<SCITEGIC>MOL_PROPERTY
VdW12
SciTegic.value.DoubleValue
15.387

@<SCITEGIC>MOL_PROPERTY
Bond
SciTegic.value.DoubleValue
0.430

@<SCITEGIC>MOL_PROPERTY
Angle
SciTegic.value.DoubleValue
4.724

@<SCITEGIC>MOL_PROPERTY
Pdih
SciTegic.value.DoubleValue
13.455

@<SCITEGIC>MOL_PROPERTY
Idih
SciTegic.value.DoubleValue
0.000

@<SCITEGIC>MOL_PROPERTY
Tether
SciTegic.value.DoubleValue
0.000

@<TRIPOS>MOLECULE
guest-s17_confgen4.mol2 : confsearch ligand conformer 916
          25          25           1
SMALL
USER_CHARGES
 
@<TRIPOS>ATOM
       1    C1      19.390867   19.479467   24.418335 C.3        1 MOL1        -0.1684
       2    H1      20.047678   19.524771   25.297475 H          1 MOL1         0.0833
       3    H2      18.372281   19.613583   24.807280 H          1 MOL1         0.0833
       4    C2      19.685154   20.692821   23.497473 C.3        1 MOL1        -0.1684
       5    H3      18.954411   20.713998   22.682791 H          1 MOL1         0.0833
       6    H4      19.460410   21.604395   24.067770 H          1 MOL1         0.0833
       7    C3      21.133131   20.843872   22.946329 C.3        1 MOL1        -0.1684
       8    H5      21.716808   21.389380   23.700183 H          1 MOL1         0.0833
       9    H6      21.111536   21.496419   22.062906 H          1 MOL1         0.0833
      10    C4      21.926065   19.552758   22.605474 C.3        1 MOL1        -0.1760
      11    H7      22.956191   19.852476   22.372432 H          1 MOL1         0.0833
      12    H8      22.041407   18.952097   23.511927 H          1 MOL1         0.0833
      13    C5      21.410758   18.667554   21.432794 C.3        1 MOL1         0.1219
      14    H9      21.791045   17.648112   21.590556 H          1 MOL1         0.0790
      15    C6      19.878945   18.576313   21.218866 C.3        1 MOL1        -0.1760
      16    H10     19.489138   19.574065   20.997366 H          1 MOL1         0.0833
      17    H11     19.708509   18.019332   20.288087 H          1 MOL1         0.0833
      18    C7      19.028843   17.881933   22.324970 C.3        1 MOL1        -0.1684
      19    H12     19.029554   16.804191   22.112110 H          1 MOL1         0.0833
      20    H13     17.982748   18.199972   22.220766 H          1 MOL1         0.0833
      21    C8      19.468909   18.051502   23.802900 C.3        1 MOL1        -0.1684
      22    H14     20.467719   17.624130   23.935972 H          1 MOL1         0.0833
      23    H15     18.829003   17.401745   24.415447 H          1 MOL1         0.0833
      24    O1      21.967710   19.175836   20.225468 O.3        1 MOL1        -0.5508
      25    H16     22.939908   19.184152   20.343808 H          1 MOL1         0.3780
@<TRIPOS>BOND
    1     1     2    1
    2     1     3    1
    3     1     4    1
    4     4     5    1
    5     4     6    1
    6     4     7    1
    7     7     8    1
    8     7     9    1
    9     7    10    1
   10    10    11    1
   11    10    12    1
   12    10    13    1
   13    13    14    1
   14    13    15    1
   15    15    16    1
   16    15    17    1
   17    15    18    1
   18    18    19    1
   19    18    20    1
   20     1    21    1
   21    18    21    1
   22    21    22    1
   23    21    23    1
   24    13    24    1
   25    24    25    1
@<TRIPOS>SUBSTRUCTURE
       1 MOL1            1 RESIDUE      1      MOL     
@<SCITEGIC>MOL_PROPERTY
VConf Rank
SciTegic.value.IntegerValue
916

@<SCITEGIC>MOL_PROPERTY
Conf_Id
SciTegic.value.IntegerValue
146

@<SCITEGIC>MOL_PROPERTY
Delta U+W
SciTegic.value.DoubleValue
2.553

@<SCITEGIC>MOL_PROPERTY
U+W
SciTegic.value.DoubleValue
13.466

@<SCITEGIC>MOL_PROPERTY
Grad RMS
SciTegic.value.DoubleValue
0.000000

@<SCITEGIC>MOL_PROPERTY
U
SciTegic.value.DoubleValue
15.643

@<SCITEGIC>MOL_PROPERTY
W
SciTegic.value.DoubleValue
-2.176

@<SCITEGIC>MOL_PROPERTY
W(PB)
SciTegic.value.DoubleValue
-4.307

@<SCITEGIC>MOL_PROPERTY
W(SA)
SciTegic.value.DoubleValue
2.131

@<SCITEGIC>MOL_PROPERTY
Valence
SciTegic.value.DoubleValue
18.916

@<SCITEGIC>MOL_PROPERTY
Coulomb
SciTegic.value.DoubleValue
-7.506

@<SCITEGIC>MOL_PROPERTY
VdW
SciTegic.value.DoubleValue
4.232

@<SCITEGIC>MOL_PROPERTY
VdW6
SciTegic.value.DoubleValue
-13.632

@<SCITEGIC>MOL_PROPERTY
VdW12
SciTegic.value.DoubleValue
17.864

@<SCITEGIC>MOL_PROPERTY
Bond
SciTegic.value.DoubleValue
0.735

@<SCITEGIC>MOL_PROPERTY
Angle
SciTegic.value.DoubleValue
9.140

@<SCITEGIC>MOL_PROPERTY
Pdih
SciTegic.value.DoubleValue
9.042

@<SCITEGIC>MOL_PROPERTY
Idih
SciTegic.value.DoubleValue
0.000

@<SCITEGIC>MOL_PROPERTY
Tether
SciTegic.value.DoubleValue
0.000

@<TRIPOS>MOLECULE
guest-s17_confgen4.mol2 : confsearch ligand conformer 917
          25          25           1
SMALL
USER_CHARGES
 
@<TRIPOS>ATOM
       1    C1      19.756017   19.772015   20.736276 C.3        1 MOL1        -0.1684
       2    H1      20.262634   19.378705   19.844563 H          1 MOL1         0.0833
       3    H2      18.967739   20.437999   20.359453 H          1 MOL1         0.0833
       4    C2      20.748942   20.642866   21.546128 C.3        1 MOL1        -0.1684
       5    H3      21.062623   21.470218   20.895057 H          1 MOL1         0.0833
       6    H4      20.234447   21.130113   22.382209 H          1 MOL1         0.0833
       7    C3      22.034896   19.932687   22.038421 C.3        1 MOL1        -0.1684
       8    H5      22.683947   20.697382   22.486700 H          1 MOL1         0.0833
       9    H6      22.588084   19.542397   21.173494 H          1 MOL1         0.0833
      10    C4      21.855904   18.794625   23.076920 C.3        1 MOL1        -0.1760
      11    H7      21.584388   17.860735   22.574725 H          1 MOL1         0.0833
      12    H8      22.845149   18.595047   23.510624 H          1 MOL1         0.0833
      13    C5      20.853758   19.098498   24.220353 C.3        1 MOL1         0.1219
      14    H9      20.708193   20.183905   24.303699 H          1 MOL1         0.0790
      15    C6      19.476485   18.407100   24.056489 C.3        1 MOL1        -0.1760
      16    H10     19.627527   17.325711   23.940285 H          1 MOL1         0.0833
      17    H11     18.921771   18.529745   24.995952 H          1 MOL1         0.0833
      18    C7      18.563681   18.923480   22.911176 C.3        1 MOL1        -0.1684
      19    H12     18.364135   19.996742   23.025587 H          1 MOL1         0.0833
      20    H13     17.587051   18.435850   23.035247 H          1 MOL1         0.0833
      21    C8      19.067314   18.599150   21.480914 C.3        1 MOL1        -0.1684
      22    H14     18.202478   18.296197   20.874848 H          1 MOL1         0.0833
      23    H15     19.714882   17.715207   21.492061 H          1 MOL1         0.0833
      24    O1      21.419426   18.630991   25.439700 O.3        1 MOL1        -0.5508
      25    H16     20.799627   18.884531   26.155093 H          1 MOL1         0.3780
@<TRIPOS>BOND
    1     1     2    1
    2     1     3    1
    3     1     4    1
    4     4     5    1
    5     4     6    1
    6     4     7    1
    7     7     8    1
    8     7     9    1
    9     7    10    1
   10    10    11    1
   11    10    12    1
   12    10    13    1
   13    13    14    1
   14    13    15    1
   15    15    16    1
   16    15    17    1
   17    15    18    1
   18    18    19    1
   19    18    20    1
   20     1    21    1
   21    18    21    1
   22    21    22    1
   23    21    23    1
   24    13    24    1
   25    24    25    1
@<TRIPOS>SUBSTRUCTURE
       1 MOL1            1 RESIDUE      1      MOL     
@<SCITEGIC>MOL_PROPERTY
VConf Rank
SciTegic.value.IntegerValue
917

@<SCITEGIC>MOL_PROPERTY
Conf_Id
SciTegic.value.IntegerValue
62

@<SCITEGIC>MOL_PROPERTY
Delta U+W
SciTegic.value.DoubleValue
-1.779

@<SCITEGIC>MOL_PROPERTY
U+W
SciTegic.value.DoubleValue
9.134

@<SCITEGIC>MOL_PROPERTY
Grad RMS
SciTegic.value.DoubleValue
0.000000

@<SCITEGIC>MOL_PROPERTY
U
SciTegic.value.DoubleValue
11.364

@<SCITEGIC>MOL_PROPERTY
W
SciTegic.value.DoubleValue
-2.230

@<SCITEGIC>MOL_PROPERTY
W(PB)
SciTegic.value.DoubleValue
-4.359

@<SCITEGIC>MOL_PROPERTY
W(SA)
SciTegic.value.DoubleValue
2.129

@<SCITEGIC>MOL_PROPERTY
Valence
SciTegic.value.DoubleValue
16.582

@<SCITEGIC>MOL_PROPERTY
Coulomb
SciTegic.value.DoubleValue
-8.150

@<SCITEGIC>MOL_PROPERTY
VdW
SciTegic.value.DoubleValue
2.933

@<SCITEGIC>MOL_PROPERTY
VdW6
SciTegic.value.DoubleValue
-12.531

@<SCITEGIC>MOL_PROPERTY
VdW12
SciTegic.value.DoubleValue
15.464

@<SCITEGIC>MOL_PROPERTY
Bond
SciTegic.value.DoubleValue
0.439

@<SCITEGIC>MOL_PROPERTY
Angle
SciTegic.value.DoubleValue
5.099

@<SCITEGIC>MOL_PROPERTY
Pdih
SciTegic.value.DoubleValue
11.044

@<SCITEGIC>MOL_PROPERTY
Idih
SciTegic.value.DoubleValue
0.000

@<SCITEGIC>MOL_PROPERTY
Tether
SciTegic.value.DoubleValue
0.000

@<TRIPOS>MOLECULE
guest-s17_confgen4.mol2 : confsearch ligand conformer 918
          25          25           1
SMALL
USER_CHARGES
 
@<TRIPOS>ATOM
       1    C1      21.264065   18.396528   21.242204 C.3        1 MOL1        -0.1684
       2    H1      20.213975   18.124464   21.085951 H          1 MOL1         0.0833
       3    H2      21.801140   17.912217   20.415382 H          1 MOL1         0.0833
       4    C2      21.792415   17.776531   22.559817 C.3        1 MOL1        -0.1684
       5    H3      21.692580   16.685920   22.473281 H          1 MOL1         0.0833
       6    H4      22.870238   17.970143   22.645294 H          1 MOL1         0.0833
       7    C3      21.097141   18.213035   23.874647 C.3        1 MOL1        -0.1684
       8    H5      21.511077   19.162821   24.231794 H          1 MOL1         0.0833
       9    H6      21.377990   17.483640   24.646743 H          1 MOL1         0.0833
      10    C4      19.547690   18.282571   23.813980 C.3        1 MOL1        -0.1760
      11    H7      19.154161   17.631784   23.023498 H          1 MOL1         0.0833
      12    H8      19.167248   17.859558   24.752952 H          1 MOL1         0.0833
      13    C5      18.963341   19.711699   23.681603 C.3        1 MOL1         0.1219
      14    H9      19.386585   20.332791   24.484155 H          1 MOL1         0.0790
      15    C6      19.209366   20.434160   22.333481 C.3        1 MOL1        -0.1760
      16    H10     18.803887   19.845138   21.501960 H          1 MOL1         0.0833
      17    H11     18.613018   21.356039   22.351340 H          1 MOL1         0.0833
      18    C7      20.683381   20.841016   22.066431 C.3        1 MOL1        -0.1684
      19    H12     21.231486   20.940529   23.010160 H          1 MOL1         0.0833
      20    H13     20.687513   21.852856   21.638516 H          1 MOL1         0.0833
      21    C8      21.455325   19.925428   21.082194 C.3        1 MOL1        -0.1684
      22    H14     22.525839   20.165117   21.137250 H          1 MOL1         0.0833
      23    H15     21.143696   20.190673   20.062677 H          1 MOL1         0.0833
      24    O1      17.556362   19.621503   23.867881 O.3        1 MOL1        -0.5508
      25    H16     17.412675   19.225570   24.752606 H          1 MOL1         0.3780
@<TRIPOS>BOND
    1     1     2    1
    2     1     3    1
    3     1     4    1
    4     4     5    1
    5     4     6    1
    6     4     7    1
    7     7     8    1
    8     7     9    1
    9     7    10    1
   10    10    11    1
   11    10    12    1
   12    10    13    1
   13    13    14    1
   14    13    15    1
   15    15    16    1
   16    15    17    1
   17    15    18    1
   18    18    19    1
   19    18    20    1
   20     1    21    1
   21    18    21    1
   22    21    22    1
   23    21    23    1
   24    13    24    1
   25    24    25    1
@<TRIPOS>SUBSTRUCTURE
       1 MOL1            1 RESIDUE      1      MOL     
@<SCITEGIC>MOL_PROPERTY
VConf Rank
SciTegic.value.IntegerValue
918

@<SCITEGIC>MOL_PROPERTY
Conf_Id
SciTegic.value.IntegerValue
121

@<SCITEGIC>MOL_PROPERTY
Delta U+W
SciTegic.value.DoubleValue
-1.283

@<SCITEGIC>MOL_PROPERTY
U+W
SciTegic.value.DoubleValue
9.630

@<SCITEGIC>MOL_PROPERTY
Grad RMS
SciTegic.value.DoubleValue
0.000000

@<SCITEGIC>MOL_PROPERTY
U
SciTegic.value.DoubleValue
11.876

@<SCITEGIC>MOL_PROPERTY
W
SciTegic.value.DoubleValue
-2.246

@<SCITEGIC>MOL_PROPERTY
W(PB)
SciTegic.value.DoubleValue
-4.376

@<SCITEGIC>MOL_PROPERTY
W(SA)
SciTegic.value.DoubleValue
2.130

@<SCITEGIC>MOL_PROPERTY
Valence
SciTegic.value.DoubleValue
17.153

@<SCITEGIC>MOL_PROPERTY
Coulomb
SciTegic.value.DoubleValue
-7.966

@<SCITEGIC>MOL_PROPERTY
VdW
SciTegic.value.DoubleValue
2.689

@<SCITEGIC>MOL_PROPERTY
VdW6
SciTegic.value.DoubleValue
-12.458

@<SCITEGIC>MOL_PROPERTY
VdW12
SciTegic.value.DoubleValue
15.147

@<SCITEGIC>MOL_PROPERTY
Bond
SciTegic.value.DoubleValue
0.421

@<SCITEGIC>MOL_PROPERTY
Angle
SciTegic.value.DoubleValue
5.258

@<SCITEGIC>MOL_PROPERTY
Pdih
SciTegic.value.DoubleValue
11.475

@<SCITEGIC>MOL_PROPERTY
Idih
SciTegic.value.DoubleValue
0.000

@<SCITEGIC>MOL_PROPERTY
Tether
SciTegic.value.DoubleValue
0.000

@<TRIPOS>MOLECULE
guest-s17_confgen4.mol2 : confsearch ligand conformer 919
          25          25           1
SMALL
USER_CHARGES
 
@<TRIPOS>ATOM
       1    C1      20.613334   20.633001   21.436581 C.3        1 MOL1        -0.1684
       2    H1      20.251303   21.145068   22.335383 H          1 MOL1         0.0833
       3    H2      20.791954   21.439149   20.712109 H          1 MOL1         0.0833
       4    C2      19.504798   19.724040   20.849504 C.3        1 MOL1        -0.1684
       5    H3      18.650200   20.367575   20.599685 H          1 MOL1         0.0833
       6    H4      19.848317   19.302870   19.894992 H          1 MOL1         0.0833
       7    C3      18.984217   18.573732   21.748789 C.3        1 MOL1        -0.1684
       8    H5      19.642620   17.700649   21.676839 H          1 MOL1         0.0833
       9    H6      18.030737   18.234546   21.321265 H          1 MOL1         0.0833
      10    C4      18.741591   18.951385   23.234751 C.3        1 MOL1        -0.1760
      11    H7      18.562467   20.027638   23.346029 H          1 MOL1         0.0833
      12    H8      17.805396   18.469662   23.546670 H          1 MOL1         0.0833
      13    C5      19.841271   18.479215   24.218454 C.3        1 MOL1         0.1219
      14    H9      19.990411   17.399799   24.071489 H          1 MOL1         0.0790
      15    C6      21.218221   19.180280   24.100534 C.3        1 MOL1        -0.1760
      16    H10     21.110484   20.263707   24.234063 H          1 MOL1         0.0833
      17    H11     21.829933   18.843870   24.947872 H          1 MOL1         0.0833
      18    C7      22.009399   18.853232   22.805781 C.3        1 MOL1        -0.1684
      19    H12     21.688077   17.890916   22.391421 H          1 MOL1         0.0833
      20    H13     23.062492   18.697252   23.077238 H          1 MOL1         0.0833
      21    C8      21.977441   19.953548   21.714451 C.3        1 MOL1        -0.1684
      22    H14     22.373384   19.538211   20.777852 H          1 MOL1         0.0833
      23    H15     22.682897   20.741589   22.011456 H          1 MOL1         0.0833
      24    O1      19.357388   18.697816   25.537732 O.3        1 MOL1        -0.5508
      25    H16     20.030234   18.333826   26.150055 H          1 MOL1         0.3780
@<TRIPOS>BOND
    1     1     2    1
    2     1     3    1
    3     1     4    1
    4     4     5    1
    5     4     6    1
    6     4     7    1
    7     7     8    1
    8     7     9    1
    9     7    10    1
   10    10    11    1
   11    10    12    1
   12    10    13    1
   13    13    14    1
   14    13    15    1
   15    15    16    1
   16    15    17    1
   17    15    18    1
   18    18    19    1
   19    18    20    1
   20     1    21    1
   21    18    21    1
   22    21    22    1
   23    21    23    1
   24    13    24    1
   25    24    25    1
@<TRIPOS>SUBSTRUCTURE
       1 MOL1            1 RESIDUE      1      MOL     
@<SCITEGIC>MOL_PROPERTY
VConf Rank
SciTegic.value.IntegerValue
919

@<SCITEGIC>MOL_PROPERTY
Conf_Id
SciTegic.value.IntegerValue
24

@<SCITEGIC>MOL_PROPERTY
Delta U+W
SciTegic.value.DoubleValue
-1.236

@<SCITEGIC>MOL_PROPERTY
U+W
SciTegic.value.DoubleValue
9.678

@<SCITEGIC>MOL_PROPERTY
Grad RMS
SciTegic.value.DoubleValue
0.000000

@<SCITEGIC>MOL_PROPERTY
U
SciTegic.value.DoubleValue
11.876

@<SCITEGIC>MOL_PROPERTY
W
SciTegic.value.DoubleValue
-2.199

@<SCITEGIC>MOL_PROPERTY
W(PB)
SciTegic.value.DoubleValue
-4.335

@<SCITEGIC>MOL_PROPERTY
W(SA)
SciTegic.value.DoubleValue
2.137

@<SCITEGIC>MOL_PROPERTY
Valence
SciTegic.value.DoubleValue
17.153

@<SCITEGIC>MOL_PROPERTY
Coulomb
SciTegic.value.DoubleValue
-7.966

@<SCITEGIC>MOL_PROPERTY
VdW
SciTegic.value.DoubleValue
2.689

@<SCITEGIC>MOL_PROPERTY
VdW6
SciTegic.value.DoubleValue
-12.458

@<SCITEGIC>MOL_PROPERTY
VdW12
SciTegic.value.DoubleValue
15.147

@<SCITEGIC>MOL_PROPERTY
Bond
SciTegic.value.DoubleValue
0.421

@<SCITEGIC>MOL_PROPERTY
Angle
SciTegic.value.DoubleValue
5.258

@<SCITEGIC>MOL_PROPERTY
Pdih
SciTegic.value.DoubleValue
11.475

@<SCITEGIC>MOL_PROPERTY
Idih
SciTegic.value.DoubleValue
0.000

@<SCITEGIC>MOL_PROPERTY
Tether
SciTegic.value.DoubleValue
0.000

@<TRIPOS>MOLECULE
guest-s17_confgen4.mol2 : confsearch ligand conformer 920
          25          25           1
SMALL
USER_CHARGES
 
@<TRIPOS>ATOM
       1    C1      20.070057   17.199232   21.859020 C.3        1 MOL1        -0.1684
       2    H1      20.185886   16.964805   20.792060 H          1 MOL1         0.0833
       3    H2      19.790473   16.253144   22.342345 H          1 MOL1         0.0833
       4    C2      21.445291   17.638070   22.428541 C.3        1 MOL1        -0.1684
       5    H3      21.451720   17.563788   23.523408 H          1 MOL1         0.0833
       6    H4      22.181673   16.894473   22.094069 H          1 MOL1         0.0833
       7    C3      21.947839   19.035862   21.990041 C.3        1 MOL1        -0.1684
       8    H5      21.637349   19.256528   20.959819 H          1 MOL1         0.0833
       9    H6      23.044926   18.984722   21.958615 H          1 MOL1         0.0833
      10    C4      21.578160   20.201834   22.950133 C.3        1 MOL1        -0.1760
      11    H7      21.611608   19.871767   23.996276 H          1 MOL1         0.0833
      12    H8      22.374527   20.952318   22.852552 H          1 MOL1         0.0833
      13    C5      20.230613   20.899719   22.643290 C.3        1 MOL1         0.1219
      14    H9      20.029341   20.811870   21.567442 H          1 MOL1         0.0790
      15    C6      19.011008   20.367247   23.437548 C.3        1 MOL1        -0.1760
      16    H10     19.089524   20.688584   24.484424 H          1 MOL1         0.0833
      17    H11     18.113947   20.858123   23.037619 H          1 MOL1         0.0833
      18    C7      18.778278   18.835548   23.418220 C.3        1 MOL1        -0.1684
      19    H12     17.771983   18.638941   23.812524 H          1 MOL1         0.0833
      20    H13     19.456674   18.349523   24.129029 H          1 MOL1         0.0833
      21    C8      18.894816   18.195728   22.011664 C.3        1 MOL1        -0.1684
      22    H14     18.959952   18.963947   21.232400 H          1 MOL1         0.0833
      23    H15     17.962965   17.656575   21.792941 H          1 MOL1         0.0833
      24    O1      20.362666   22.281701   22.950526 O.3        1 MOL1        -0.5508
      25    H16     20.561590   22.334877   23.907905 H          1 MOL1         0.3780
@<TRIPOS>BOND
    1     1     2    1
    2     1     3    1
    3     1     4    1
    4     4     5    1
    5     4     6    1
    6     4     7    1
    7     7     8    1
    8     7     9    1
    9     7    10    1
   10    10    11    1
   11    10    12    1
   12    10    13    1
   13    13    14    1
   14    13    15    1
   15    15    16    1
   16    15    17    1
   17    15    18    1
   18    18    19    1
   19    18    20    1
   20     1    21    1
   21    18    21    1
   22    21    22    1
   23    21    23    1
   24    13    24    1
   25    24    25    1
@<TRIPOS>SUBSTRUCTURE
       1 MOL1            1 RESIDUE      1      MOL     
@<SCITEGIC>MOL_PROPERTY
VConf Rank
SciTegic.value.IntegerValue
920

@<SCITEGIC>MOL_PROPERTY
Conf_Id
SciTegic.value.IntegerValue
167

@<SCITEGIC>MOL_PROPERTY
Delta U+W
SciTegic.value.DoubleValue
0.388

@<SCITEGIC>MOL_PROPERTY
U+W
SciTegic.value.DoubleValue
11.301

@<SCITEGIC>MOL_PROPERTY
Grad RMS
SciTegic.value.DoubleValue
0.000000

@<SCITEGIC>MOL_PROPERTY
U
SciTegic.value.DoubleValue
13.202

@<SCITEGIC>MOL_PROPERTY
W
SciTegic.value.DoubleValue
-1.901

@<SCITEGIC>MOL_PROPERTY
W(PB)
SciTegic.value.DoubleValue
-4.065

@<SCITEGIC>MOL_PROPERTY
W(SA)
SciTegic.value.DoubleValue
2.163

@<SCITEGIC>MOL_PROPERTY
Valence
SciTegic.value.DoubleValue
18.957

@<SCITEGIC>MOL_PROPERTY
Coulomb
SciTegic.value.DoubleValue
-8.753

@<SCITEGIC>MOL_PROPERTY
VdW
SciTegic.value.DoubleValue
2.998

@<SCITEGIC>MOL_PROPERTY
VdW6
SciTegic.value.DoubleValue
-12.294

@<SCITEGIC>MOL_PROPERTY
VdW12
SciTegic.value.DoubleValue
15.292

@<SCITEGIC>MOL_PROPERTY
Bond
SciTegic.value.DoubleValue
0.419

@<SCITEGIC>MOL_PROPERTY
Angle
SciTegic.value.DoubleValue
4.543

@<SCITEGIC>MOL_PROPERTY
Pdih
SciTegic.value.DoubleValue
13.996

@<SCITEGIC>MOL_PROPERTY
Idih
SciTegic.value.DoubleValue
0.000

@<SCITEGIC>MOL_PROPERTY
Tether
SciTegic.value.DoubleValue
0.000

@<TRIPOS>MOLECULE
guest-s17_confgen4.mol2 : confsearch ligand conformer 921
          25          25           1
SMALL
USER_CHARGES
 
@<TRIPOS>ATOM
       1    C1      20.091094   20.877223   21.422421 C.3        1 MOL1        -0.1684
       2    H1      19.133653   21.409612   21.342596 H          1 MOL1         0.0833
       3    H2      20.788426   21.423514   20.772642 H          1 MOL1         0.0833
       4    C2      19.922305   19.450241   20.838865 C.3        1 MOL1        -0.1684
       5    H3      18.960248   19.020727   21.140143 H          1 MOL1         0.0833
       6    H4      19.843885   19.555798   19.748112 H          1 MOL1         0.0833
       7    C3      21.078705   18.463428   21.145103 C.3        1 MOL1        -0.1684
       8    H5      22.017837   19.000918   21.329240 H          1 MOL1         0.0833
       9    H6      21.259279   17.874051   20.235745 H          1 MOL1         0.0833
      10    C4      20.788535   17.453589   22.288902 C.3        1 MOL1        -0.1760
      11    H7      19.867772   16.900281   22.062434 H          1 MOL1         0.0833
      12    H8      21.592662   16.705855   22.281078 H          1 MOL1         0.0833
      13    C5      20.697196   18.029318   23.724033 C.3        1 MOL1         0.1219
      14    H9      21.604927   18.609832   23.936602 H          1 MOL1         0.0790
      15    C6      19.442689   18.905327   23.976120 C.3        1 MOL1        -0.1760
      16    H10     18.659960   18.659399   23.251462 H          1 MOL1         0.0833
      17    H11     19.003955   18.645545   24.948729 H          1 MOL1         0.0833
      18    C7      19.702270   20.434147   23.985782 C.3        1 MOL1        -0.1684
      19    H12     20.155258   20.693636   24.952432 H          1 MOL1         0.0833
      20    H13     18.738020   20.959521   23.958306 H          1 MOL1         0.0833
      21    C8      20.622614   20.995824   22.872967 C.3        1 MOL1        -0.1684
      22    H14     21.626247   20.561839   22.947309 H          1 MOL1         0.0833
      23    H15     20.768343   22.064829   23.079882 H          1 MOL1         0.0833
      24    O1      20.656969   16.925716   24.621031 O.3        1 MOL1        -0.5508
      25    H16     20.669162   17.299670   25.526861 H          1 MOL1         0.3780
@<TRIPOS>BOND
    1     1     2    1
    2     1     3    1
    3     1     4    1
    4     4     5    1
    5     4     6    1
    6     4     7    1
    7     7     8    1
    8     7     9    1
    9     7    10    1
   10    10    11    1
   11    10    12    1
   12    10    13    1
   13    13    14    1
   14    13    15    1
   15    15    16    1
   16    15    17    1
   17    15    18    1
   18    18    19    1
   19    18    20    1
   20     1    21    1
   21    18    21    1
   22    21    22    1
   23    21    23    1
   24    13    24    1
   25    24    25    1
@<TRIPOS>SUBSTRUCTURE
       1 MOL1            1 RESIDUE      1      MOL     
@<SCITEGIC>MOL_PROPERTY
VConf Rank
SciTegic.value.IntegerValue
921

@<SCITEGIC>MOL_PROPERTY
Conf_Id
SciTegic.value.IntegerValue
60

@<SCITEGIC>MOL_PROPERTY
Delta U+W
SciTegic.value.DoubleValue
-1.838

@<SCITEGIC>MOL_PROPERTY
U+W
SciTegic.value.DoubleValue
9.075

@<SCITEGIC>MOL_PROPERTY
Grad RMS
SciTegic.value.DoubleValue
0.000000

@<SCITEGIC>MOL_PROPERTY
U
SciTegic.value.DoubleValue
11.150

@<SCITEGIC>MOL_PROPERTY
W
SciTegic.value.DoubleValue
-2.074

@<SCITEGIC>MOL_PROPERTY
W(PB)
SciTegic.value.DoubleValue
-4.196

@<SCITEGIC>MOL_PROPERTY
W(SA)
SciTegic.value.DoubleValue
2.121

@<SCITEGIC>MOL_PROPERTY
Valence
SciTegic.value.DoubleValue
16.582

@<SCITEGIC>MOL_PROPERTY
Coulomb
SciTegic.value.DoubleValue
-8.361

@<SCITEGIC>MOL_PROPERTY
VdW
SciTegic.value.DoubleValue
2.928

@<SCITEGIC>MOL_PROPERTY
VdW6
SciTegic.value.DoubleValue
-12.539

@<SCITEGIC>MOL_PROPERTY
VdW12
SciTegic.value.DoubleValue
15.467

@<SCITEGIC>MOL_PROPERTY
Bond
SciTegic.value.DoubleValue
0.441

@<SCITEGIC>MOL_PROPERTY
Angle
SciTegic.value.DoubleValue
5.093

@<SCITEGIC>MOL_PROPERTY
Pdih
SciTegic.value.DoubleValue
11.049

@<SCITEGIC>MOL_PROPERTY
Idih
SciTegic.value.DoubleValue
0.000

@<SCITEGIC>MOL_PROPERTY
Tether
SciTegic.value.DoubleValue
0.000

@<TRIPOS>MOLECULE
guest-s17_confgen4.mol2 : confsearch ligand conformer 922
          25          25           1
SMALL
USER_CHARGES
 
@<TRIPOS>ATOM
       1    C1      21.408497   20.942641   22.599242 C.3        1 MOL1        -0.1684
       2    H1      21.778240   21.415323   23.519224 H          1 MOL1         0.0833
       3    H2      21.718931   21.606025   21.780420 H          1 MOL1         0.0833
       4    C2      19.859289   20.927754   22.619139 C.3        1 MOL1        -0.1684
       5    H3      19.524269   21.972937   22.665790 H          1 MOL1         0.0833
       6    H4      19.469877   20.556324   21.664390 H          1 MOL1         0.0833
       7    C3      19.198513   20.180531   23.804846 C.3        1 MOL1        -0.1684
       8    H5      18.115684   20.356056   23.744712 H          1 MOL1         0.0833
       9    H6      19.522545   20.639741   24.748604 H          1 MOL1         0.0833
      10    C4      19.429413   18.649191   23.885115 C.3        1 MOL1        -0.1760
      11    H7      20.403154   18.436976   24.337957 H          1 MOL1         0.0833
      12    H8      18.702244   18.249662   24.604520 H          1 MOL1         0.0833
      13    C5      19.292041   17.894340   22.537505 C.3        1 MOL1         0.1219
      14    H9      18.722124   18.505844   21.825177 H          1 MOL1         0.0790
      15    C6      20.644091   17.496159   21.894996 C.3        1 MOL1        -0.1760
      16    H10     21.229284   16.912362   22.617474 H          1 MOL1         0.0833
      17    H11     20.428715   16.809941   21.065236 H          1 MOL1         0.0833
      18    C7      21.519883   18.648861   21.332398 C.3        1 MOL1        -0.1684
      19    H12     20.968898   19.223112   20.576475 H          1 MOL1         0.0833
      20    H13     22.351986   18.182229   20.787638 H          1 MOL1         0.0833
      21    C8      22.132618   19.584790   22.406381 C.3        1 MOL1        -0.1684
      22    H14     23.166778   19.810508   22.112106 H          1 MOL1         0.0833
      23    H15     22.230826   19.059771   23.363206 H          1 MOL1         0.0833
      24    O1      18.564980   16.694065   22.771781 O.3        1 MOL1        -0.5508
      25    H16     17.685836   16.960548   23.113260 H          1 MOL1         0.3780
@<TRIPOS>BOND
    1     1     2    1
    2     1     3    1
    3     1     4    1
    4     4     5    1
    5     4     6    1
    6     4     7    1
    7     7     8    1
    8     7     9    1
    9     7    10    1
   10    10    11    1
   11    10    12    1
   12    10    13    1
   13    13    14    1
   14    13    15    1
   15    15    16    1
   16    15    17    1
   17    15    18    1
   18    18    19    1
   19    18    20    1
   20     1    21    1
   21    18    21    1
   22    21    22    1
   23    21    23    1
   24    13    24    1
   25    24    25    1
@<TRIPOS>SUBSTRUCTURE
       1 MOL1            1 RESIDUE      1      MOL     
@<SCITEGIC>MOL_PROPERTY
VConf Rank
SciTegic.value.IntegerValue
922

@<SCITEGIC>MOL_PROPERTY
Conf_Id
SciTegic.value.IntegerValue
129

@<SCITEGIC>MOL_PROPERTY
Delta U+W
SciTegic.value.DoubleValue
-1.846

@<SCITEGIC>MOL_PROPERTY
U+W
SciTegic.value.DoubleValue
9.067

@<SCITEGIC>MOL_PROPERTY
Grad RMS
SciTegic.value.DoubleValue
0.000000

@<SCITEGIC>MOL_PROPERTY
U
SciTegic.value.DoubleValue
11.150

@<SCITEGIC>MOL_PROPERTY
W
SciTegic.value.DoubleValue
-2.083

@<SCITEGIC>MOL_PROPERTY
W(PB)
SciTegic.value.DoubleValue
-4.217

@<SCITEGIC>MOL_PROPERTY
W(SA)
SciTegic.value.DoubleValue
2.134

@<SCITEGIC>MOL_PROPERTY
Valence
SciTegic.value.DoubleValue
16.583

@<SCITEGIC>MOL_PROPERTY
Coulomb
SciTegic.value.DoubleValue
-8.361

@<SCITEGIC>MOL_PROPERTY
VdW
SciTegic.value.DoubleValue
2.928

@<SCITEGIC>MOL_PROPERTY
VdW6
SciTegic.value.DoubleValue
-12.539

@<SCITEGIC>MOL_PROPERTY
VdW12
SciTegic.value.DoubleValue
15.467

@<SCITEGIC>MOL_PROPERTY
Bond
SciTegic.value.DoubleValue
0.441

@<SCITEGIC>MOL_PROPERTY
Angle
SciTegic.value.DoubleValue
5.093

@<SCITEGIC>MOL_PROPERTY
Pdih
SciTegic.value.DoubleValue
11.049

@<SCITEGIC>MOL_PROPERTY
Idih
SciTegic.value.DoubleValue
0.000

@<SCITEGIC>MOL_PROPERTY
Tether
SciTegic.value.DoubleValue
0.000

@<TRIPOS>MOLECULE
guest-s17_confgen4.mol2 : confsearch ligand conformer 923
          25          25           1
SMALL
USER_CHARGES
 
@<TRIPOS>ATOM
       1    C1      20.416391   18.976520   20.604826 C.3        1 MOL1        -0.1684
       2    H1      19.831682   19.603729   19.918363 H          1 MOL1         0.0833
       3    H2      21.008701   18.308992   19.964126 H          1 MOL1         0.0833
       4    C2      19.453443   18.088476   21.432065 C.3        1 MOL1        -0.1684
       5    H3      18.902789   17.456213   20.722256 H          1 MOL1         0.0833
       6    H4      20.020925   17.381332   22.047785 H          1 MOL1         0.0833
       7    C3      18.403316   18.836454   22.291152 C.3        1 MOL1        -0.1684
       8    H5      17.729389   18.082096   22.719892 H          1 MOL1         0.0833
       9    H6      17.776618   19.458671   21.638012 H          1 MOL1         0.0833
      10    C4      18.939797   19.709572   23.455251 C.3        1 MOL1        -0.1760
      11    H7      19.264919   20.684306   23.077457 H          1 MOL1         0.0833
      12    H8      18.083980   19.935923   24.105603 H          1 MOL1         0.0833
      13    C5      20.065202   19.057873   24.299838 C.3        1 MOL1         0.1219
      14    H9      20.048418   17.968664   24.161230 H          1 MOL1         0.0790
      15    C6      21.486112   19.590697   23.986768 C.3        1 MOL1        -0.1760
      16    H10     21.498903   20.683113   24.094837 H          1 MOL1         0.0833
      17    H11     22.164208   19.206709   24.760703 H          1 MOL1         0.0833
      18    C7      22.090622   19.207776   22.608741 C.3        1 MOL1        -0.1684
      19    H12     22.130376   18.117288   22.490216 H          1 MOL1         0.0833
      20    H13     23.139874   19.533294   22.617311 H          1 MOL1         0.0833
      21    C8      21.404989   19.877216   21.389600 C.3        1 MOL1        -0.1684
      22    H14     22.188627   20.186303   20.684315 H          1 MOL1         0.0833
      23    H15     20.921111   20.814477   21.686590 H          1 MOL1         0.0833
      24    O1      19.805306   19.329374   25.671299 O.3        1 MOL1        -0.5508
      25    H16     19.829672   20.303345   25.769927 H          1 MOL1         0.3780
@<TRIPOS>BOND
    1     1     2    1
    2     1     3    1
    3     1     4    1
    4     4     5    1
    5     4     6    1
    6     4     7    1
    7     7     8    1
    8     7     9    1
    9     7    10    1
   10    10    11    1
   11    10    12    1
   12    10    13    1
   13    13    14    1
   14    13    15    1
   15    15    16    1
   16    15    17    1
   17    15    18    1
   18    18    19    1
   19    18    20    1
   20     1    21    1
   21    18    21    1
   22    21    22    1
   23    21    23    1
   24    13    24    1
   25    24    25    1
@<TRIPOS>SUBSTRUCTURE
       1 MOL1            1 RESIDUE      1      MOL     
@<SCITEGIC>MOL_PROPERTY
VConf Rank
SciTegic.value.IntegerValue
923

@<SCITEGIC>MOL_PROPERTY
Conf_Id
SciTegic.value.IntegerValue
140

@<SCITEGIC>MOL_PROPERTY
Delta U+W
SciTegic.value.DoubleValue
-1.702

@<SCITEGIC>MOL_PROPERTY
U+W
SciTegic.value.DoubleValue
9.211

@<SCITEGIC>MOL_PROPERTY
Grad RMS
SciTegic.value.DoubleValue
0.000000

@<SCITEGIC>MOL_PROPERTY
U
SciTegic.value.DoubleValue
11.181

@<SCITEGIC>MOL_PROPERTY
W
SciTegic.value.DoubleValue
-1.969

@<SCITEGIC>MOL_PROPERTY
W(PB)
SciTegic.value.DoubleValue
-4.093

@<SCITEGIC>MOL_PROPERTY
W(SA)
SciTegic.value.DoubleValue
2.124

@<SCITEGIC>MOL_PROPERTY
Valence
SciTegic.value.DoubleValue
16.954

@<SCITEGIC>MOL_PROPERTY
Coulomb
SciTegic.value.DoubleValue
-8.661

@<SCITEGIC>MOL_PROPERTY
VdW
SciTegic.value.DoubleValue
2.887

@<SCITEGIC>MOL_PROPERTY
VdW6
SciTegic.value.DoubleValue
-12.561

@<SCITEGIC>MOL_PROPERTY
VdW12
SciTegic.value.DoubleValue
15.448

@<SCITEGIC>MOL_PROPERTY
Bond
SciTegic.value.DoubleValue
0.433

@<SCITEGIC>MOL_PROPERTY
Angle
SciTegic.value.DoubleValue
5.120

@<SCITEGIC>MOL_PROPERTY
Pdih
SciTegic.value.DoubleValue
11.401

@<SCITEGIC>MOL_PROPERTY
Idih
SciTegic.value.DoubleValue
0.000

@<SCITEGIC>MOL_PROPERTY
Tether
SciTegic.value.DoubleValue
0.000

@<TRIPOS>MOLECULE
guest-s17_confgen4.mol2 : confsearch ligand conformer 924
          25          25           1
SMALL
USER_CHARGES
 
@<TRIPOS>ATOM
       1    C1      18.252965   19.500545   22.447529 C.3        1 MOL1        -0.1684
       2    H1      17.772524   19.475252   21.460086 H          1 MOL1         0.0833
       3    H2      17.449026   19.723475   23.162304 H          1 MOL1         0.0833
       4    C2      19.259451   20.679493   22.486473 C.3        1 MOL1        -0.1684
       5    H3      19.809910   20.748762   21.541487 H          1 MOL1         0.0833
       6    H4      18.669592   21.605487   22.527122 H          1 MOL1         0.0833
       7    C3      20.238760   20.678760   23.688763 C.3        1 MOL1        -0.1684
       8    H5      19.816593   20.132322   24.541978 H          1 MOL1         0.0833
       9    H6      20.337993   21.716871   24.034368 H          1 MOL1         0.0833
      10    C4      21.669434   20.171072   23.362510 C.3        1 MOL1        -0.1760
      11    H7      22.082062   20.763349   22.535370 H          1 MOL1         0.0833
      12    H8      22.302473   20.392364   24.232296 H          1 MOL1         0.0833
      13    C5      21.820439   18.662549   23.042437 C.3        1 MOL1         0.1219
      14    H9      21.379384   18.073666   23.857642 H          1 MOL1         0.0790
      15    C6      21.195863   18.232456   21.689849 C.3        1 MOL1        -0.1760
      16    H10     21.108915   19.094647   21.020815 H          1 MOL1         0.0833
      17    H11     21.884558   17.549742   21.173888 H          1 MOL1         0.0833
      18    C7      19.832867   17.500658   21.799335 C.3        1 MOL1        -0.1684
      19    H12     20.031389   16.464925   22.107390 H          1 MOL1         0.0833
      20    H13     19.383054   17.432847   20.799551 H          1 MOL1         0.0833
      21    C8      18.796217   18.090236   22.788286 C.3        1 MOL1        -0.1684
      22    H14     19.186180   18.068919   23.812335 H          1 MOL1         0.0833
      23    H15     17.937118   17.405806   22.805859 H          1 MOL1         0.0833
      24    O1      23.212949   18.377558   22.999355 O.3        1 MOL1        -0.5508
      25    H16     23.583027   18.915854   22.269819 H          1 MOL1         0.3780
@<TRIPOS>BOND
    1     1     2    1
    2     1     3    1
    3     1     4    1
    4     4     5    1
    5     4     6    1
    6     4     7    1
    7     7     8    1
    8     7     9    1
    9     7    10    1
   10    10    11    1
   11    10    12    1
   12    10    13    1
   13    13    14    1
   14    13    15    1
   15    15    16    1
   16    15    17    1
   17    15    18    1
   18    18    19    1
   19    18    20    1
   20     1    21    1
   21    18    21    1
   22    21    22    1
   23    21    23    1
   24    13    24    1
   25    24    25    1
@<TRIPOS>SUBSTRUCTURE
       1 MOL1            1 RESIDUE      1      MOL     
@<SCITEGIC>MOL_PROPERTY
VConf Rank
SciTegic.value.IntegerValue
924

@<SCITEGIC>MOL_PROPERTY
Conf_Id
SciTegic.value.IntegerValue
68

@<SCITEGIC>MOL_PROPERTY
Delta U+W
SciTegic.value.DoubleValue
-1.765

@<SCITEGIC>MOL_PROPERTY
U+W
SciTegic.value.DoubleValue
9.148

@<SCITEGIC>MOL_PROPERTY
Grad RMS
SciTegic.value.DoubleValue
0.000000

@<SCITEGIC>MOL_PROPERTY
U
SciTegic.value.DoubleValue
11.181

@<SCITEGIC>MOL_PROPERTY
W
SciTegic.value.DoubleValue
-2.032

@<SCITEGIC>MOL_PROPERTY
W(PB)
SciTegic.value.DoubleValue
-4.147

@<SCITEGIC>MOL_PROPERTY
W(SA)
SciTegic.value.DoubleValue
2.114

@<SCITEGIC>MOL_PROPERTY
Valence
SciTegic.value.DoubleValue
16.955

@<SCITEGIC>MOL_PROPERTY
Coulomb
SciTegic.value.DoubleValue
-8.661

@<SCITEGIC>MOL_PROPERTY
VdW
SciTegic.value.DoubleValue
2.887

@<SCITEGIC>MOL_PROPERTY
VdW6
SciTegic.value.DoubleValue
-12.561

@<SCITEGIC>MOL_PROPERTY
VdW12
SciTegic.value.DoubleValue
15.448

@<SCITEGIC>MOL_PROPERTY
Bond
SciTegic.value.DoubleValue
0.433

@<SCITEGIC>MOL_PROPERTY
Angle
SciTegic.value.DoubleValue
5.121

@<SCITEGIC>MOL_PROPERTY
Pdih
SciTegic.value.DoubleValue
11.402

@<SCITEGIC>MOL_PROPERTY
Idih
SciTegic.value.DoubleValue
0.000

@<SCITEGIC>MOL_PROPERTY
Tether
SciTegic.value.DoubleValue
0.000

@<TRIPOS>MOLECULE
guest-s17_confgen4.mol2 : confsearch ligand conformer 925
          25          25           1
SMALL
USER_CHARGES
 
@<TRIPOS>ATOM
       1    C1      20.898809   20.496794   21.498451 C.3        1 MOL1        -0.1684
       2    H1      21.281844   21.181554   20.729383 H          1 MOL1         0.0833
       3    H2      21.126271   20.998419   22.445829 H          1 MOL1         0.0833
       4    C2      21.680640   19.162061   21.386513 C.3        1 MOL1        -0.1684
       5    H3      21.138547   18.436731   20.766315 H          1 MOL1         0.0833
       6    H4      22.609744   19.368859   20.837861 H          1 MOL1         0.0833
       7    C3      22.087914   18.530277   22.743561 C.3        1 MOL1        -0.1684
       8    H5      22.669334   19.259051   23.324864 H          1 MOL1         0.0833
       9    H6      22.779622   17.703383   22.532323 H          1 MOL1         0.0833
      10    C4      20.939029   17.971289   23.624555 C.3        1 MOL1        -0.1760
      11    H7      20.364755   17.219084   23.070520 H          1 MOL1         0.0833
      12    H8      21.412240   17.422321   24.449973 H          1 MOL1         0.0833
      13    C5      20.002938   19.053278   24.222820 C.3        1 MOL1         0.1219
      14    H9      20.517450   20.020989   24.203959 H          1 MOL1         0.0790
      15    C6      18.634158   19.191944   23.512006 C.3        1 MOL1        -0.1760
      16    H10     17.988899   18.363939   23.833915 H          1 MOL1         0.0833
      17    H11     18.148514   20.108504   23.871382 H          1 MOL1         0.0833
      18    C7      18.638882   19.198829   21.961524 C.3        1 MOL1        -0.1684
      19    H12     17.591475   19.226443   21.631526 H          1 MOL1         0.0833
      20    H13     19.025406   18.248807   21.575045 H          1 MOL1         0.0833
      21    C8      19.366057   20.389603   21.288164 C.3        1 MOL1        -0.1684
      22    H14     18.895914   21.329806   21.606864 H          1 MOL1         0.0833
      23    H15     19.181078   20.317628   20.207608 H          1 MOL1         0.0833
      24    O1      19.746902   18.728485   25.583569 O.3        1 MOL1        -0.5508
      25    H16     19.304174   17.855057   25.581343 H          1 MOL1         0.3780
@<TRIPOS>BOND
    1     1     2    1
    2     1     3    1
    3     1     4    1
    4     4     5    1
    5     4     6    1
    6     4     7    1
    7     7     8    1
    8     7     9    1
    9     7    10    1
   10    10    11    1
   11    10    12    1
   12    10    13    1
   13    13    14    1
   14    13    15    1
   15    15    16    1
   16    15    17    1
   17    15    18    1
   18    18    19    1
   19    18    20    1
   20     1    21    1
   21    18    21    1
   22    21    22    1
   23    21    23    1
   24    13    24    1
   25    24    25    1
@<TRIPOS>SUBSTRUCTURE
       1 MOL1            1 RESIDUE      1      MOL     
@<SCITEGIC>MOL_PROPERTY
VConf Rank
SciTegic.value.IntegerValue
925

@<SCITEGIC>MOL_PROPERTY
Conf_Id
SciTegic.value.IntegerValue
165

@<SCITEGIC>MOL_PROPERTY
Delta U+W
SciTegic.value.DoubleValue
-1.999

@<SCITEGIC>MOL_PROPERTY
U+W
SciTegic.value.DoubleValue
8.915

@<SCITEGIC>MOL_PROPERTY
Grad RMS
SciTegic.value.DoubleValue
0.000000

@<SCITEGIC>MOL_PROPERTY
U
SciTegic.value.DoubleValue
10.935

@<SCITEGIC>MOL_PROPERTY
W
SciTegic.value.DoubleValue
-2.020

@<SCITEGIC>MOL_PROPERTY
W(PB)
SciTegic.value.DoubleValue
-4.135

@<SCITEGIC>MOL_PROPERTY
W(SA)
SciTegic.value.DoubleValue
2.115

@<SCITEGIC>MOL_PROPERTY
Valence
SciTegic.value.DoubleValue
16.757

@<SCITEGIC>MOL_PROPERTY
Coulomb
SciTegic.value.DoubleValue
-8.731

@<SCITEGIC>MOL_PROPERTY
VdW
SciTegic.value.DoubleValue
2.908

@<SCITEGIC>MOL_PROPERTY
VdW6
SciTegic.value.DoubleValue
-12.597

@<SCITEGIC>MOL_PROPERTY
VdW12
SciTegic.value.DoubleValue
15.506

@<SCITEGIC>MOL_PROPERTY
Bond
SciTegic.value.DoubleValue
0.434

@<SCITEGIC>MOL_PROPERTY
Angle
SciTegic.value.DoubleValue
5.069

@<SCITEGIC>MOL_PROPERTY
Pdih
SciTegic.value.DoubleValue
11.254

@<SCITEGIC>MOL_PROPERTY
Idih
SciTegic.value.DoubleValue
0.000

@<SCITEGIC>MOL_PROPERTY
Tether
SciTegic.value.DoubleValue
0.000

@<TRIPOS>MOLECULE
guest-s17_confgen4.mol2 : confsearch ligand conformer 926
          25          25           1
SMALL
USER_CHARGES
 
@<TRIPOS>ATOM
       1    C1      21.953665   18.462107   23.044109 C.3        1 MOL1        -0.1684
       2    H1      22.920087   18.047151   23.361798 H          1 MOL1         0.0833
       3    H2      21.910183   18.255174   21.968892 H          1 MOL1         0.0833
       4    C2      22.006901   19.989504   23.308069 C.3        1 MOL1        -0.1684
       5    H3      22.489845   20.143386   24.282795 H          1 MOL1         0.0833
       6    H4      22.674072   20.455902   22.570558 H          1 MOL1         0.0833
       7    C3      20.658927   20.752759   23.335411 C.3        1 MOL1        -0.1684
       8    H5      20.875342   21.789003   23.628776 H          1 MOL1         0.0833
       9    H6      20.018863   20.366748   24.137039 H          1 MOL1         0.0833
      10    C4      19.878444   20.805562   21.996722 C.3        1 MOL1        -0.1760
      11    H7      19.012476   21.464396   22.146895 H          1 MOL1         0.0833
      12    H8      20.504567   21.296212   21.240448 H          1 MOL1         0.0833
      13    C5      19.369066   19.460952   21.421988 C.3        1 MOL1         0.1219
      14    H9      20.203257   18.931377   20.947083 H          1 MOL1         0.0790
      15    C6      18.704927   18.523287   22.463087 C.3        1 MOL1        -0.1760
      16    H10     18.343964   19.093123   23.327443 H          1 MOL1         0.0833
      17    H11     17.803388   18.087283   22.011799 H          1 MOL1         0.0833
      18    C7      19.595792   17.339576   22.925881 C.3        1 MOL1        -0.1684
      19    H12     19.920013   16.764598   22.047663 H          1 MOL1         0.0833
      20    H13     18.965052   16.655070   23.509313 H          1 MOL1         0.0833
      21    C8      20.832090   17.695881   23.792763 C.3        1 MOL1        -0.1684
      22    H14     21.259460   16.747466   24.146140 H          1 MOL1         0.0833
      23    H15     20.528683   18.228754   24.703037 H          1 MOL1         0.0833
      24    O1      18.413059   19.764212   20.412237 O.3        1 MOL1        -0.5508
      25    H16     18.871417   20.319105   19.747076 H          1 MOL1         0.3780
@<TRIPOS>BOND
    1     1     2    1
    2     1     3    1
    3     1     4    1
    4     4     5    1
    5     4     6    1
    6     4     7    1
    7     7     8    1
    8     7     9    1
    9     7    10    1
   10    10    11    1
   11    10    12    1
   12    10    13    1
   13    13    14    1
   14    13    15    1
   15    15    16    1
   16    15    17    1
   17    15    18    1
   18    18    19    1
   19    18    20    1
   20     1    21    1
   21    18    21    1
   22    21    22    1
   23    21    23    1
   24    13    24    1
   25    24    25    1
@<TRIPOS>SUBSTRUCTURE
       1 MOL1            1 RESIDUE      1      MOL     
@<SCITEGIC>MOL_PROPERTY
VConf Rank
SciTegic.value.IntegerValue
926

@<SCITEGIC>MOL_PROPERTY
Conf_Id
SciTegic.value.IntegerValue
133

@<SCITEGIC>MOL_PROPERTY
Delta U+W
SciTegic.value.DoubleValue
-2.139

@<SCITEGIC>MOL_PROPERTY
U+W
SciTegic.value.DoubleValue
8.774

@<SCITEGIC>MOL_PROPERTY
Grad RMS
SciTegic.value.DoubleValue
0.000000

@<SCITEGIC>MOL_PROPERTY
U
SciTegic.value.DoubleValue
10.905

@<SCITEGIC>MOL_PROPERTY
W
SciTegic.value.DoubleValue
-2.131

@<SCITEGIC>MOL_PROPERTY
W(PB)
SciTegic.value.DoubleValue
-4.281

@<SCITEGIC>MOL_PROPERTY
W(SA)
SciTegic.value.DoubleValue
2.150

@<SCITEGIC>MOL_PROPERTY
Valence
SciTegic.value.DoubleValue
16.378

@<SCITEGIC>MOL_PROPERTY
Coulomb
SciTegic.value.DoubleValue
-8.448

@<SCITEGIC>MOL_PROPERTY
VdW
SciTegic.value.DoubleValue
2.976

@<SCITEGIC>MOL_PROPERTY
VdW6
SciTegic.value.DoubleValue
-12.570

@<SCITEGIC>MOL_PROPERTY
VdW12
SciTegic.value.DoubleValue
15.545

@<SCITEGIC>MOL_PROPERTY
Bond
SciTegic.value.DoubleValue
0.439

@<SCITEGIC>MOL_PROPERTY
Angle
SciTegic.value.DoubleValue
5.049

@<SCITEGIC>MOL_PROPERTY
Pdih
SciTegic.value.DoubleValue
10.889

@<SCITEGIC>MOL_PROPERTY
Idih
SciTegic.value.DoubleValue
0.000

@<SCITEGIC>MOL_PROPERTY
Tether
SciTegic.value.DoubleValue
0.000

@<TRIPOS>MOLECULE
guest-s17_confgen4.mol2 : confsearch ligand conformer 927
          25          25           1
SMALL
USER_CHARGES
 
@<TRIPOS>ATOM
       1    C1      21.660801   20.370835   22.216903 C.3        1 MOL1        -0.1684
       2    H1      22.536947   20.997207   21.999846 H          1 MOL1         0.0833
       3    H2      20.813524   20.944953   21.825351 H          1 MOL1         0.0833
       4    C2      21.549977   20.216104   23.756155 C.3        1 MOL1        -0.1684
       5    H3      22.037067   19.293526   24.097040 H          1 MOL1         0.0833
       6    H4      22.129583   21.030342   24.212317 H          1 MOL1         0.0833
       7    C3      20.107828   20.317233   24.319053 C.3        1 MOL1        -0.1684
       8    H5      19.660246   21.270290   24.005460 H          1 MOL1         0.0833
       9    H6      20.179869   20.372065   25.413848 H          1 MOL1         0.0833
      10    C4      19.139717   19.156149   23.967435 C.3        1 MOL1        -0.1760
      11    H7      19.553386   18.196975   24.300575 H          1 MOL1         0.0833
      12    H8      18.233749   19.301577   24.571260 H          1 MOL1         0.0833
      13    C5      18.727489   19.090763   22.474125 C.3        1 MOL1         0.1219
      14    H9      18.913786   20.066525   22.010401 H          1 MOL1         0.0790
      15    C6      19.444606   17.990189   21.654230 C.3        1 MOL1        -0.1760
      16    H10     18.983473   17.024040   21.900051 H          1 MOL1         0.0833
      17    H11     19.243805   18.159028   20.588449 H          1 MOL1         0.0833
      18    C7      20.974254   17.839416   21.857872 C.3        1 MOL1        -0.1684
      19    H12     21.299541   16.974732   21.263557 H          1 MOL1         0.0833
      20    H13     21.197174   17.561653   22.894427 H          1 MOL1         0.0833
      21    C8      21.841116   19.048792   21.426241 C.3        1 MOL1        -0.1684
      22    H14     21.681769   19.247618   20.357763 H          1 MOL1         0.0833
      23    H15     22.893329   18.746133   21.517074 H          1 MOL1         0.0833
      24    O1      17.329688   18.832950   22.402049 O.3        1 MOL1        -0.5508
      25    H16     17.089645   18.841816   21.451923 H          1 MOL1         0.3780
@<TRIPOS>BOND
    1     1     2    1
    2     1     3    1
    3     1     4    1
    4     4     5    1
    5     4     6    1
    6     4     7    1
    7     7     8    1
    8     7     9    1
    9     7    10    1
   10    10    11    1
   11    10    12    1
   12    10    13    1
   13    13    14    1
   14    13    15    1
   15    15    16    1
   16    15    17    1
   17    15    18    1
   18    18    19    1
   19    18    20    1
   20     1    21    1
   21    18    21    1
   22    21    22    1
   23    21    23    1
   24    13    24    1
   25    24    25    1
@<TRIPOS>SUBSTRUCTURE
       1 MOL1            1 RESIDUE      1      MOL     
@<SCITEGIC>MOL_PROPERTY
VConf Rank
SciTegic.value.IntegerValue
927

@<SCITEGIC>MOL_PROPERTY
Conf_Id
SciTegic.value.IntegerValue
95

@<SCITEGIC>MOL_PROPERTY
Delta U+W
SciTegic.value.DoubleValue
-2.190

@<SCITEGIC>MOL_PROPERTY
U+W
SciTegic.value.DoubleValue
8.723

@<SCITEGIC>MOL_PROPERTY
Grad RMS
SciTegic.value.DoubleValue
0.000000

@<SCITEGIC>MOL_PROPERTY
U
SciTegic.value.DoubleValue
10.905

@<SCITEGIC>MOL_PROPERTY
W
SciTegic.value.DoubleValue
-2.182

@<SCITEGIC>MOL_PROPERTY
W(PB)
SciTegic.value.DoubleValue
-4.296

@<SCITEGIC>MOL_PROPERTY
W(SA)
SciTegic.value.DoubleValue
2.114

@<SCITEGIC>MOL_PROPERTY
Valence
SciTegic.value.DoubleValue
16.377

@<SCITEGIC>MOL_PROPERTY
Coulomb
SciTegic.value.DoubleValue
-8.448

@<SCITEGIC>MOL_PROPERTY
VdW
SciTegic.value.DoubleValue
2.976

@<SCITEGIC>MOL_PROPERTY
VdW6
SciTegic.value.DoubleValue
-12.570

@<SCITEGIC>MOL_PROPERTY
VdW12
SciTegic.value.DoubleValue
15.546

@<SCITEGIC>MOL_PROPERTY
Bond
SciTegic.value.DoubleValue
0.439

@<SCITEGIC>MOL_PROPERTY
Angle
SciTegic.value.DoubleValue
5.049

@<SCITEGIC>MOL_PROPERTY
Pdih
SciTegic.value.DoubleValue
10.889

@<SCITEGIC>MOL_PROPERTY
Idih
SciTegic.value.DoubleValue
0.000

@<SCITEGIC>MOL_PROPERTY
Tether
SciTegic.value.DoubleValue
0.000

@<TRIPOS>MOLECULE
guest-s17_confgen4.mol2 : confsearch ligand conformer 928
          25          25           1
SMALL
USER_CHARGES
 
@<TRIPOS>ATOM
       1    C1      19.193780   19.197787   21.202608 C.3        1 MOL1        -0.1684
       2    H1      18.440112   19.206572   20.403352 H          1 MOL1         0.0833
       3    H2      20.110317   18.899019   20.684021 H          1 MOL1         0.0833
       4    C2      18.755543   18.112680   22.229598 C.3        1 MOL1        -0.1684
       5    H3      17.657538   18.119714   22.265332 H          1 MOL1         0.0833
       6    H4      19.028425   17.122544   21.840192 H          1 MOL1         0.0833
       7    C3      19.254934   18.243388   23.692478 C.3        1 MOL1        -0.1684
       8    H5      18.752597   17.467231   24.285822 H          1 MOL1         0.0833
       9    H6      18.877677   19.177188   24.121107 H          1 MOL1         0.0833
      10    C4      20.785009   18.095440   23.944478 C.3        1 MOL1        -0.1760
      11    H7      21.032361   18.559756   24.908117 H          1 MOL1         0.0833
      12    H8      20.987510   17.023830   24.070606 H          1 MOL1         0.0833
      13    C5      21.761177   18.623102   22.862646 C.3        1 MOL1         0.1219
      14    H9      21.529615   18.115856   21.920363 H          1 MOL1         0.0790
      15    C6      21.792383   20.161327   22.631381 C.3        1 MOL1        -0.1760
      16    H10     22.493857   20.597667   23.355161 H          1 MOL1         0.0833
      17    H11     22.230909   20.352330   21.643706 H          1 MOL1         0.0833
      18    C7      20.464364   20.956296   22.755495 C.3        1 MOL1        -0.1684
      19    H12     20.707368   22.023898   22.666685 H          1 MOL1         0.0833
      20    H13     20.082555   20.865197   23.777255 H          1 MOL1         0.0833
      21    C8      19.344871   20.653827   21.716863 C.3        1 MOL1        -0.1684
      22    H14     19.532569   21.285752   20.838053 H          1 MOL1         0.0833
      23    H15     18.382810   20.995331   22.122149 H          1 MOL1         0.0833
      24    O1      23.073268   18.226344   23.244240 O.3        1 MOL1        -0.5508
      25    H16     23.061533   17.249872   23.324370 H          1 MOL1         0.3780
@<TRIPOS>BOND
    1     1     2    1
    2     1     3    1
    3     1     4    1
    4     4     5    1
    5     4     6    1
    6     4     7    1
    7     7     8    1
    8     7     9    1
    9     7    10    1
   10    10    11    1
   11    10    12    1
   12    10    13    1
   13    13    14    1
   14    13    15    1
   15    15    16    1
   16    15    17    1
   17    15    18    1
   18    18    19    1
   19    18    20    1
   20     1    21    1
   21    18    21    1
   22    21    22    1
   23    21    23    1
   24    13    24    1
   25    24    25    1
@<TRIPOS>SUBSTRUCTURE
       1 MOL1            1 RESIDUE      1      MOL     
@<SCITEGIC>MOL_PROPERTY
VConf Rank
SciTegic.value.IntegerValue
928

@<SCITEGIC>MOL_PROPERTY
Conf_Id
SciTegic.value.IntegerValue
161

@<SCITEGIC>MOL_PROPERTY
Delta U+W
SciTegic.value.DoubleValue
2.120

@<SCITEGIC>MOL_PROPERTY
U+W
SciTegic.value.DoubleValue
13.033

@<SCITEGIC>MOL_PROPERTY
Grad RMS
SciTegic.value.DoubleValue
0.000000

@<SCITEGIC>MOL_PROPERTY
U
SciTegic.value.DoubleValue
15.076

@<SCITEGIC>MOL_PROPERTY
W
SciTegic.value.DoubleValue
-2.043

@<SCITEGIC>MOL_PROPERTY
W(PB)
SciTegic.value.DoubleValue
-4.186

@<SCITEGIC>MOL_PROPERTY
W(SA)
SciTegic.value.DoubleValue
2.143

@<SCITEGIC>MOL_PROPERTY
Valence
SciTegic.value.DoubleValue
18.884

@<SCITEGIC>MOL_PROPERTY
Coulomb
SciTegic.value.DoubleValue
-8.074

@<SCITEGIC>MOL_PROPERTY
VdW
SciTegic.value.DoubleValue
4.266

@<SCITEGIC>MOL_PROPERTY
VdW6
SciTegic.value.DoubleValue
-13.486

@<SCITEGIC>MOL_PROPERTY
VdW12
SciTegic.value.DoubleValue
17.752

@<SCITEGIC>MOL_PROPERTY
Bond
SciTegic.value.DoubleValue
0.713

@<SCITEGIC>MOL_PROPERTY
Angle
SciTegic.value.DoubleValue
8.955

@<SCITEGIC>MOL_PROPERTY
Pdih
SciTegic.value.DoubleValue
9.215

@<SCITEGIC>MOL_PROPERTY
Idih
SciTegic.value.DoubleValue
0.000

@<SCITEGIC>MOL_PROPERTY
Tether
SciTegic.value.DoubleValue
0.000

@<TRIPOS>MOLECULE
guest-s17_confgen4.mol2 : confsearch ligand conformer 929
          25          25           1
SMALL
USER_CHARGES
 
@<TRIPOS>ATOM
       1    C1      20.147679   18.170454   24.313478 C.3        1 MOL1        -0.1684
       2    H1      20.250762   17.450711   25.137087 H          1 MOL1         0.0833
       3    H2      19.216096   18.709242   24.528181 H          1 MOL1         0.0833
       4    C2      20.003788   17.370820   22.994555 C.3        1 MOL1        -0.1684
       5    H3      20.989617   17.126268   22.576794 H          1 MOL1         0.0833
       6    H4      19.551612   16.404248   23.256179 H          1 MOL1         0.0833
       7    C3      19.084958   18.021715   21.923379 C.3        1 MOL1        -0.1684
       8    H5      18.221368   18.515373   22.388996 H          1 MOL1         0.0833
       9    H6      18.663150   17.201269   21.326598 H          1 MOL1         0.0833
      10    C4      19.797445   18.977396   20.931659 C.3        1 MOL1        -0.1760
      11    H7      20.814245   18.617269   20.733181 H          1 MOL1         0.0833
      12    H8      19.278222   18.904359   19.966928 H          1 MOL1         0.0833
      13    C5      19.806120   20.479236   21.314065 C.3        1 MOL1         0.1219
      14    H9      18.779926   20.859854   21.210004 H          1 MOL1         0.0790
      15    C6      20.284647   20.822617   22.743745 C.3        1 MOL1        -0.1760
      16    H10     20.457950   21.905729   22.797767 H          1 MOL1         0.0833
      17    H11     19.464049   20.642455   23.446541 H          1 MOL1         0.0833
      18    C7      21.573810   20.086171   23.196442 C.3        1 MOL1        -0.1684
      19    H12     22.325994   20.833981   23.482326 H          1 MOL1         0.0833
      20    H13     22.027878   19.533251   22.366260 H          1 MOL1         0.0833
      21    C8      21.364927   19.129306   24.394548 C.3        1 MOL1        -0.1684
      22    H14     21.268567   19.727356   25.310987 H          1 MOL1         0.0833
      23    H15     22.278703   18.532992   24.521844 H          1 MOL1         0.0833
      24    O1      20.642917   21.161747   20.390856 O.3        1 MOL1        -0.5508
      25    H16     21.558515   20.896236   20.612202 H          1 MOL1         0.3780
@<TRIPOS>BOND
    1     1     2    1
    2     1     3    1
    3     1     4    1
    4     4     5    1
    5     4     6    1
    6     4     7    1
    7     7     8    1
    8     7     9    1
    9     7    10    1
   10    10    11    1
   11    10    12    1
   12    10    13    1
   13    13    14    1
   14    13    15    1
   15    15    16    1
   16    15    17    1
   17    15    18    1
   18    18    19    1
   19    18    20    1
   20     1    21    1
   21    18    21    1
   22    21    22    1
   23    21    23    1
   24    13    24    1
   25    24    25    1
@<TRIPOS>SUBSTRUCTURE
       1 MOL1            1 RESIDUE      1      MOL     
@<SCITEGIC>MOL_PROPERTY
VConf Rank
SciTegic.value.IntegerValue
929

@<SCITEGIC>MOL_PROPERTY
Conf_Id
SciTegic.value.IntegerValue
164

@<SCITEGIC>MOL_PROPERTY
Delta U+W
SciTegic.value.DoubleValue
0.008

@<SCITEGIC>MOL_PROPERTY
U+W
SciTegic.value.DoubleValue
10.922

@<SCITEGIC>MOL_PROPERTY
Grad RMS
SciTegic.value.DoubleValue
0.000000

@<SCITEGIC>MOL_PROPERTY
U
SciTegic.value.DoubleValue
12.433

@<SCITEGIC>MOL_PROPERTY
W
SciTegic.value.DoubleValue
-1.511

@<SCITEGIC>MOL_PROPERTY
W(PB)
SciTegic.value.DoubleValue
-3.669

@<SCITEGIC>MOL_PROPERTY
W(SA)
SciTegic.value.DoubleValue
2.157

@<SCITEGIC>MOL_PROPERTY
Valence
SciTegic.value.DoubleValue
19.007

@<SCITEGIC>MOL_PROPERTY
Coulomb
SciTegic.value.DoubleValue
-9.373

@<SCITEGIC>MOL_PROPERTY
VdW
SciTegic.value.DoubleValue
2.799

@<SCITEGIC>MOL_PROPERTY
VdW6
SciTegic.value.DoubleValue
-12.597

@<SCITEGIC>MOL_PROPERTY
VdW12
SciTegic.value.DoubleValue
15.396

@<SCITEGIC>MOL_PROPERTY
Bond
SciTegic.value.DoubleValue
0.425

@<SCITEGIC>MOL_PROPERTY
Angle
SciTegic.value.DoubleValue
4.784

@<SCITEGIC>MOL_PROPERTY
Pdih
SciTegic.value.DoubleValue
13.799

@<SCITEGIC>MOL_PROPERTY
Idih
SciTegic.value.DoubleValue
0.000

@<SCITEGIC>MOL_PROPERTY
Tether
SciTegic.value.DoubleValue
0.000

@<TRIPOS>MOLECULE
guest-s17_confgen4.mol2 : confsearch ligand conformer 930
          25          25           1
SMALL
USER_CHARGES
 
@<TRIPOS>ATOM
       1    C1      19.828525   20.706277   21.720386 C.3        1 MOL1        -0.1684
       2    H1      20.857383   20.498231   21.405600 H          1 MOL1         0.0833
       3    H2      19.546107   21.609291   21.162283 H          1 MOL1         0.0833
       4    C2      19.786097   21.064825   23.226826 C.3        1 MOL1        -0.1684
       5    H3      20.412906   21.955521   23.370611 H          1 MOL1         0.0833
       6    H4      18.767049   21.372154   23.498114 H          1 MOL1         0.0833
       7    C3      20.267110   19.980990   24.225170 C.3        1 MOL1        -0.1684
       8    H5      19.460840   19.270486   24.440053 H          1 MOL1         0.0833
       9    H6      20.452969   20.483666   25.184220 H          1 MOL1         0.0833
      10    C4      21.560622   19.228391   23.813832 C.3        1 MOL1        -0.1760
      11    H7      22.167329   19.834940   23.130614 H          1 MOL1         0.0833
      12    H8      22.171821   19.111664   24.718845 H          1 MOL1         0.0833
      13    C5      21.333150   17.809087   23.235639 C.3        1 MOL1         0.1219
      14    H9      20.718487   17.242804   23.949861 H          1 MOL1         0.0790
      15    C6      20.654905   17.728277   21.844980 C.3        1 MOL1        -0.1760
      16    H10     21.231829   18.285476   21.097004 H          1 MOL1         0.0833
      17    H11     20.702798   16.678572   21.525506 H          1 MOL1         0.0833
      18    C7      19.161325   18.149516   21.821392 C.3        1 MOL1        -0.1684
      19    H12     18.713050   18.031952   22.814514 H          1 MOL1         0.0833
      20    H13     18.614320   17.438379   21.187299 H          1 MOL1         0.0833
      21    C8      18.882500   19.568227   21.262569 C.3        1 MOL1        -0.1684
      22    H14     17.844629   19.844383   21.492937 H          1 MOL1         0.0833
      23    H15     18.939070   19.514459   20.166754 H          1 MOL1         0.0833
      24    O1      22.601781   17.177148   23.133537 O.3        1 MOL1        -0.5508
      25    H16     23.122040   17.704091   22.492875 H          1 MOL1         0.3780
@<TRIPOS>BOND
    1     1     2    1
    2     1     3    1
    3     1     4    1
    4     4     5    1
    5     4     6    1
    6     4     7    1
    7     7     8    1
    8     7     9    1
    9     7    10    1
   10    10    11    1
   11    10    12    1
   12    10    13    1
   13    13    14    1
   14    13    15    1
   15    15    16    1
   16    15    17    1
   17    15    18    1
   18    18    19    1
   19    18    20    1
   20     1    21    1
   21    18    21    1
   22    21    22    1
   23    21    23    1
   24    13    24    1
   25    24    25    1
@<TRIPOS>SUBSTRUCTURE
       1 MOL1            1 RESIDUE      1      MOL     
@<SCITEGIC>MOL_PROPERTY
VConf Rank
SciTegic.value.IntegerValue
930

@<SCITEGIC>MOL_PROPERTY
Conf_Id
SciTegic.value.IntegerValue
15

@<SCITEGIC>MOL_PROPERTY
Delta U+W
SciTegic.value.DoubleValue
-1.271

@<SCITEGIC>MOL_PROPERTY
U+W
SciTegic.value.DoubleValue
9.643

@<SCITEGIC>MOL_PROPERTY
Grad RMS
SciTegic.value.DoubleValue
0.000000

@<SCITEGIC>MOL_PROPERTY
U
SciTegic.value.DoubleValue
11.413

@<SCITEGIC>MOL_PROPERTY
W
SciTegic.value.DoubleValue
-1.770

@<SCITEGIC>MOL_PROPERTY
W(PB)
SciTegic.value.DoubleValue
-3.908

@<SCITEGIC>MOL_PROPERTY
W(SA)
SciTegic.value.DoubleValue
2.138

@<SCITEGIC>MOL_PROPERTY
Valence
SciTegic.value.DoubleValue
17.496

@<SCITEGIC>MOL_PROPERTY
Coulomb
SciTegic.value.DoubleValue
-8.736

@<SCITEGIC>MOL_PROPERTY
VdW
SciTegic.value.DoubleValue
2.653

@<SCITEGIC>MOL_PROPERTY
VdW6
SciTegic.value.DoubleValue
-12.485

@<SCITEGIC>MOL_PROPERTY
VdW12
SciTegic.value.DoubleValue
15.138

@<SCITEGIC>MOL_PROPERTY
Bond
SciTegic.value.DoubleValue
0.414

@<SCITEGIC>MOL_PROPERTY
Angle
SciTegic.value.DoubleValue
5.295

@<SCITEGIC>MOL_PROPERTY
Pdih
SciTegic.value.DoubleValue
11.787

@<SCITEGIC>MOL_PROPERTY
Idih
SciTegic.value.DoubleValue
0.000

@<SCITEGIC>MOL_PROPERTY
Tether
SciTegic.value.DoubleValue
0.000

@<TRIPOS>MOLECULE
guest-s17_confgen4.mol2 : confsearch ligand conformer 931
          25          25           1
SMALL
USER_CHARGES
 
@<TRIPOS>ATOM
       1    C1      20.549491   21.129751   22.592802 C.3        1 MOL1        -0.1684
       2    H1      20.811960   22.183239   22.424713 H          1 MOL1         0.0833
       3    H2      20.192779   21.092505   23.629882 H          1 MOL1         0.0833
       4    C2      19.401994   20.785940   21.606968 C.3        1 MOL1        -0.1684
       5    H3      18.514567   21.362031   21.902633 H          1 MOL1         0.0833
       6    H4      19.673018   21.148152   20.605907 H          1 MOL1         0.0833
       7    C3      19.008642   19.293432   21.492841 C.3        1 MOL1        -0.1684
       8    H5      19.733846   18.770461   20.858529 H          1 MOL1         0.0833
       9    H6      18.059615   19.232175   20.942947 H          1 MOL1         0.0833
      10    C4      18.841036   18.575788   22.857521 C.3        1 MOL1        -0.1760
      11    H7      18.875247   19.294230   23.683997 H          1 MOL1         0.0833
      12    H8      17.832699   18.143841   22.900812 H          1 MOL1         0.0833
      13    C5      19.849447   17.430953   23.107975 C.3        1 MOL1         0.1219
      14    H9      19.551583   16.581687   22.476427 H          1 MOL1         0.0790
      15    C6      21.336507   17.735439   22.791082 C.3        1 MOL1        -0.1760
      16    H10     21.925818   16.894189   23.180113 H          1 MOL1         0.0833
      17    H11     21.502511   17.707355   21.707492 H          1 MOL1         0.0833
      18    C7      21.926603   19.045752   23.377517 C.3        1 MOL1        -0.1684
      19    H12     22.994272   18.859047   23.557425 H          1 MOL1         0.0833
      20    H13     21.501760   19.264940   24.365585 H          1 MOL1         0.0833
      21    C8      21.840146   20.286356   22.446278 C.3        1 MOL1        -0.1684
      22    H14     22.007897   20.008297   21.397122 H          1 MOL1         0.0833
      23    H15     22.681094   20.942035   22.710981 H          1 MOL1         0.0833
      24    O1      19.749726   17.042343   24.470856 O.3        1 MOL1        -0.5508
      25    H16     20.112381   17.788610   24.989230 H          1 MOL1         0.3780
@<TRIPOS>BOND
    1     1     2    1
    2     1     3    1
    3     1     4    1
    4     4     5    1
    5     4     6    1
    6     4     7    1
    7     7     8    1
    8     7     9    1
    9     7    10    1
   10    10    11    1
   11    10    12    1
   12    10    13    1
   13    13    14    1
   14    13    15    1
   15    15    16    1
   16    15    17    1
   17    15    18    1
   18    18    19    1
   19    18    20    1
   20     1    21    1
   21    18    21    1
   22    21    22    1
   23    21    23    1
   24    13    24    1
   25    24    25    1
@<TRIPOS>SUBSTRUCTURE
       1 MOL1            1 RESIDUE      1      MOL     
@<SCITEGIC>MOL_PROPERTY
VConf Rank
SciTegic.value.IntegerValue
931

@<SCITEGIC>MOL_PROPERTY
Conf_Id
SciTegic.value.IntegerValue
115

@<SCITEGIC>MOL_PROPERTY
Delta U+W
SciTegic.value.DoubleValue
0.038

@<SCITEGIC>MOL_PROPERTY
U+W
SciTegic.value.DoubleValue
10.952

@<SCITEGIC>MOL_PROPERTY
Grad RMS
SciTegic.value.DoubleValue
0.000000

@<SCITEGIC>MOL_PROPERTY
U
SciTegic.value.DoubleValue
12.526

@<SCITEGIC>MOL_PROPERTY
W
SciTegic.value.DoubleValue
-1.575

@<SCITEGIC>MOL_PROPERTY
W(PB)
SciTegic.value.DoubleValue
-3.698

@<SCITEGIC>MOL_PROPERTY
W(SA)
SciTegic.value.DoubleValue
2.123

@<SCITEGIC>MOL_PROPERTY
Valence
SciTegic.value.DoubleValue
19.016

@<SCITEGIC>MOL_PROPERTY
Coulomb
SciTegic.value.DoubleValue
-9.226

@<SCITEGIC>MOL_PROPERTY
VdW
SciTegic.value.DoubleValue
2.737

@<SCITEGIC>MOL_PROPERTY
VdW6
SciTegic.value.DoubleValue
-12.612

@<SCITEGIC>MOL_PROPERTY
VdW12
SciTegic.value.DoubleValue
15.349

@<SCITEGIC>MOL_PROPERTY
Bond
SciTegic.value.DoubleValue
0.421

@<SCITEGIC>MOL_PROPERTY
Angle
SciTegic.value.DoubleValue
4.883

@<SCITEGIC>MOL_PROPERTY
Pdih
SciTegic.value.DoubleValue
13.711

@<SCITEGIC>MOL_PROPERTY
Idih
SciTegic.value.DoubleValue
0.000

@<SCITEGIC>MOL_PROPERTY
Tether
SciTegic.value.DoubleValue
0.000

@<TRIPOS>MOLECULE
guest-s17_confgen4.mol2 : confsearch ligand conformer 932
          25          25           1
SMALL
USER_CHARGES
 
@<TRIPOS>ATOM
       1    C1      20.823069   20.256276   20.832714 C.3        1 MOL1        -0.1684
       2    H1      21.146842   20.288777   19.783380 H          1 MOL1         0.0833
       3    H2      20.435331   21.260272   21.052097 H          1 MOL1         0.0833
       4    C2      22.076330   19.971398   21.692783 C.3        1 MOL1        -0.1684
       5    H3      22.535020   19.021055   21.387750 H          1 MOL1         0.0833
       6    H4      22.818944   20.746162   21.457698 H          1 MOL1         0.0833
       7    C3      21.841850   19.985036   23.221092 C.3        1 MOL1        -0.1684
       8    H5      21.180025   20.816498   23.497928 H          1 MOL1         0.0833
       9    H6      22.805512   20.208088   23.699387 H          1 MOL1         0.0833
      10    C4      21.334273   18.637723   23.801653 C.3        1 MOL1        -0.1760
      11    H7      21.447609   17.822797   23.075802 H          1 MOL1         0.0833
      12    H8      21.991829   18.374692   24.641293 H          1 MOL1         0.0833
      13    C5      19.882666   18.676173   24.330154 C.3        1 MOL1         0.1219
      14    H9      19.695678   19.659253   24.785410 H          1 MOL1         0.0790
      15    C6      18.800614   18.403844   23.261774 C.3        1 MOL1        -0.1760
      16    H10     18.935564   17.399256   22.839659 H          1 MOL1         0.0833
      17    H11     17.828754   18.385203   23.772218 H          1 MOL1         0.0833
      18    C7      18.710682   19.451355   22.125420 C.3        1 MOL1        -0.1684
      19    H12     18.815486   20.466350   22.531415 H          1 MOL1         0.0833
      20    H13     17.691185   19.405113   21.718335 H          1 MOL1         0.0833
      21    C8      19.691005   19.208588   20.948121 C.3        1 MOL1        -0.1684
      22    H14     19.106399   19.256278   20.019054 H          1 MOL1         0.0833
      23    H15     20.109439   18.193708   20.975651 H          1 MOL1         0.0833
      24    O1      19.753082   17.676533   25.333935 O.3        1 MOL1        -0.5508
      25    H16     18.844651   17.752332   25.693577 H          1 MOL1         0.3780
@<TRIPOS>BOND
    1     1     2    1
    2     1     3    1
    3     1     4    1
    4     4     5    1
    5     4     6    1
    6     4     7    1
    7     7     8    1
    8     7     9    1
    9     7    10    1
   10    10    11    1
   11    10    12    1
   12    10    13    1
   13    13    14    1
   14    13    15    1
   15    15    16    1
   16    15    17    1
   17    15    18    1
   18    18    19    1
   19    18    20    1
   20     1    21    1
   21    18    21    1
   22    21    22    1
   23    21    23    1
   24    13    24    1
   25    24    25    1
@<TRIPOS>SUBSTRUCTURE
       1 MOL1            1 RESIDUE      1      MOL     
@<SCITEGIC>MOL_PROPERTY
VConf Rank
SciTegic.value.IntegerValue
932

@<SCITEGIC>MOL_PROPERTY
Conf_Id
SciTegic.value.IntegerValue
30

@<SCITEGIC>MOL_PROPERTY
Delta U+W
SciTegic.value.DoubleValue
0.000

@<SCITEGIC>MOL_PROPERTY
U+W
SciTegic.value.DoubleValue
10.913

@<SCITEGIC>MOL_PROPERTY
Grad RMS
SciTegic.value.DoubleValue
0.000000

@<SCITEGIC>MOL_PROPERTY
U
SciTegic.value.DoubleValue
13.140

@<SCITEGIC>MOL_PROPERTY
W
SciTegic.value.DoubleValue
-2.227

@<SCITEGIC>MOL_PROPERTY
W(PB)
SciTegic.value.DoubleValue
-4.367

@<SCITEGIC>MOL_PROPERTY
W(SA)
SciTegic.value.DoubleValue
2.140

@<SCITEGIC>MOL_PROPERTY
Valence
SciTegic.value.DoubleValue
19.155

@<SCITEGIC>MOL_PROPERTY
Coulomb
SciTegic.value.DoubleValue
-8.157

@<SCITEGIC>MOL_PROPERTY
VdW
SciTegic.value.DoubleValue
2.142

@<SCITEGIC>MOL_PROPERTY
VdW6
SciTegic.value.DoubleValue
-11.576

@<SCITEGIC>MOL_PROPERTY
VdW12
SciTegic.value.DoubleValue
13.718

@<SCITEGIC>MOL_PROPERTY
Bond
SciTegic.value.DoubleValue
0.294

@<SCITEGIC>MOL_PROPERTY
Angle
SciTegic.value.DoubleValue
3.547

@<SCITEGIC>MOL_PROPERTY
Pdih
SciTegic.value.DoubleValue
15.314

@<SCITEGIC>MOL_PROPERTY
Idih
SciTegic.value.DoubleValue
0.000

@<SCITEGIC>MOL_PROPERTY
Tether
SciTegic.value.DoubleValue
0.000

@<TRIPOS>MOLECULE
guest-s17_confgen4.mol2 : confsearch ligand conformer 933
          25          25           1
SMALL
USER_CHARGES
 
@<TRIPOS>ATOM
       1    C1      20.468685   19.551830   20.543952 C.3        1 MOL1        -0.1684
       2    H1      20.271528   20.414483   19.892941 H          1 MOL1         0.0833
       3    H2      20.749812   18.730354   19.870962 H          1 MOL1         0.0833
       4    C2      19.150427   19.164027   21.258017 C.3        1 MOL1        -0.1684
       5    H3      18.341610   19.194928   20.515232 H          1 MOL1         0.0833
       6    H4      19.196993   18.115091   21.572850 H          1 MOL1         0.0833
       7    C3      18.768776   20.086233   22.443631 C.3        1 MOL1        -0.1684
       8    H5      17.759694   20.484247   22.270358 H          1 MOL1         0.0833
       9    H6      19.415854   20.970373   22.478602 H          1 MOL1         0.0833
      10    C4      18.775750   19.378847   23.822439 C.3        1 MOL1        -0.1760
      11    H7      18.681858   20.143528   24.604876 H          1 MOL1         0.0833
      12    H8      17.873874   18.757565   23.898565 H          1 MOL1         0.0833
      13    C5      19.995139   18.477678   24.140499 C.3        1 MOL1         0.1219
      14    H9      19.945507   17.571037   23.522821 H          1 MOL1         0.0790
      15    C6      21.377172   19.143690   23.931430 C.3        1 MOL1        -0.1760
      16    H10     21.315506   20.221104   24.131245 H          1 MOL1         0.0833
      17    H11     22.065375   18.747071   24.689760 H          1 MOL1         0.0833
      18    C7      22.032702   18.873118   22.547659 C.3        1 MOL1        -0.1684
      19    H12     21.830029   17.849510   22.204770 H          1 MOL1         0.0833
      20    H13     23.120431   18.920764   22.695352 H          1 MOL1         0.0833
      21    C8      21.683952   19.901736   21.443522 C.3        1 MOL1        -0.1684
      22    H14     22.555590   19.993855   20.781082 H          1 MOL1         0.0833
      23    H15     21.563019   20.899070   21.885144 H          1 MOL1         0.0833
      24    O1      19.885541   18.088915   25.504709 O.3        1 MOL1        -0.5508
      25    H16     20.613810   17.456246   25.677359 H          1 MOL1         0.3780
@<TRIPOS>BOND
    1     1     2    1
    2     1     3    1
    3     1     4    1
    4     4     5    1
    5     4     6    1
    6     4     7    1
    7     7     8    1
    8     7     9    1
    9     7    10    1
   10    10    11    1
   11    10    12    1
   12    10    13    1
   13    13    14    1
   14    13    15    1
   15    15    16    1
   16    15    17    1
   17    15    18    1
   18    18    19    1
   19    18    20    1
   20     1    21    1
   21    18    21    1
   22    21    22    1
   23    21    23    1
   24    13    24    1
   25    24    25    1
@<TRIPOS>SUBSTRUCTURE
       1 MOL1            1 RESIDUE      1      MOL     
@<SCITEGIC>MOL_PROPERTY
VConf Rank
SciTegic.value.IntegerValue
933

@<SCITEGIC>MOL_PROPERTY
Conf_Id
SciTegic.value.IntegerValue
162

@<SCITEGIC>MOL_PROPERTY
Delta U+W
SciTegic.value.DoubleValue
0.219

@<SCITEGIC>MOL_PROPERTY
U+W
SciTegic.value.DoubleValue
11.132

@<SCITEGIC>MOL_PROPERTY
Grad RMS
SciTegic.value.DoubleValue
0.000000

@<SCITEGIC>MOL_PROPERTY
U
SciTegic.value.DoubleValue
13.296

@<SCITEGIC>MOL_PROPERTY
W
SciTegic.value.DoubleValue
-2.164

@<SCITEGIC>MOL_PROPERTY
W(PB)
SciTegic.value.DoubleValue
-4.311

@<SCITEGIC>MOL_PROPERTY
W(SA)
SciTegic.value.DoubleValue
2.148

@<SCITEGIC>MOL_PROPERTY
Valence
SciTegic.value.DoubleValue
18.607

@<SCITEGIC>MOL_PROPERTY
Coulomb
SciTegic.value.DoubleValue
-8.339

@<SCITEGIC>MOL_PROPERTY
VdW
SciTegic.value.DoubleValue
3.028

@<SCITEGIC>MOL_PROPERTY
VdW6
SciTegic.value.DoubleValue
-12.271

@<SCITEGIC>MOL_PROPERTY
VdW12
SciTegic.value.DoubleValue
15.299

@<SCITEGIC>MOL_PROPERTY
Bond
SciTegic.value.DoubleValue
0.423

@<SCITEGIC>MOL_PROPERTY
Angle
SciTegic.value.DoubleValue
4.488

@<SCITEGIC>MOL_PROPERTY
Pdih
SciTegic.value.DoubleValue
13.696

@<SCITEGIC>MOL_PROPERTY
Idih
SciTegic.value.DoubleValue
0.000

@<SCITEGIC>MOL_PROPERTY
Tether
SciTegic.value.DoubleValue
0.000

@<TRIPOS>MOLECULE
guest-s17_confgen4.mol2 : confsearch ligand conformer 934
          25          25           1
SMALL
USER_CHARGES
 
@<TRIPOS>ATOM
       1    C1      18.857155   18.768640   21.422999 C.3        1 MOL1        -0.1684
       2    H1      18.906690   17.746239   21.818519 H          1 MOL1         0.0833
       3    H2      18.022877   18.751938   20.708388 H          1 MOL1         0.0833
       4    C2      18.494164   19.757728   22.558624 C.3        1 MOL1        -0.1684
       5    H3      18.780370   20.783149   22.288756 H          1 MOL1         0.0833
       6    H4      17.397910   19.771475   22.630575 H          1 MOL1         0.0833
       7    C3      19.032694   19.376308   23.965772 C.3        1 MOL1        -0.1684
       8    H5      19.001747   18.289574   24.121397 H          1 MOL1         0.0833
       9    H6      18.329165   19.794613   24.698710 H          1 MOL1         0.0833
      10    C4      20.433276   19.943874   24.314237 C.3        1 MOL1        -0.1760
      11    H7      20.565225   20.927655   23.847269 H          1 MOL1         0.0833
      12    H8      20.456941   20.138418   25.394425 H          1 MOL1         0.0833
      13    C5      21.643706   19.027202   24.004569 C.3        1 MOL1         0.1219
      14    H9      21.623985   18.191097   24.718454 H          1 MOL1         0.0790
      15    C6      21.695351   18.417315   22.583504 C.3        1 MOL1        -0.1760
      16    H10     22.687874   17.974550   22.429051 H          1 MOL1         0.0833
      17    H11     21.007225   17.566521   22.536500 H          1 MOL1         0.0833
      18    C7      21.413249   19.421424   21.434740 C.3        1 MOL1        -0.1684
      19    H12     22.271265   19.423744   20.749056 H          1 MOL1         0.0833
      20    H13     21.358568   20.447766   21.816502 H          1 MOL1         0.0833
      21    C8      20.138750   19.105206   20.615325 C.3        1 MOL1        -0.1684
      22    H14     20.351383   18.261248   19.945055 H          1 MOL1         0.0833
      23    H15     19.930551   19.961843   19.959933 H          1 MOL1         0.0833
      24    O1      22.828589   19.785971   24.215334 O.3        1 MOL1        -0.5508
      25    H16     23.582000   19.193820   24.013228 H          1 MOL1         0.3780
@<TRIPOS>BOND
    1     1     2    1
    2     1     3    1
    3     1     4    1
    4     4     5    1
    5     4     6    1
    6     4     7    1
    7     7     8    1
    8     7     9    1
    9     7    10    1
   10    10    11    1
   11    10    12    1
   12    10    13    1
   13    13    14    1
   14    13    15    1
   15    15    16    1
   16    15    17    1
   17    15    18    1
   18    18    19    1
   19    18    20    1
   20     1    21    1
   21    18    21    1
   22    21    22    1
   23    21    23    1
   24    13    24    1
   25    24    25    1
@<TRIPOS>SUBSTRUCTURE
       1 MOL1            1 RESIDUE      1      MOL     
@<SCITEGIC>MOL_PROPERTY
VConf Rank
SciTegic.value.IntegerValue
934

@<SCITEGIC>MOL_PROPERTY
Conf_Id
SciTegic.value.IntegerValue
155

@<SCITEGIC>MOL_PROPERTY
Delta U+W
SciTegic.value.DoubleValue
0.339

@<SCITEGIC>MOL_PROPERTY
U+W
SciTegic.value.DoubleValue
11.252

@<SCITEGIC>MOL_PROPERTY
Grad RMS
SciTegic.value.DoubleValue
0.000000

@<SCITEGIC>MOL_PROPERTY
U
SciTegic.value.DoubleValue
13.420

@<SCITEGIC>MOL_PROPERTY
W
SciTegic.value.DoubleValue
-2.167

@<SCITEGIC>MOL_PROPERTY
W(PB)
SciTegic.value.DoubleValue
-4.325

@<SCITEGIC>MOL_PROPERTY
W(SA)
SciTegic.value.DoubleValue
2.157

@<SCITEGIC>MOL_PROPERTY
Valence
SciTegic.value.DoubleValue
18.609

@<SCITEGIC>MOL_PROPERTY
Coulomb
SciTegic.value.DoubleValue
-8.052

@<SCITEGIC>MOL_PROPERTY
VdW
SciTegic.value.DoubleValue
2.863

@<SCITEGIC>MOL_PROPERTY
VdW6
SciTegic.value.DoubleValue
-12.524

@<SCITEGIC>MOL_PROPERTY
VdW12
SciTegic.value.DoubleValue
15.387

@<SCITEGIC>MOL_PROPERTY
Bond
SciTegic.value.DoubleValue
0.430

@<SCITEGIC>MOL_PROPERTY
Angle
SciTegic.value.DoubleValue
4.724

@<SCITEGIC>MOL_PROPERTY
Pdih
SciTegic.value.DoubleValue
13.455

@<SCITEGIC>MOL_PROPERTY
Idih
SciTegic.value.DoubleValue
0.000

@<SCITEGIC>MOL_PROPERTY
Tether
SciTegic.value.DoubleValue
0.000

@<TRIPOS>MOLECULE
guest-s17_confgen4.mol2 : confsearch ligand conformer 935
          25          25           1
SMALL
USER_CHARGES
 
@<TRIPOS>ATOM
       1    C1      21.905109   19.492132   23.916648 C.3        1 MOL1        -0.1684
       2    H1      22.876244   19.596170   23.414241 H          1 MOL1         0.0833
       3    H2      22.118891   19.592162   24.989530 H          1 MOL1         0.0833
       4    C2      20.996391   20.686905   23.524773 C.3        1 MOL1        -0.1684
       5    H3      20.074243   20.647970   24.113218 H          1 MOL1         0.0833
       6    H4      21.486279   21.605411   23.875589 H          1 MOL1         0.0833
       7    C3      20.680658   20.885929   22.013509 C.3        1 MOL1        -0.1684
       8    H5      21.496584   21.481934   21.582702 H          1 MOL1         0.0833
       9    H6      19.780132   21.507556   21.916803 H          1 MOL1         0.0833
      10    C4      20.523808   19.621981   21.124837 C.3        1 MOL1        -0.1760
      11    H7      20.448397   19.960727   20.083269 H          1 MOL1         0.0833
      12    H8      21.460116   19.057200   21.134945 H          1 MOL1         0.0833
      13    C5      19.319408   18.676244   21.406451 C.3        1 MOL1         0.1219
      14    H9      19.576839   17.680973   21.016664 H          1 MOL1         0.0790
      15    C6      18.864805   18.508075   22.878047 C.3        1 MOL1        -0.1760
      16    H10     18.543847   19.479169   23.265967 H          1 MOL1         0.0833
      17    H11     17.941579   17.913730   22.872179 H          1 MOL1         0.0833
      18    C7      19.845860   17.812087   23.868722 C.3        1 MOL1        -0.1684
      19    H12     19.678868   16.729120   23.790401 H          1 MOL1         0.0833
      20    H13     19.561612   18.078359   24.895671 H          1 MOL1         0.0833
      21    C8      21.367531   18.049865   23.682530 C.3        1 MOL1        -0.1684
      22    H14     21.676954   17.673215   22.702546 H          1 MOL1         0.0833
      23    H15     21.894057   17.391901   24.387322 H          1 MOL1         0.0833
      24    O1      18.198606   19.169706   20.680860 O.3        1 MOL1        -0.5508
      25    H16     18.471906   19.226356   19.742064 H          1 MOL1         0.3780
@<TRIPOS>BOND
    1     1     2    1
    2     1     3    1
    3     1     4    1
    4     4     5    1
    5     4     6    1
    6     4     7    1
    7     7     8    1
    8     7     9    1
    9     7    10    1
   10    10    11    1
   11    10    12    1
   12    10    13    1
   13    13    14    1
   14    13    15    1
   15    15    16    1
   16    15    17    1
   17    15    18    1
   18    18    19    1
   19    18    20    1
   20     1    21    1
   21    18    21    1
   22    21    22    1
   23    21    23    1
   24    13    24    1
   25    24    25    1
@<TRIPOS>SUBSTRUCTURE
       1 MOL1            1 RESIDUE      1      MOL     
@<SCITEGIC>MOL_PROPERTY
VConf Rank
SciTegic.value.IntegerValue
935

@<SCITEGIC>MOL_PROPERTY
Conf_Id
SciTegic.value.IntegerValue
146

@<SCITEGIC>MOL_PROPERTY
Delta U+W
SciTegic.value.DoubleValue
2.553

@<SCITEGIC>MOL_PROPERTY
U+W
SciTegic.value.DoubleValue
13.466

@<SCITEGIC>MOL_PROPERTY
Grad RMS
SciTegic.value.DoubleValue
0.000000

@<SCITEGIC>MOL_PROPERTY
U
SciTegic.value.DoubleValue
15.643

@<SCITEGIC>MOL_PROPERTY
W
SciTegic.value.DoubleValue
-2.176

@<SCITEGIC>MOL_PROPERTY
W(PB)
SciTegic.value.DoubleValue
-4.307

@<SCITEGIC>MOL_PROPERTY
W(SA)
SciTegic.value.DoubleValue
2.131

@<SCITEGIC>MOL_PROPERTY
Valence
SciTegic.value.DoubleValue
18.916

@<SCITEGIC>MOL_PROPERTY
Coulomb
SciTegic.value.DoubleValue
-7.506

@<SCITEGIC>MOL_PROPERTY
VdW
SciTegic.value.DoubleValue
4.232

@<SCITEGIC>MOL_PROPERTY
VdW6
SciTegic.value.DoubleValue
-13.632

@<SCITEGIC>MOL_PROPERTY
VdW12
SciTegic.value.DoubleValue
17.864

@<SCITEGIC>MOL_PROPERTY
Bond
SciTegic.value.DoubleValue
0.735

@<SCITEGIC>MOL_PROPERTY
Angle
SciTegic.value.DoubleValue
9.140

@<SCITEGIC>MOL_PROPERTY
Pdih
SciTegic.value.DoubleValue
9.042

@<SCITEGIC>MOL_PROPERTY
Idih
SciTegic.value.DoubleValue
0.000

@<SCITEGIC>MOL_PROPERTY
Tether
SciTegic.value.DoubleValue
0.000

@<TRIPOS>MOLECULE
guest-s17_confgen4.mol2 : confsearch ligand conformer 936
          25          25           1
SMALL
USER_CHARGES
 
@<TRIPOS>ATOM
       1    C1      22.192599   18.414072   22.940824 C.3        1 MOL1        -0.1684
       2    H1      23.114110   18.891460   22.581070 H          1 MOL1         0.0833
       3    H2      22.512189   17.482219   23.427060 H          1 MOL1         0.0833
       4    C2      21.311613   18.023940   21.727646 C.3        1 MOL1        -0.1684
       5    H3      21.890322   17.315679   21.119153 H          1 MOL1         0.0833
       6    H4      20.437605   17.451974   22.059473 H          1 MOL1         0.0833
       7    C3      20.880465   19.184497   20.796195 C.3        1 MOL1        -0.1684
       8    H5      20.368889   18.741310   19.930831 H          1 MOL1         0.0833
       9    H6      21.775009   19.677890   20.392712 H          1 MOL1         0.0833
      10    C4      19.941896   20.260556   21.401908 C.3        1 MOL1        -0.1760
      11    H7      20.521310   20.992294   21.973669 H          1 MOL1         0.0833
      12    H8      19.526136   20.835149   20.563146 H          1 MOL1         0.0833
      13    C5      18.777352   19.708419   22.263916 C.3        1 MOL1         0.1219
      14    H9      18.602687   18.653190   22.014461 H          1 MOL1         0.0790
      15    C6      18.999681   19.844602   23.791590 C.3        1 MOL1        -0.1760
      16    H10     19.206745   20.895473   24.033487 H          1 MOL1         0.0833
      17    H11     18.053476   19.605472   24.294437 H          1 MOL1         0.0833
      18    C7      20.097710   18.946767   24.423909 C.3        1 MOL1        -0.1684
      19    H12     19.893142   17.885916   24.230137 H          1 MOL1         0.0833
      20    H13     20.015732   19.059781   25.513629 H          1 MOL1         0.0833
      21    C8      21.550020   19.316551   24.025736 C.3        1 MOL1        -0.1684
      22    H14     22.179917   19.240441   24.922662 H          1 MOL1         0.0833
      23    H15     21.613276   20.371890   23.737500 H          1 MOL1         0.0833
      24    O1      17.601588   20.442104   21.940443 O.3        1 MOL1        -0.5508
      25    H16     16.867627   20.040250   22.450378 H          1 MOL1         0.3780
@<TRIPOS>BOND
    1     1     2    1
    2     1     3    1
    3     1     4    1
    4     4     5    1
    5     4     6    1
    6     4     7    1
    7     7     8    1
    8     7     9    1
    9     7    10    1
   10    10    11    1
   11    10    12    1
   12    10    13    1
   13    13    14    1
   14    13    15    1
   15    15    16    1
   16    15    17    1
   17    15    18    1
   18    18    19    1
   19    18    20    1
   20     1    21    1
   21    18    21    1
   22    21    22    1
   23    21    23    1
   24    13    24    1
   25    24    25    1
@<TRIPOS>SUBSTRUCTURE
       1 MOL1            1 RESIDUE      1      MOL     
@<SCITEGIC>MOL_PROPERTY
VConf Rank
SciTegic.value.IntegerValue
936

@<SCITEGIC>MOL_PROPERTY
Conf_Id
SciTegic.value.IntegerValue
62

@<SCITEGIC>MOL_PROPERTY
Delta U+W
SciTegic.value.DoubleValue
-1.779

@<SCITEGIC>MOL_PROPERTY
U+W
SciTegic.value.DoubleValue
9.134

@<SCITEGIC>MOL_PROPERTY
Grad RMS
SciTegic.value.DoubleValue
0.000000

@<SCITEGIC>MOL_PROPERTY
U
SciTegic.value.DoubleValue
11.364

@<SCITEGIC>MOL_PROPERTY
W
SciTegic.value.DoubleValue
-2.230

@<SCITEGIC>MOL_PROPERTY
W(PB)
SciTegic.value.DoubleValue
-4.359

@<SCITEGIC>MOL_PROPERTY
W(SA)
SciTegic.value.DoubleValue
2.129

@<SCITEGIC>MOL_PROPERTY
Valence
SciTegic.value.DoubleValue
16.582

@<SCITEGIC>MOL_PROPERTY
Coulomb
SciTegic.value.DoubleValue
-8.150

@<SCITEGIC>MOL_PROPERTY
VdW
SciTegic.value.DoubleValue
2.933

@<SCITEGIC>MOL_PROPERTY
VdW6
SciTegic.value.DoubleValue
-12.531

@<SCITEGIC>MOL_PROPERTY
VdW12
SciTegic.value.DoubleValue
15.464

@<SCITEGIC>MOL_PROPERTY
Bond
SciTegic.value.DoubleValue
0.439

@<SCITEGIC>MOL_PROPERTY
Angle
SciTegic.value.DoubleValue
5.099

@<SCITEGIC>MOL_PROPERTY
Pdih
SciTegic.value.DoubleValue
11.044

@<SCITEGIC>MOL_PROPERTY
Idih
SciTegic.value.DoubleValue
0.000

@<SCITEGIC>MOL_PROPERTY
Tether
SciTegic.value.DoubleValue
0.000

@<TRIPOS>MOLECULE
guest-s17_confgen4.mol2 : confsearch ligand conformer 937
          25          25           1
SMALL
USER_CHARGES
 
@<TRIPOS>ATOM
       1    C1      22.196719   19.104974   22.314306 C.3        1 MOL1        -0.1684
       2    H1      21.916579   18.072520   22.552389 H          1 MOL1         0.0833
       3    H2      23.277395   19.060982   22.122358 H          1 MOL1         0.0833
       4    C2      21.985121   20.019893   23.546298 C.3        1 MOL1        -0.1684
       5    H3      22.618549   19.632734   24.356091 H          1 MOL1         0.0833
       6    H4      22.369791   21.024165   23.322777 H          1 MOL1         0.0833
       7    C3      20.540294   20.144993   24.093605 C.3        1 MOL1        -0.1684
       8    H5      19.976262   20.891918   23.523551 H          1 MOL1         0.0833
       9    H6      20.612853   20.568742   25.104643 H          1 MOL1         0.0833
      10    C4      19.746935   18.813770   24.181583 C.3        1 MOL1        -0.1760
      11    H7      20.424919   17.954150   24.249730 H          1 MOL1         0.0833
      12    H8      19.198425   18.825588   25.132551 H          1 MOL1         0.0833
      13    C5      18.707961   18.597507   23.052355 C.3        1 MOL1         0.1219
      14    H9      18.054610   19.480928   23.011360 H          1 MOL1         0.0790
      15    C6      19.275630   18.352506   21.631920 C.3        1 MOL1        -0.1760
      16    H10     19.938010   17.478419   21.628031 H          1 MOL1         0.0833
      17    H11     18.427517   18.074232   20.992328 H          1 MOL1         0.0833
      18    C7      19.964310   19.581191   20.979525 C.3        1 MOL1        -0.1684
      19    H12     19.585807   20.511504   21.417931 H          1 MOL1         0.0833
      20    H13     19.655156   19.628290   19.926361 H          1 MOL1         0.0833
      21    C8      21.514167   19.560373   21.000359 C.3        1 MOL1        -0.1684
      22    H14     21.887894   20.555310   20.723032 H          1 MOL1         0.0833
      23    H15     21.851328   18.883729   20.203267 H          1 MOL1         0.0833
      24    O1      17.922271   17.464310   23.400181 O.3        1 MOL1        -0.5508
      25    H16     17.513691   17.659003   24.269263 H          1 MOL1         0.3780
@<TRIPOS>BOND
    1     1     2    1
    2     1     3    1
    3     1     4    1
    4     4     5    1
    5     4     6    1
    6     4     7    1
    7     7     8    1
    8     7     9    1
    9     7    10    1
   10    10    11    1
   11    10    12    1
   12    10    13    1
   13    13    14    1
   14    13    15    1
   15    15    16    1
   16    15    17    1
   17    15    18    1
   18    18    19    1
   19    18    20    1
   20     1    21    1
   21    18    21    1
   22    21    22    1
   23    21    23    1
   24    13    24    1
   25    24    25    1
@<TRIPOS>SUBSTRUCTURE
       1 MOL1            1 RESIDUE      1      MOL     
@<SCITEGIC>MOL_PROPERTY
VConf Rank
SciTegic.value.IntegerValue
937

@<SCITEGIC>MOL_PROPERTY
Conf_Id
SciTegic.value.IntegerValue
121

@<SCITEGIC>MOL_PROPERTY
Delta U+W
SciTegic.value.DoubleValue
-1.283

@<SCITEGIC>MOL_PROPERTY
U+W
SciTegic.value.DoubleValue
9.630

@<SCITEGIC>MOL_PROPERTY
Grad RMS
SciTegic.value.DoubleValue
0.000000

@<SCITEGIC>MOL_PROPERTY
U
SciTegic.value.DoubleValue
11.876

@<SCITEGIC>MOL_PROPERTY
W
SciTegic.value.DoubleValue
-2.246

@<SCITEGIC>MOL_PROPERTY
W(PB)
SciTegic.value.DoubleValue
-4.376

@<SCITEGIC>MOL_PROPERTY
W(SA)
SciTegic.value.DoubleValue
2.130

@<SCITEGIC>MOL_PROPERTY
Valence
SciTegic.value.DoubleValue
17.153

@<SCITEGIC>MOL_PROPERTY
Coulomb
SciTegic.value.DoubleValue
-7.966

@<SCITEGIC>MOL_PROPERTY
VdW
SciTegic.value.DoubleValue
2.689

@<SCITEGIC>MOL_PROPERTY
VdW6
SciTegic.value.DoubleValue
-12.458

@<SCITEGIC>MOL_PROPERTY
VdW12
SciTegic.value.DoubleValue
15.147

@<SCITEGIC>MOL_PROPERTY
Bond
SciTegic.value.DoubleValue
0.421

@<SCITEGIC>MOL_PROPERTY
Angle
SciTegic.value.DoubleValue
5.258

@<SCITEGIC>MOL_PROPERTY
Pdih
SciTegic.value.DoubleValue
11.475

@<SCITEGIC>MOL_PROPERTY
Idih
SciTegic.value.DoubleValue
0.000

@<SCITEGIC>MOL_PROPERTY
Tether
SciTegic.value.DoubleValue
0.000

@<TRIPOS>MOLECULE
guest-s17_confgen4.mol2 : confsearch ligand conformer 938
          25          25           1
SMALL
USER_CHARGES
 
@<TRIPOS>ATOM
       1    C1      21.137656   18.007310   23.805855 C.3        1 MOL1        -0.1684
       2    H1      21.542409   17.766188   22.816330 H          1 MOL1         0.0833
       3    H2      21.615454   17.286481   24.483169 H          1 MOL1         0.0833
       4    C2      19.613034   17.736009   23.846393 C.3        1 MOL1        -0.1684
       5    H3      19.462913   16.670303   23.625901 H          1 MOL1         0.0833
       6    H4      19.245460   17.881813   24.871143 H          1 MOL1         0.0833
       7    C3      18.724127   18.550746   22.872240 C.3        1 MOL1        -0.1684
       8    H5      18.490818   19.534441   23.295155 H          1 MOL1         0.0833
       9    H6      17.753495   18.039350   22.814839 H          1 MOL1         0.0833
      10    C4      19.280820   18.696331   21.430550 C.3        1 MOL1        -0.1760
      11    H7      19.973699   17.881241   21.189021 H          1 MOL1         0.0833
      12    H8      18.436862   18.571524   20.739197 H          1 MOL1         0.0833
      13    C5      19.924976   20.068908   21.112732 C.3        1 MOL1         0.1219
      14    H9      19.200400   20.854376   21.371595 H          1 MOL1         0.0790
      15    C6      21.261470   20.385362   21.830387 C.3        1 MOL1        -0.1760
      16    H10     22.011056   19.617544   21.602730 H          1 MOL1         0.0833
      17    H11     21.655364   21.312509   21.393822 H          1 MOL1         0.0833
      18    C7      21.143244   20.613739   23.361130 C.3        1 MOL1        -0.1684
      19    H12     20.127382   20.928392   23.625730 H          1 MOL1         0.0833
      20    H13     21.774997   21.471429   23.629980 H          1 MOL1         0.0833
      21    C8      21.591365   19.421848   24.245043 C.3        1 MOL1        -0.1684
      22    H14     21.266304   19.602565   25.278566 H          1 MOL1         0.0833
      23    H15     22.689537   19.420401   24.275113 H          1 MOL1         0.0833
      24    O1      20.166220   20.113971   19.711949 O.3        1 MOL1        -0.5508
      25    H16     20.509502   21.009792   19.512421 H          1 MOL1         0.3780
@<TRIPOS>BOND
    1     1     2    1
    2     1     3    1
    3     1     4    1
    4     4     5    1
    5     4     6    1
    6     4     7    1
    7     7     8    1
    8     7     9    1
    9     7    10    1
   10    10    11    1
   11    10    12    1
   12    10    13    1
   13    13    14    1
   14    13    15    1
   15    15    16    1
   16    15    17    1
   17    15    18    1
   18    18    19    1
   19    18    20    1
   20     1    21    1
   21    18    21    1
   22    21    22    1
   23    21    23    1
   24    13    24    1
   25    24    25    1
@<TRIPOS>SUBSTRUCTURE
       1 MOL1            1 RESIDUE      1      MOL     
@<SCITEGIC>MOL_PROPERTY
VConf Rank
SciTegic.value.IntegerValue
938

@<SCITEGIC>MOL_PROPERTY
Conf_Id
SciTegic.value.IntegerValue
24

@<SCITEGIC>MOL_PROPERTY
Delta U+W
SciTegic.value.DoubleValue
-1.236

@<SCITEGIC>MOL_PROPERTY
U+W
SciTegic.value.DoubleValue
9.678

@<SCITEGIC>MOL_PROPERTY
Grad RMS
SciTegic.value.DoubleValue
0.000000

@<SCITEGIC>MOL_PROPERTY
U
SciTegic.value.DoubleValue
11.876

@<SCITEGIC>MOL_PROPERTY
W
SciTegic.value.DoubleValue
-2.199

@<SCITEGIC>MOL_PROPERTY
W(PB)
SciTegic.value.DoubleValue
-4.335

@<SCITEGIC>MOL_PROPERTY
W(SA)
SciTegic.value.DoubleValue
2.137

@<SCITEGIC>MOL_PROPERTY
Valence
SciTegic.value.DoubleValue
17.153

@<SCITEGIC>MOL_PROPERTY
Coulomb
SciTegic.value.DoubleValue
-7.966

@<SCITEGIC>MOL_PROPERTY
VdW
SciTegic.value.DoubleValue
2.689

@<SCITEGIC>MOL_PROPERTY
VdW6
SciTegic.value.DoubleValue
-12.458

@<SCITEGIC>MOL_PROPERTY
VdW12
SciTegic.value.DoubleValue
15.147

@<SCITEGIC>MOL_PROPERTY
Bond
SciTegic.value.DoubleValue
0.421

@<SCITEGIC>MOL_PROPERTY
Angle
SciTegic.value.DoubleValue
5.258

@<SCITEGIC>MOL_PROPERTY
Pdih
SciTegic.value.DoubleValue
11.475

@<SCITEGIC>MOL_PROPERTY
Idih
SciTegic.value.DoubleValue
0.000

@<SCITEGIC>MOL_PROPERTY
Tether
SciTegic.value.DoubleValue
0.000

@<TRIPOS>MOLECULE
guest-s17_confgen4.mol2 : confsearch ligand conformer 939
          25          25           1
SMALL
USER_CHARGES
 
@<TRIPOS>ATOM
       1    C1      21.050188   17.215320   22.962365 C.3        1 MOL1        -0.1684
       2    H1      21.609938   16.664929   22.193907 H          1 MOL1         0.0833
       3    H2      20.956167   16.525747   23.812366 H          1 MOL1         0.0833
       4    C2      21.896307   18.431048   23.425278 C.3        1 MOL1        -0.1684
       5    H3      21.537929   18.805522   24.392557 H          1 MOL1         0.0833
       6    H4      22.908961   18.056657   23.628819 H          1 MOL1         0.0833
       7    C3      22.015173   19.600096   22.416389 C.3        1 MOL1        -0.1684
       8    H5      22.036081   19.224259   21.384514 H          1 MOL1         0.0833
       9    H6      22.999077   20.061675   22.577878 H          1 MOL1         0.0833
      10    C4      20.956034   20.726373   22.582683 C.3        1 MOL1        -0.1760
      11    H7      20.725360   20.892029   23.642789 H          1 MOL1         0.0833
      12    H8      21.429378   21.655089   22.235721 H          1 MOL1         0.0833
      13    C5      19.654658   20.526051   21.768206 C.3        1 MOL1         0.1219
      14    H9      19.891656   19.939443   20.870767 H          1 MOL1         0.0790
      15    C6      18.491067   19.845109   22.532524 C.3        1 MOL1        -0.1760
      16    H10     18.078185   20.547479   23.268443 H          1 MOL1         0.0833
      17    H11     17.685367   19.655670   21.811011 H          1 MOL1         0.0833
      18    C7      18.815382   18.516741   23.261152 C.3        1 MOL1        -0.1684
      19    H12     17.865673   18.044340   23.546893 H          1 MOL1         0.0833
      20    H13     19.318506   18.729651   24.211535 H          1 MOL1         0.0833
      21    C8      19.634126   17.512554   22.411081 C.3        1 MOL1        -0.1684
      22    H14     19.706998   17.844590   21.368921 H          1 MOL1         0.0833
      23    H15     19.083478   16.563201   22.362236 H          1 MOL1         0.0833
      24    O1      19.191165   21.801913   21.345054 O.3        1 MOL1        -0.5508
      25    H16     19.006009   22.313440   22.159320 H          1 MOL1         0.3780
@<TRIPOS>BOND
    1     1     2    1
    2     1     3    1
    3     1     4    1
    4     4     5    1
    5     4     6    1
    6     4     7    1
    7     7     8    1
    8     7     9    1
    9     7    10    1
   10    10    11    1
   11    10    12    1
   12    10    13    1
   13    13    14    1
   14    13    15    1
   15    15    16    1
   16    15    17    1
   17    15    18    1
   18    18    19    1
   19    18    20    1
   20     1    21    1
   21    18    21    1
   22    21    22    1
   23    21    23    1
   24    13    24    1
   25    24    25    1
@<TRIPOS>SUBSTRUCTURE
       1 MOL1            1 RESIDUE      1      MOL     
@<SCITEGIC>MOL_PROPERTY
VConf Rank
SciTegic.value.IntegerValue
939

@<SCITEGIC>MOL_PROPERTY
Conf_Id
SciTegic.value.IntegerValue
167

@<SCITEGIC>MOL_PROPERTY
Delta U+W
SciTegic.value.DoubleValue
0.388

@<SCITEGIC>MOL_PROPERTY
U+W
SciTegic.value.DoubleValue
11.301

@<SCITEGIC>MOL_PROPERTY
Grad RMS
SciTegic.value.DoubleValue
0.000000

@<SCITEGIC>MOL_PROPERTY
U
SciTegic.value.DoubleValue
13.202

@<SCITEGIC>MOL_PROPERTY
W
SciTegic.value.DoubleValue
-1.901

@<SCITEGIC>MOL_PROPERTY
W(PB)
SciTegic.value.DoubleValue
-4.065

@<SCITEGIC>MOL_PROPERTY
W(SA)
SciTegic.value.DoubleValue
2.163

@<SCITEGIC>MOL_PROPERTY
Valence
SciTegic.value.DoubleValue
18.957

@<SCITEGIC>MOL_PROPERTY
Coulomb
SciTegic.value.DoubleValue
-8.753

@<SCITEGIC>MOL_PROPERTY
VdW
SciTegic.value.DoubleValue
2.998

@<SCITEGIC>MOL_PROPERTY
VdW6
SciTegic.value.DoubleValue
-12.294

@<SCITEGIC>MOL_PROPERTY
VdW12
SciTegic.value.DoubleValue
15.292

@<SCITEGIC>MOL_PROPERTY
Bond
SciTegic.value.DoubleValue
0.419

@<SCITEGIC>MOL_PROPERTY
Angle
SciTegic.value.DoubleValue
4.543

@<SCITEGIC>MOL_PROPERTY
Pdih
SciTegic.value.DoubleValue
13.996

@<SCITEGIC>MOL_PROPERTY
Idih
SciTegic.value.DoubleValue
0.000

@<SCITEGIC>MOL_PROPERTY
Tether
SciTegic.value.DoubleValue
0.000

@<TRIPOS>MOLECULE
guest-s17_confgen4.mol2 : confsearch ligand conformer 940
          25          25           1
SMALL
USER_CHARGES
 
@<TRIPOS>ATOM
       1    C1      20.050034   19.541381   24.680243 C.3        1 MOL1        -0.1684
       2    H1      19.448160   18.853596   25.289507 H          1 MOL1         0.0833
       3    H2      20.434265   20.296806   25.379256 H          1 MOL1         0.0833
       4    C2      19.119804   20.262947   23.670630 C.3        1 MOL1        -0.1684
       5    H3      18.385789   19.564198   23.253766 H          1 MOL1         0.0833
       6    H4      18.517450   20.980710   24.244233 H          1 MOL1         0.0833
       7    C3      19.839796   21.037025   22.536056 C.3        1 MOL1        -0.1684
       8    H5      20.850264   21.336808   22.842415 H          1 MOL1         0.0833
       9    H6      19.295647   21.978891   22.382126 H          1 MOL1         0.0833
      10    C4      19.873767   20.304823   21.166759 C.3        1 MOL1        -0.1760
      11    H7      18.849685   20.051830   20.862631 H          1 MOL1         0.0833
      12    H8      20.236340   21.021542   20.417999 H          1 MOL1         0.0833
      13    C5      20.760944   19.038567   21.072318 C.3        1 MOL1         0.1219
      14    H9      21.776902   19.285946   21.408158 H          1 MOL1         0.0790
      15    C6      20.222567   17.826892   21.876507 C.3        1 MOL1        -0.1760
      16    H10     19.147218   17.937270   22.048888 H          1 MOL1         0.0833
      17    H11     20.308311   16.916462   21.268470 H          1 MOL1         0.0833
      18    C7      20.954181   17.552249   23.215938 C.3        1 MOL1        -0.1684
      19    H12     21.906670   17.055952   22.984855 H          1 MOL1         0.0833
      20    H13     20.372348   16.823975   23.797005 H          1 MOL1         0.0833
      21    C8      21.271357   18.780328   24.105933 C.3        1 MOL1        -0.1684
      22    H14     21.939953   19.473263   23.582512 H          1 MOL1         0.0833
      23    H15     21.861211   18.419876   24.959730 H          1 MOL1         0.0833
      24    O1      20.825793   18.668595   19.700065 O.3        1 MOL1        -0.5508
      25    H16     21.443556   17.909908   19.642797 H          1 MOL1         0.3780
@<TRIPOS>BOND
    1     1     2    1
    2     1     3    1
    3     1     4    1
    4     4     5    1
    5     4     6    1
    6     4     7    1
    7     7     8    1
    8     7     9    1
    9     7    10    1
   10    10    11    1
   11    10    12    1
   12    10    13    1
   13    13    14    1
   14    13    15    1
   15    15    16    1
   16    15    17    1
   17    15    18    1
   18    18    19    1
   19    18    20    1
   20     1    21    1
   21    18    21    1
   22    21    22    1
   23    21    23    1
   24    13    24    1
   25    24    25    1
@<TRIPOS>SUBSTRUCTURE
       1 MOL1            1 RESIDUE      1      MOL     
@<SCITEGIC>MOL_PROPERTY
VConf Rank
SciTegic.value.IntegerValue
940

@<SCITEGIC>MOL_PROPERTY
Conf_Id
SciTegic.value.IntegerValue
60

@<SCITEGIC>MOL_PROPERTY
Delta U+W
SciTegic.value.DoubleValue
-1.838

@<SCITEGIC>MOL_PROPERTY
U+W
SciTegic.value.DoubleValue
9.075

@<SCITEGIC>MOL_PROPERTY
Grad RMS
SciTegic.value.DoubleValue
0.000000

@<SCITEGIC>MOL_PROPERTY
U
SciTegic.value.DoubleValue
11.150

@<SCITEGIC>MOL_PROPERTY
W
SciTegic.value.DoubleValue
-2.074

@<SCITEGIC>MOL_PROPERTY
W(PB)
SciTegic.value.DoubleValue
-4.196

@<SCITEGIC>MOL_PROPERTY
W(SA)
SciTegic.value.DoubleValue
2.121

@<SCITEGIC>MOL_PROPERTY
Valence
SciTegic.value.DoubleValue
16.582

@<SCITEGIC>MOL_PROPERTY
Coulomb
SciTegic.value.DoubleValue
-8.361

@<SCITEGIC>MOL_PROPERTY
VdW
SciTegic.value.DoubleValue
2.928

@<SCITEGIC>MOL_PROPERTY
VdW6
SciTegic.value.DoubleValue
-12.539

@<SCITEGIC>MOL_PROPERTY
VdW12
SciTegic.value.DoubleValue
15.467

@<SCITEGIC>MOL_PROPERTY
Bond
SciTegic.value.DoubleValue
0.441

@<SCITEGIC>MOL_PROPERTY
Angle
SciTegic.value.DoubleValue
5.093

@<SCITEGIC>MOL_PROPERTY
Pdih
SciTegic.value.DoubleValue
11.049

@<SCITEGIC>MOL_PROPERTY
Idih
SciTegic.value.DoubleValue
0.000

@<SCITEGIC>MOL_PROPERTY
Tether
SciTegic.value.DoubleValue
0.000

@<TRIPOS>MOLECULE
guest-s17_confgen4.mol2 : confsearch ligand conformer 941
          25          25           1
SMALL
USER_CHARGES
 
@<TRIPOS>ATOM
       1    C1      20.518834   21.054052   21.794712 C.3        1 MOL1        -0.1684
       2    H1      21.439724   21.641855   21.908529 H          1 MOL1         0.0833
       3    H2      19.837583   21.682688   21.205109 H          1 MOL1         0.0833
       4    C2      19.868771   20.847772   23.185945 C.3        1 MOL1        -0.1684
       5    H3      19.632459   21.843355   23.585687 H          1 MOL1         0.0833
       6    H4      18.895445   20.354839   23.082014 H          1 MOL1         0.0833
       7    C3      20.736763   20.122161   24.244693 C.3        1 MOL1        -0.1684
       8    H5      20.192620   20.155872   25.198483 H          1 MOL1         0.0833
       9    H6      21.660834   20.692861   24.408846 H          1 MOL1         0.0833
      10    C4      21.103288   18.643077   23.957064 C.3        1 MOL1        -0.1760
      11    H7      21.955514   18.591182   23.272014 H          1 MOL1         0.0833
      12    H8      21.482029   18.215384   24.894921 H          1 MOL1         0.0833
      13    C5      19.937054   17.770690   23.424559 C.3        1 MOL1         0.1219
      14    H9      18.976903   18.246850   23.664423 H          1 MOL1         0.0790
      15    C6      19.998701   17.493643   21.901782 C.3        1 MOL1        -0.1760
      16    H10     20.970987   17.047607   21.654893 H          1 MOL1         0.0833
      17    H11     19.252282   16.721203   21.673790 H          1 MOL1         0.0833
      18    C7      19.728255   18.697343   20.958270 C.3        1 MOL1        -0.1684
      19    H12     18.742116   19.135505   21.159051 H          1 MOL1         0.0833
      20    H13     19.661107   18.295664   19.937951 H          1 MOL1         0.0833
      21    C8      20.832660   19.785982   20.958757 C.3        1 MOL1        -0.1684
      22    H14     20.988279   20.114388   19.921951 H          1 MOL1         0.0833
      23    H15     21.796136   19.356269   21.255176 H          1 MOL1         0.0833
      24    O1      19.984766   16.511986   24.086036 O.3        1 MOL1        -0.5508
      25    H16     19.875604   16.693461   25.042940 H          1 MOL1         0.3780
@<TRIPOS>BOND
    1     1     2    1
    2     1     3    1
    3     1     4    1
    4     4     5    1
    5     4     6    1
    6     4     7    1
    7     7     8    1
    8     7     9    1
    9     7    10    1
   10    10    11    1
   11    10    12    1
   12    10    13    1
   13    13    14    1
   14    13    15    1
   15    15    16    1
   16    15    17    1
   17    15    18    1
   18    18    19    1
   19    18    20    1
   20     1    21    1
   21    18    21    1
   22    21    22    1
   23    21    23    1
   24    13    24    1
   25    24    25    1
@<TRIPOS>SUBSTRUCTURE
       1 MOL1            1 RESIDUE      1      MOL     
@<SCITEGIC>MOL_PROPERTY
VConf Rank
SciTegic.value.IntegerValue
941

@<SCITEGIC>MOL_PROPERTY
Conf_Id
SciTegic.value.IntegerValue
129

@<SCITEGIC>MOL_PROPERTY
Delta U+W
SciTegic.value.DoubleValue
-1.846

@<SCITEGIC>MOL_PROPERTY
U+W
SciTegic.value.DoubleValue
9.067

@<SCITEGIC>MOL_PROPERTY
Grad RMS
SciTegic.value.DoubleValue
0.000000

@<SCITEGIC>MOL_PROPERTY
U
SciTegic.value.DoubleValue
11.150

@<SCITEGIC>MOL_PROPERTY
W
SciTegic.value.DoubleValue
-2.083

@<SCITEGIC>MOL_PROPERTY
W(PB)
SciTegic.value.DoubleValue
-4.217

@<SCITEGIC>MOL_PROPERTY
W(SA)
SciTegic.value.DoubleValue
2.134

@<SCITEGIC>MOL_PROPERTY
Valence
SciTegic.value.DoubleValue
16.583

@<SCITEGIC>MOL_PROPERTY
Coulomb
SciTegic.value.DoubleValue
-8.361

@<SCITEGIC>MOL_PROPERTY
VdW
SciTegic.value.DoubleValue
2.928

@<SCITEGIC>MOL_PROPERTY
VdW6
SciTegic.value.DoubleValue
-12.539

@<SCITEGIC>MOL_PROPERTY
VdW12
SciTegic.value.DoubleValue
15.467

@<SCITEGIC>MOL_PROPERTY
Bond
SciTegic.value.DoubleValue
0.441

@<SCITEGIC>MOL_PROPERTY
Angle
SciTegic.value.DoubleValue
5.093

@<SCITEGIC>MOL_PROPERTY
Pdih
SciTegic.value.DoubleValue
11.049

@<SCITEGIC>MOL_PROPERTY
Idih
SciTegic.value.DoubleValue
0.000

@<SCITEGIC>MOL_PROPERTY
Tether
SciTegic.value.DoubleValue
0.000

@<TRIPOS>MOLECULE
guest-s17_confgen4.mol2 : confsearch ligand conformer 942
          25          25           1
SMALL
USER_CHARGES
 
@<TRIPOS>ATOM
       1    C1      21.477870   20.871246   22.443643 C.3        1 MOL1        -0.1684
       2    H1      21.122379   21.870120   22.730664 H          1 MOL1         0.0833
       3    H2      22.507133   21.014412   22.087215 H          1 MOL1         0.0833
       4    C2      20.641659   20.355397   21.245784 C.3        1 MOL1        -0.1684
       5    H3      20.791471   21.060136   20.416504 H          1 MOL1         0.0833
       6    H4      21.048017   19.406488   20.877481 H          1 MOL1         0.0833
       7    C3      19.114496   20.238823   21.479128 C.3        1 MOL1        -0.1684
       8    H5      18.652415   19.976897   20.517397 H          1 MOL1         0.0833
       9    H6      18.711387   21.225625   21.744122 H          1 MOL1         0.0833
      10    C4      18.640747   19.202193   22.530905 C.3        1 MOL1        -0.1760
      11    H7      18.721283   19.622700   23.538489 H          1 MOL1         0.0833
      12    H8      17.562739   19.059294   22.375679 H          1 MOL1         0.0833
      13    C5      19.353471   17.826647   22.464019 C.3        1 MOL1         0.1219
      14    H9      19.812293   17.695267   21.475034 H          1 MOL1         0.0790
      15    C6      20.429230   17.612963   23.558543 C.3        1 MOL1        -0.1760
      16    H10     19.981096   17.773404   24.547810 H          1 MOL1         0.0833
      17    H11     20.725076   16.555573   23.533337 H          1 MOL1         0.0833
      18    C7      21.725269   18.460238   23.442662 C.3        1 MOL1        -0.1684
      19    H12     22.219224   18.286688   22.477944 H          1 MOL1         0.0833
      20    H13     22.426905   18.077639   24.196513 H          1 MOL1         0.0833
      21    C8      21.536642   19.976244   23.708541 C.3        1 MOL1        -0.1684
      22    H14     22.386280   20.325520   24.311179 H          1 MOL1         0.0833
      23    H15     20.661855   20.149603   24.345325 H          1 MOL1         0.0833
      24    O1      18.373444   16.809912   22.631236 O.3        1 MOL1        -0.5508
      25    H16     17.982989   16.945385   23.519006 H          1 MOL1         0.3780
@<TRIPOS>BOND
    1     1     2    1
    2     1     3    1
    3     1     4    1
    4     4     5    1
    5     4     6    1
    6     4     7    1
    7     7     8    1
    8     7     9    1
    9     7    10    1
   10    10    11    1
   11    10    12    1
   12    10    13    1
   13    13    14    1
   14    13    15    1
   15    15    16    1
   16    15    17    1
   17    15    18    1
   18    18    19    1
   19    18    20    1
   20     1    21    1
   21    18    21    1
   22    21    22    1
   23    21    23    1
   24    13    24    1
   25    24    25    1
@<TRIPOS>SUBSTRUCTURE
       1 MOL1            1 RESIDUE      1      MOL     
@<SCITEGIC>MOL_PROPERTY
VConf Rank
SciTegic.value.IntegerValue
942

@<SCITEGIC>MOL_PROPERTY
Conf_Id
SciTegic.value.IntegerValue
140

@<SCITEGIC>MOL_PROPERTY
Delta U+W
SciTegic.value.DoubleValue
-1.702

@<SCITEGIC>MOL_PROPERTY
U+W
SciTegic.value.DoubleValue
9.211

@<SCITEGIC>MOL_PROPERTY
Grad RMS
SciTegic.value.DoubleValue
0.000000

@<SCITEGIC>MOL_PROPERTY
U
SciTegic.value.DoubleValue
11.181

@<SCITEGIC>MOL_PROPERTY
W
SciTegic.value.DoubleValue
-1.969

@<SCITEGIC>MOL_PROPERTY
W(PB)
SciTegic.value.DoubleValue
-4.093

@<SCITEGIC>MOL_PROPERTY
W(SA)
SciTegic.value.DoubleValue
2.124

@<SCITEGIC>MOL_PROPERTY
Valence
SciTegic.value.DoubleValue
16.954

@<SCITEGIC>MOL_PROPERTY
Coulomb
SciTegic.value.DoubleValue
-8.661

@<SCITEGIC>MOL_PROPERTY
VdW
SciTegic.value.DoubleValue
2.887

@<SCITEGIC>MOL_PROPERTY
VdW6
SciTegic.value.DoubleValue
-12.561

@<SCITEGIC>MOL_PROPERTY
VdW12
SciTegic.value.DoubleValue
15.448

@<SCITEGIC>MOL_PROPERTY
Bond
SciTegic.value.DoubleValue
0.433

@<SCITEGIC>MOL_PROPERTY
Angle
SciTegic.value.DoubleValue
5.120

@<SCITEGIC>MOL_PROPERTY
Pdih
SciTegic.value.DoubleValue
11.401

@<SCITEGIC>MOL_PROPERTY
Idih
SciTegic.value.DoubleValue
0.000

@<SCITEGIC>MOL_PROPERTY
Tether
SciTegic.value.DoubleValue
0.000

@<TRIPOS>MOLECULE
guest-s17_confgen4.mol2 : confsearch ligand conformer 943
          25          25           1
SMALL
USER_CHARGES
 
@<TRIPOS>ATOM
       1    C1      19.660818   19.028479   20.685769 C.3        1 MOL1        -0.1684
       2    H1      19.211376   18.101162   20.305513 H          1 MOL1         0.0833
       3    H2      19.678862   19.720288   19.832543 H          1 MOL1         0.0833
       4    C2      21.129475   18.744309   21.094106 C.3        1 MOL1        -0.1684
       5    H3      21.208394   17.777697   21.604240 H          1 MOL1         0.0833
       6    H4      21.701822   18.610465   20.165905 H          1 MOL1         0.0833
       7    C3      21.815725   19.857721   21.927126 C.3        1 MOL1        -0.1684
       8    H5      21.351543   20.834524   21.739542 H          1 MOL1         0.0833
       9    H6      22.846945   19.955736   21.561145 H          1 MOL1         0.0833
      10    C4      21.900958   19.571552   23.450890 C.3        1 MOL1        -0.1760
      11    H7      22.407245   18.610401   23.609246 H          1 MOL1         0.0833
      12    H8      22.560155   20.331708   23.891183 H          1 MOL1         0.0833
      13    C5      20.568578   19.589309   24.241674 C.3        1 MOL1         0.1219
      14    H9      20.050544   20.539728   24.056694 H          1 MOL1         0.0790
      15    C6      19.620153   18.405716   23.918923 C.3        1 MOL1        -0.1760
      16    H10     20.187984   17.566729   23.503942 H          1 MOL1         0.0833
      17    H11     19.195127   18.016950   24.854246 H          1 MOL1         0.0833
      18    C7      18.426818   18.754696   22.991866 C.3        1 MOL1        -0.1684
      19    H12     17.671938   19.274926   23.597313 H          1 MOL1         0.0833
      20    H13     17.950217   17.823130   22.657897 H          1 MOL1         0.0833
      21    C8      18.730430   19.644546   21.760502 C.3        1 MOL1        -0.1684
      22    H14     19.109043   20.623130   22.077088 H          1 MOL1         0.0833
      23    H15     17.770781   19.864450   21.273142 H          1 MOL1         0.0833
      24    O1      20.897356   19.530957   25.623940 O.3        1 MOL1        -0.5508
      25    H16     21.360454   18.679307   25.762413 H          1 MOL1         0.3780
@<TRIPOS>BOND
    1     1     2    1
    2     1     3    1
    3     1     4    1
    4     4     5    1
    5     4     6    1
    6     4     7    1
    7     7     8    1
    8     7     9    1
    9     7    10    1
   10    10    11    1
   11    10    12    1
   12    10    13    1
   13    13    14    1
   14    13    15    1
   15    15    16    1
   16    15    17    1
   17    15    18    1
   18    18    19    1
   19    18    20    1
   20     1    21    1
   21    18    21    1
   22    21    22    1
   23    21    23    1
   24    13    24    1
   25    24    25    1
@<TRIPOS>SUBSTRUCTURE
       1 MOL1            1 RESIDUE      1      MOL     
@<SCITEGIC>MOL_PROPERTY
VConf Rank
SciTegic.value.IntegerValue
943

@<SCITEGIC>MOL_PROPERTY
Conf_Id
SciTegic.value.IntegerValue
68

@<SCITEGIC>MOL_PROPERTY
Delta U+W
SciTegic.value.DoubleValue
-1.765

@<SCITEGIC>MOL_PROPERTY
U+W
SciTegic.value.DoubleValue
9.148

@<SCITEGIC>MOL_PROPERTY
Grad RMS
SciTegic.value.DoubleValue
0.000000

@<SCITEGIC>MOL_PROPERTY
U
SciTegic.value.DoubleValue
11.181

@<SCITEGIC>MOL_PROPERTY
W
SciTegic.value.DoubleValue
-2.032

@<SCITEGIC>MOL_PROPERTY
W(PB)
SciTegic.value.DoubleValue
-4.147

@<SCITEGIC>MOL_PROPERTY
W(SA)
SciTegic.value.DoubleValue
2.114

@<SCITEGIC>MOL_PROPERTY
Valence
SciTegic.value.DoubleValue
16.955

@<SCITEGIC>MOL_PROPERTY
Coulomb
SciTegic.value.DoubleValue
-8.661

@<SCITEGIC>MOL_PROPERTY
VdW
SciTegic.value.DoubleValue
2.887

@<SCITEGIC>MOL_PROPERTY
VdW6
SciTegic.value.DoubleValue
-12.561

@<SCITEGIC>MOL_PROPERTY
VdW12
SciTegic.value.DoubleValue
15.448

@<SCITEGIC>MOL_PROPERTY
Bond
SciTegic.value.DoubleValue
0.433

@<SCITEGIC>MOL_PROPERTY
Angle
SciTegic.value.DoubleValue
5.121

@<SCITEGIC>MOL_PROPERTY
Pdih
SciTegic.value.DoubleValue
11.402

@<SCITEGIC>MOL_PROPERTY
Idih
SciTegic.value.DoubleValue
0.000

@<SCITEGIC>MOL_PROPERTY
Tether
SciTegic.value.DoubleValue
0.000

@<TRIPOS>MOLECULE
guest-s17_confgen4.mol2 : confsearch ligand conformer 944
          25          25           1
SMALL
USER_CHARGES
 
@<TRIPOS>ATOM
       1    C1      21.789987   20.218558   22.835803 C.3        1 MOL1        -0.1684
       2    H1      22.749290   20.729376   22.996671 H          1 MOL1         0.0833
       3    H2      21.096467   21.022793   22.565383 H          1 MOL1         0.0833
       4    C2      21.365725   19.559427   24.174030 C.3        1 MOL1        -0.1684
       5    H3      21.681167   18.508994   24.215261 H          1 MOL1         0.0833
       6    H4      21.924248   20.057071   24.978654 H          1 MOL1         0.0833
       7    C3      19.859184   19.695681   24.518082 C.3        1 MOL1        -0.1684
       8    H5      19.579875   20.758253   24.517078 H          1 MOL1         0.0833
       9    H6      19.721529   19.356270   25.553786 H          1 MOL1         0.0833
      10    C4      18.866421   18.903812   23.625939 C.3        1 MOL1        -0.1760
      11    H7      19.111427   17.834991   23.638253 H          1 MOL1         0.0833
      12    H8      17.881151   18.979256   24.105691 H          1 MOL1         0.0833
      13    C5      18.749654   19.428918   22.171457 C.3        1 MOL1         0.1219
      14    H9      19.117985   20.460628   22.133376 H          1 MOL1         0.0790
      15    C6      19.500044   18.582435   21.113900 C.3        1 MOL1        -0.1760
      16    H10     18.908006   17.681754   20.904521 H          1 MOL1         0.0833
      17    H11     19.528488   19.148525   20.173785 H          1 MOL1         0.0833
      18    C7      20.937085   18.119594   21.467107 C.3        1 MOL1        -0.1684
      19    H12     21.283670   17.475209   20.647736 H          1 MOL1         0.0833
      20    H13     20.923978   17.465465   22.346454 H          1 MOL1         0.0833
      21    C8      21.989100   19.242521   21.647213 C.3        1 MOL1        -0.1684
      22    H14     22.063665   19.823188   20.717777 H          1 MOL1         0.0833
      23    H15     22.967098   18.757995   21.772723 H          1 MOL1         0.0833
      24    O1      17.375313   19.448879   21.806117 O.3        1 MOL1        -0.5508
      25    H16     17.060043   18.523542   21.863080 H          1 MOL1         0.3780
@<TRIPOS>BOND
    1     1     2    1
    2     1     3    1
    3     1     4    1
    4     4     5    1
    5     4     6    1
    6     4     7    1
    7     7     8    1
    8     7     9    1
    9     7    10    1
   10    10    11    1
   11    10    12    1
   12    10    13    1
   13    13    14    1
   14    13    15    1
   15    15    16    1
   16    15    17    1
   17    15    18    1
   18    18    19    1
   19    18    20    1
   20     1    21    1
   21    18    21    1
   22    21    22    1
   23    21    23    1
   24    13    24    1
   25    24    25    1
@<TRIPOS>SUBSTRUCTURE
       1 MOL1            1 RESIDUE      1      MOL     
@<SCITEGIC>MOL_PROPERTY
VConf Rank
SciTegic.value.IntegerValue
944

@<SCITEGIC>MOL_PROPERTY
Conf_Id
SciTegic.value.IntegerValue
165

@<SCITEGIC>MOL_PROPERTY
Delta U+W
SciTegic.value.DoubleValue
-1.999

@<SCITEGIC>MOL_PROPERTY
U+W
SciTegic.value.DoubleValue
8.915

@<SCITEGIC>MOL_PROPERTY
Grad RMS
SciTegic.value.DoubleValue
0.000000

@<SCITEGIC>MOL_PROPERTY
U
SciTegic.value.DoubleValue
10.935

@<SCITEGIC>MOL_PROPERTY
W
SciTegic.value.DoubleValue
-2.020

@<SCITEGIC>MOL_PROPERTY
W(PB)
SciTegic.value.DoubleValue
-4.135

@<SCITEGIC>MOL_PROPERTY
W(SA)
SciTegic.value.DoubleValue
2.115

@<SCITEGIC>MOL_PROPERTY
Valence
SciTegic.value.DoubleValue
16.757

@<SCITEGIC>MOL_PROPERTY
Coulomb
SciTegic.value.DoubleValue
-8.731

@<SCITEGIC>MOL_PROPERTY
VdW
SciTegic.value.DoubleValue
2.908

@<SCITEGIC>MOL_PROPERTY
VdW6
SciTegic.value.DoubleValue
-12.597

@<SCITEGIC>MOL_PROPERTY
VdW12
SciTegic.value.DoubleValue
15.506

@<SCITEGIC>MOL_PROPERTY
Bond
SciTegic.value.DoubleValue
0.434

@<SCITEGIC>MOL_PROPERTY
Angle
SciTegic.value.DoubleValue
5.069

@<SCITEGIC>MOL_PROPERTY
Pdih
SciTegic.value.DoubleValue
11.254

@<SCITEGIC>MOL_PROPERTY
Idih
SciTegic.value.DoubleValue
0.000

@<SCITEGIC>MOL_PROPERTY
Tether
SciTegic.value.DoubleValue
0.000

@<TRIPOS>MOLECULE
guest-s17_confgen4.mol2 : confsearch ligand conformer 945
          25          25           1
SMALL
USER_CHARGES
 
@<TRIPOS>ATOM
       1    C1      18.918862   19.977056   23.551325 C.3        1 MOL1        -0.1684
       2    H1      18.031001   20.402483   24.038972 H          1 MOL1         0.0833
       3    H2      19.762879   20.407771   24.101709 H          1 MOL1         0.0833
       4    C2      18.910705   20.472778   22.081752 C.3        1 MOL1        -0.1684
       5    H3      17.877118   20.411677   21.714368 H          1 MOL1         0.0833
       6    H4      19.168225   21.540457   22.064029 H          1 MOL1         0.0833
       7    C3      19.805370   19.712416   21.070929 C.3        1 MOL1        -0.1684
       8    H5      19.602481   20.130080   20.075393 H          1 MOL1         0.0833
       9    H6      19.493303   18.664179   20.999465 H          1 MOL1         0.0833
      10    C4      21.334614   19.807583   21.308387 C.3        1 MOL1        -0.1760
      11    H7      21.830177   19.316909   20.459758 H          1 MOL1         0.0833
      12    H8      21.635015   20.862409   21.265741 H          1 MOL1         0.0833
      13    C5      21.886933   19.187395   22.615319 C.3        1 MOL1         0.1219
      14    H9      21.686477   19.867603   23.451377 H          1 MOL1         0.0790
      15    C6      21.316127   17.786992   22.957716 C.3        1 MOL1        -0.1760
      16    H10     20.933990   17.290526   22.057932 H          1 MOL1         0.0833
      17    H11     22.141763   17.151545   23.305659 H          1 MOL1         0.0833
      18    C7      20.241679   17.784656   24.077782 C.3        1 MOL1        -0.1684
      19    H12     20.655804   18.257795   24.978685 H          1 MOL1         0.0833
      20    H13     20.051150   16.739059   24.355628 H          1 MOL1         0.0833
      21    C8      18.876780   18.437546   23.734778 C.3        1 MOL1        -0.1684
      22    H14     18.199725   18.223421   24.573085 H          1 MOL1         0.0833
      23    H15     18.418570   17.948042   22.865848 H          1 MOL1         0.0833
      24    O1      23.298511   19.077115   22.471091 O.3        1 MOL1        -0.5508
      25    H16     23.636280   19.981095   22.300294 H          1 MOL1         0.3780
@<TRIPOS>BOND
    1     1     2    1
    2     1     3    1
    3     1     4    1
    4     4     5    1
    5     4     6    1
    6     4     7    1
    7     7     8    1
    8     7     9    1
    9     7    10    1
   10    10    11    1
   11    10    12    1
   12    10    13    1
   13    13    14    1
   14    13    15    1
   15    15    16    1
   16    15    17    1
   17    15    18    1
   18    18    19    1
   19    18    20    1
   20     1    21    1
   21    18    21    1
   22    21    22    1
   23    21    23    1
   24    13    24    1
   25    24    25    1
@<TRIPOS>SUBSTRUCTURE
       1 MOL1            1 RESIDUE      1      MOL     
@<SCITEGIC>MOL_PROPERTY
VConf Rank
SciTegic.value.IntegerValue
945

@<SCITEGIC>MOL_PROPERTY
Conf_Id
SciTegic.value.IntegerValue
133

@<SCITEGIC>MOL_PROPERTY
Delta U+W
SciTegic.value.DoubleValue
-2.139

@<SCITEGIC>MOL_PROPERTY
U+W
SciTegic.value.DoubleValue
8.774

@<SCITEGIC>MOL_PROPERTY
Grad RMS
SciTegic.value.DoubleValue
0.000000

@<SCITEGIC>MOL_PROPERTY
U
SciTegic.value.DoubleValue
10.905

@<SCITEGIC>MOL_PROPERTY
W
SciTegic.value.DoubleValue
-2.131

@<SCITEGIC>MOL_PROPERTY
W(PB)
SciTegic.value.DoubleValue
-4.281

@<SCITEGIC>MOL_PROPERTY
W(SA)
SciTegic.value.DoubleValue
2.150

@<SCITEGIC>MOL_PROPERTY
Valence
SciTegic.value.DoubleValue
16.378

@<SCITEGIC>MOL_PROPERTY
Coulomb
SciTegic.value.DoubleValue
-8.448

@<SCITEGIC>MOL_PROPERTY
VdW
SciTegic.value.DoubleValue
2.976

@<SCITEGIC>MOL_PROPERTY
VdW6
SciTegic.value.DoubleValue
-12.570

@<SCITEGIC>MOL_PROPERTY
VdW12
SciTegic.value.DoubleValue
15.545

@<SCITEGIC>MOL_PROPERTY
Bond
SciTegic.value.DoubleValue
0.439

@<SCITEGIC>MOL_PROPERTY
Angle
SciTegic.value.DoubleValue
5.049

@<SCITEGIC>MOL_PROPERTY
Pdih
SciTegic.value.DoubleValue
10.889

@<SCITEGIC>MOL_PROPERTY
Idih
SciTegic.value.DoubleValue
0.000

@<SCITEGIC>MOL_PROPERTY
Tether
SciTegic.value.DoubleValue
0.000

@<TRIPOS>MOLECULE
guest-s17_confgen4.mol2 : confsearch ligand conformer 946
          25          25           1
SMALL
USER_CHARGES
 
@<TRIPOS>ATOM
       1    C1      19.042070   20.287769   21.819695 C.3        1 MOL1        -0.1684
       2    H1      18.243402   20.907799   21.389837 H          1 MOL1         0.0833
       3    H2      19.753781   20.154143   20.997250 H          1 MOL1         0.0833
       4    C2      18.424177   18.926497   22.232818 C.3        1 MOL1        -0.1684
       5    H3      18.136859   18.927719   23.292089 H          1 MOL1         0.0833
       6    H4      17.481034   18.811154   21.681287 H          1 MOL1         0.0833
       7    C3      19.296590   17.687331   21.900799 C.3        1 MOL1        -0.1684
       8    H5      19.529030   17.682446   20.827051 H          1 MOL1         0.0833
       9    H6      18.684060   16.791900   22.073376 H          1 MOL1         0.0833
      10    C4      20.610646   17.523350   22.710342 C.3        1 MOL1        -0.1760
      11    H7      20.398187   17.494057   23.785573 H          1 MOL1         0.0833
      12    H8      21.011260   16.528937   22.471212 H          1 MOL1         0.0833
      13    C5      21.699995   18.579662   22.391429 C.3        1 MOL1         0.1219
      14    H9      21.481002   19.034107   21.418094 H          1 MOL1         0.0790
      15    C6      21.847749   19.695649   23.454673 C.3        1 MOL1        -0.1760
      16    H10     22.395444   19.281982   24.312243 H          1 MOL1         0.0833
      17    H11     22.483882   20.490223   23.043936 H          1 MOL1         0.0833
      18    C7      20.542706   20.330704   24.000196 C.3        1 MOL1        -0.1684
      19    H12     20.829023   21.040183   24.788461 H          1 MOL1         0.0833
      20    H13     19.935668   19.576794   24.514410 H          1 MOL1         0.0833
      21    C8      19.681128   21.105846   22.972002 C.3        1 MOL1        -0.1684
      22    H14     20.275651   21.923302   22.542029 H          1 MOL1         0.0833
      23    H15     18.867556   21.592252   23.527444 H          1 MOL1         0.0833
      24    O1      22.955883   17.917653   22.291433 O.3        1 MOL1        -0.5508
      25    H16     23.615589   18.599455   22.045723 H          1 MOL1         0.3780
@<TRIPOS>BOND
    1     1     2    1
    2     1     3    1
    3     1     4    1
    4     4     5    1
    5     4     6    1
    6     4     7    1
    7     7     8    1
    8     7     9    1
    9     7    10    1
   10    10    11    1
   11    10    12    1
   12    10    13    1
   13    13    14    1
   14    13    15    1
   15    15    16    1
   16    15    17    1
   17    15    18    1
   18    18    19    1
   19    18    20    1
   20     1    21    1
   21    18    21    1
   22    21    22    1
   23    21    23    1
   24    13    24    1
   25    24    25    1
@<TRIPOS>SUBSTRUCTURE
       1 MOL1            1 RESIDUE      1      MOL     
@<SCITEGIC>MOL_PROPERTY
VConf Rank
SciTegic.value.IntegerValue
946

@<SCITEGIC>MOL_PROPERTY
Conf_Id
SciTegic.value.IntegerValue
95

@<SCITEGIC>MOL_PROPERTY
Delta U+W
SciTegic.value.DoubleValue
-2.190

@<SCITEGIC>MOL_PROPERTY
U+W
SciTegic.value.DoubleValue
8.723

@<SCITEGIC>MOL_PROPERTY
Grad RMS
SciTegic.value.DoubleValue
0.000000

@<SCITEGIC>MOL_PROPERTY
U
SciTegic.value.DoubleValue
10.905

@<SCITEGIC>MOL_PROPERTY
W
SciTegic.value.DoubleValue
-2.182

@<SCITEGIC>MOL_PROPERTY
W(PB)
SciTegic.value.DoubleValue
-4.296

@<SCITEGIC>MOL_PROPERTY
W(SA)
SciTegic.value.DoubleValue
2.114

@<SCITEGIC>MOL_PROPERTY
Valence
SciTegic.value.DoubleValue
16.377

@<SCITEGIC>MOL_PROPERTY
Coulomb
SciTegic.value.DoubleValue
-8.448

@<SCITEGIC>MOL_PROPERTY
VdW
SciTegic.value.DoubleValue
2.976

@<SCITEGIC>MOL_PROPERTY
VdW6
SciTegic.value.DoubleValue
-12.570

@<SCITEGIC>MOL_PROPERTY
VdW12
SciTegic.value.DoubleValue
15.546

@<SCITEGIC>MOL_PROPERTY
Bond
SciTegic.value.DoubleValue
0.439

@<SCITEGIC>MOL_PROPERTY
Angle
SciTegic.value.DoubleValue
5.049

@<SCITEGIC>MOL_PROPERTY
Pdih
SciTegic.value.DoubleValue
10.889

@<SCITEGIC>MOL_PROPERTY
Idih
SciTegic.value.DoubleValue
0.000

@<SCITEGIC>MOL_PROPERTY
Tether
SciTegic.value.DoubleValue
0.000

@<TRIPOS>MOLECULE
guest-s17_confgen4.mol2 : confsearch ligand conformer 947
          25          25           1
SMALL
USER_CHARGES
 
@<TRIPOS>ATOM
       1    C1      18.996475   17.926141   22.348584 C.3        1 MOL1        -0.1684
       2    H1      18.171754   17.252298   22.079006 H          1 MOL1         0.0833
       3    H2      19.317878   17.555236   23.327034 H          1 MOL1         0.0833
       4    C2      18.395139   19.357575   22.465246 C.3        1 MOL1        -0.1684
       5    H3      17.603751   19.443289   21.708080 H          1 MOL1         0.0833
       6    H4      17.884354   19.451773   23.433077 H          1 MOL1         0.0833
       7    C3      19.342775   20.569494   22.265913 C.3        1 MOL1        -0.1684
       8    H5      18.725033   21.477906   22.265155 H          1 MOL1         0.0833
       9    H6      19.757434   20.541361   21.253344 H          1 MOL1         0.0833
      10    C4      20.468999   20.781133   23.321066 C.3        1 MOL1        -0.1760
      11    H7      21.253741   21.410328   22.880990 H          1 MOL1         0.0833
      12    H8      20.036546   21.373733   24.137811 H          1 MOL1         0.0833
      13    C5      21.122132   19.528550   23.958362 C.3        1 MOL1         0.1219
      14    H9      20.331331   18.937160   24.431340 H          1 MOL1         0.0790
      15    C6      21.962399   18.616582   23.018757 C.3        1 MOL1        -0.1760
      16    H10     22.982283   19.022125   22.977715 H          1 MOL1         0.0833
      17    H11     22.056112   17.629895   23.489877 H          1 MOL1         0.0833
      18    C7      21.491709   18.431487   21.550694 C.3        1 MOL1        -0.1684
      19    H12     22.262441   17.850610   21.026036 H          1 MOL1         0.0833
      20    H13     21.509723   19.399660   21.040413 H          1 MOL1         0.0833
      21    C8      20.133875   17.707027   21.316281 C.3        1 MOL1        -0.1684
      22    H14     20.337678   16.627869   21.288896 H          1 MOL1         0.0833
      23    H15     19.764864   17.960192   20.313194 H          1 MOL1         0.0833
      24    O1      21.987547   19.980591   24.993413 O.3        1 MOL1        -0.5508
      25    H16     21.437109   20.499934   25.615794 H          1 MOL1         0.3780
@<TRIPOS>BOND
    1     1     2    1
    2     1     3    1
    3     1     4    1
    4     4     5    1
    5     4     6    1
    6     4     7    1
    7     7     8    1
    8     7     9    1
    9     7    10    1
   10    10    11    1
   11    10    12    1
   12    10    13    1
   13    13    14    1
   14    13    15    1
   15    15    16    1
   16    15    17    1
   17    15    18    1
   18    18    19    1
   19    18    20    1
   20     1    21    1
   21    18    21    1
   22    21    22    1
   23    21    23    1
   24    13    24    1
   25    24    25    1
@<TRIPOS>SUBSTRUCTURE
       1 MOL1            1 RESIDUE      1      MOL     
@<SCITEGIC>MOL_PROPERTY
VConf Rank
SciTegic.value.IntegerValue
947

@<SCITEGIC>MOL_PROPERTY
Conf_Id
SciTegic.value.IntegerValue
161

@<SCITEGIC>MOL_PROPERTY
Delta U+W
SciTegic.value.DoubleValue
2.120

@<SCITEGIC>MOL_PROPERTY
U+W
SciTegic.value.DoubleValue
13.033

@<SCITEGIC>MOL_PROPERTY
Grad RMS
SciTegic.value.DoubleValue
0.000000

@<SCITEGIC>MOL_PROPERTY
U
SciTegic.value.DoubleValue
15.076

@<SCITEGIC>MOL_PROPERTY
W
SciTegic.value.DoubleValue
-2.043

@<SCITEGIC>MOL_PROPERTY
W(PB)
SciTegic.value.DoubleValue
-4.186

@<SCITEGIC>MOL_PROPERTY
W(SA)
SciTegic.value.DoubleValue
2.143

@<SCITEGIC>MOL_PROPERTY
Valence
SciTegic.value.DoubleValue
18.884

@<SCITEGIC>MOL_PROPERTY
Coulomb
SciTegic.value.DoubleValue
-8.074

@<SCITEGIC>MOL_PROPERTY
VdW
SciTegic.value.DoubleValue
4.266

@<SCITEGIC>MOL_PROPERTY
VdW6
SciTegic.value.DoubleValue
-13.486

@<SCITEGIC>MOL_PROPERTY
VdW12
SciTegic.value.DoubleValue
17.752

@<SCITEGIC>MOL_PROPERTY
Bond
SciTegic.value.DoubleValue
0.713

@<SCITEGIC>MOL_PROPERTY
Angle
SciTegic.value.DoubleValue
8.955

@<SCITEGIC>MOL_PROPERTY
Pdih
SciTegic.value.DoubleValue
9.215

@<SCITEGIC>MOL_PROPERTY
Idih
SciTegic.value.DoubleValue
0.000

@<SCITEGIC>MOL_PROPERTY
Tether
SciTegic.value.DoubleValue
0.000

@<TRIPOS>MOLECULE
guest-s17_confgen4.mol2 : confsearch ligand conformer 948
          25          25           1
SMALL
USER_CHARGES
 
@<TRIPOS>ATOM
       1    C1      19.096400   18.016374   23.645305 C.3        1 MOL1        -0.1684
       2    H1      18.364946   17.260917   23.963499 H          1 MOL1         0.0833
       3    H2      19.248575   18.647915   24.529744 H          1 MOL1         0.0833
       4    C2      18.459112   18.848764   22.504837 C.3        1 MOL1        -0.1684
       5    H3      18.623577   18.367475   21.531441 H          1 MOL1         0.0833
       6    H4      17.371905   18.822931   22.661313 H          1 MOL1         0.0833
       7    C3      18.872595   20.346444   22.468550 C.3        1 MOL1        -0.1684
       8    H5      18.976626   20.753648   23.483265 H          1 MOL1         0.0833
       9    H6      18.033730   20.896214   22.019930 H          1 MOL1         0.0833
      10    C4      20.126717   20.667048   21.614815 C.3        1 MOL1        -0.1760
      11    H7      20.168406   19.996174   20.748121 H          1 MOL1         0.0833
      12    H8      19.992937   21.670479   21.189535 H          1 MOL1         0.0833
      13    C5      21.481385   20.685158   22.367396 C.3        1 MOL1         0.1219
      14    H9      21.491397   21.567695   23.022988 H          1 MOL1         0.0790
      15    C6      21.797334   19.452323   23.245564 C.3        1 MOL1        -0.1760
      16    H10     22.858639   19.491852   23.525123 H          1 MOL1         0.0833
      17    H11     21.261352   19.545815   24.196218 H          1 MOL1         0.0833
      18    C7      21.506281   18.081751   22.577695 C.3        1 MOL1        -0.1684
      19    H12     22.429211   17.485991   22.576984 H          1 MOL1         0.0833
      20    H13     21.248160   18.202266   21.519418 H          1 MOL1         0.0833
      21    C8      20.401465   17.259242   23.283063 C.3        1 MOL1        -0.1684
      22    H14     20.815562   16.830852   24.206002 H          1 MOL1         0.0833
      23    H15     20.149010   16.402632   22.643323 H          1 MOL1         0.0833
      24    O1      22.516443   20.819589   21.403575 O.3        1 MOL1        -0.5508
      25    H16     22.561177   19.960506   20.936901 H          1 MOL1         0.3780
@<TRIPOS>BOND
    1     1     2    1
    2     1     3    1
    3     1     4    1
    4     4     5    1
    5     4     6    1
    6     4     7    1
    7     7     8    1
    8     7     9    1
    9     7    10    1
   10    10    11    1
   11    10    12    1
   12    10    13    1
   13    13    14    1
   14    13    15    1
   15    15    16    1
   16    15    17    1
   17    15    18    1
   18    18    19    1
   19    18    20    1
   20     1    21    1
   21    18    21    1
   22    21    22    1
   23    21    23    1
   24    13    24    1
   25    24    25    1
@<TRIPOS>SUBSTRUCTURE
       1 MOL1            1 RESIDUE      1      MOL     
@<SCITEGIC>MOL_PROPERTY
VConf Rank
SciTegic.value.IntegerValue
948

@<SCITEGIC>MOL_PROPERTY
Conf_Id
SciTegic.value.IntegerValue
164

@<SCITEGIC>MOL_PROPERTY
Delta U+W
SciTegic.value.DoubleValue
0.008

@<SCITEGIC>MOL_PROPERTY
U+W
SciTegic.value.DoubleValue
10.922

@<SCITEGIC>MOL_PROPERTY
Grad RMS
SciTegic.value.DoubleValue
0.000000

@<SCITEGIC>MOL_PROPERTY
U
SciTegic.value.DoubleValue
12.433

@<SCITEGIC>MOL_PROPERTY
W
SciTegic.value.DoubleValue
-1.511

@<SCITEGIC>MOL_PROPERTY
W(PB)
SciTegic.value.DoubleValue
-3.669

@<SCITEGIC>MOL_PROPERTY
W(SA)
SciTegic.value.DoubleValue
2.157

@<SCITEGIC>MOL_PROPERTY
Valence
SciTegic.value.DoubleValue
19.007

@<SCITEGIC>MOL_PROPERTY
Coulomb
SciTegic.value.DoubleValue
-9.373

@<SCITEGIC>MOL_PROPERTY
VdW
SciTegic.value.DoubleValue
2.799

@<SCITEGIC>MOL_PROPERTY
VdW6
SciTegic.value.DoubleValue
-12.597

@<SCITEGIC>MOL_PROPERTY
VdW12
SciTegic.value.DoubleValue
15.396

@<SCITEGIC>MOL_PROPERTY
Bond
SciTegic.value.DoubleValue
0.425

@<SCITEGIC>MOL_PROPERTY
Angle
SciTegic.value.DoubleValue
4.784

@<SCITEGIC>MOL_PROPERTY
Pdih
SciTegic.value.DoubleValue
13.799

@<SCITEGIC>MOL_PROPERTY
Idih
SciTegic.value.DoubleValue
0.000

@<SCITEGIC>MOL_PROPERTY
Tether
SciTegic.value.DoubleValue
0.000

@<TRIPOS>MOLECULE
guest-s17_confgen4.mol2 : confsearch ligand conformer 949
          25          25           1
SMALL
USER_CHARGES
 
@<TRIPOS>ATOM
       1    C1      19.123012   20.467720   23.199259 C.3        1 MOL1        -0.1684
       2    H1      20.075201   21.000581   23.097687 H          1 MOL1         0.0833
       3    H2      18.412618   21.233703   23.538792 H          1 MOL1         0.0833
       4    C2      19.217512   19.400248   24.317871 C.3        1 MOL1        -0.1684
       5    H3      19.459187   19.924152   25.252761 H          1 MOL1         0.0833
       6    H4      18.227303   18.952040   24.476310 H          1 MOL1         0.0833
       7    C3      20.257866   18.267043   24.127415 C.3        1 MOL1        -0.1684
       8    H5      19.848766   17.471178   23.494723 H          1 MOL1         0.0833
       9    H6      20.402257   17.791869   25.107396 H          1 MOL1         0.0833
      10    C4      21.644889   18.722475   23.600606 C.3        1 MOL1        -0.1760
      11    H7      21.829829   19.776217   23.841863 H          1 MOL1         0.0833
      12    H8      22.406095   18.159386   24.157144 H          1 MOL1         0.0833
      13    C5      21.891891   18.450682   22.095418 C.3        1 MOL1         0.1219
      14    H9      21.689601   17.387601   21.901676 H          1 MOL1         0.0790
      15    C6      21.059599   19.290611   21.094275 C.3        1 MOL1        -0.1760
      16    H10     21.225298   20.363039   21.253089 H          1 MOL1         0.0833
      17    H11     21.456789   19.080854   20.092037 H          1 MOL1         0.0833
      18    C7      19.543281   18.960696   21.067443 C.3        1 MOL1        -0.1684
      19    H12     19.365528   17.940247   21.425426 H          1 MOL1         0.0833
      20    H13     19.214073   18.945269   20.019403 H          1 MOL1         0.0833
      21    C8      18.633587   19.967069   21.817401 C.3        1 MOL1        -0.1684
      22    H14     17.631213   19.530670   21.923754 H          1 MOL1         0.0833
      23    H15     18.506760   20.848684   21.174306 H          1 MOL1         0.0833
      24    O1      23.265262   18.702863   21.831872 O.3        1 MOL1        -0.5508
      25    H16     23.411226   19.653911   22.013496 H          1 MOL1         0.3780
@<TRIPOS>BOND
    1     1     2    1
    2     1     3    1
    3     1     4    1
    4     4     5    1
    5     4     6    1
    6     4     7    1
    7     7     8    1
    8     7     9    1
    9     7    10    1
   10    10    11    1
   11    10    12    1
   12    10    13    1
   13    13    14    1
   14    13    15    1
   15    15    16    1
   16    15    17    1
   17    15    18    1
   18    18    19    1
   19    18    20    1
   20     1    21    1
   21    18    21    1
   22    21    22    1
   23    21    23    1
   24    13    24    1
   25    24    25    1
@<TRIPOS>SUBSTRUCTURE
       1 MOL1            1 RESIDUE      1      MOL     
@<SCITEGIC>MOL_PROPERTY
VConf Rank
SciTegic.value.IntegerValue
949

@<SCITEGIC>MOL_PROPERTY
Conf_Id
SciTegic.value.IntegerValue
15

@<SCITEGIC>MOL_PROPERTY
Delta U+W
SciTegic.value.DoubleValue
-1.271

@<SCITEGIC>MOL_PROPERTY
U+W
SciTegic.value.DoubleValue
9.643

@<SCITEGIC>MOL_PROPERTY
Grad RMS
SciTegic.value.DoubleValue
0.000000

@<SCITEGIC>MOL_PROPERTY
U
SciTegic.value.DoubleValue
11.413

@<SCITEGIC>MOL_PROPERTY
W
SciTegic.value.DoubleValue
-1.770

@<SCITEGIC>MOL_PROPERTY
W(PB)
SciTegic.value.DoubleValue
-3.908

@<SCITEGIC>MOL_PROPERTY
W(SA)
SciTegic.value.DoubleValue
2.138

@<SCITEGIC>MOL_PROPERTY
Valence
SciTegic.value.DoubleValue
17.496

@<SCITEGIC>MOL_PROPERTY
Coulomb
SciTegic.value.DoubleValue
-8.736

@<SCITEGIC>MOL_PROPERTY
VdW
SciTegic.value.DoubleValue
2.653

@<SCITEGIC>MOL_PROPERTY
VdW6
SciTegic.value.DoubleValue
-12.485

@<SCITEGIC>MOL_PROPERTY
VdW12
SciTegic.value.DoubleValue
15.138

@<SCITEGIC>MOL_PROPERTY
Bond
SciTegic.value.DoubleValue
0.414

@<SCITEGIC>MOL_PROPERTY
Angle
SciTegic.value.DoubleValue
5.295

@<SCITEGIC>MOL_PROPERTY
Pdih
SciTegic.value.DoubleValue
11.787

@<SCITEGIC>MOL_PROPERTY
Idih
SciTegic.value.DoubleValue
0.000

@<SCITEGIC>MOL_PROPERTY
Tether
SciTegic.value.DoubleValue
0.000

@<TRIPOS>MOLECULE
guest-s17_confgen4.mol2 : confsearch ligand conformer 950
          25          25           1
SMALL
USER_CHARGES
 
@<TRIPOS>ATOM
       1    C1      18.829058   18.080219   22.944709 C.3        1 MOL1        -0.1684
       2    H1      18.102971   17.286183   23.166717 H          1 MOL1         0.0833
       3    H2      18.332015   18.712975   22.198564 H          1 MOL1         0.0833
       4    C2      19.058328   18.865833   24.262688 C.3        1 MOL1        -0.1684
       5    H3      18.123615   19.383518   24.517911 H          1 MOL1         0.0833
       6    H4      19.234922   18.149963   25.077009 H          1 MOL1         0.0833
       7    C3      20.212444   19.897020   24.264433 C.3        1 MOL1        -0.1684
       8    H5      21.169275   19.376416   24.387790 H          1 MOL1         0.0833
       9    H6      20.113077   20.518240   25.164988 H          1 MOL1         0.0833
      10    C4      20.237172   20.823043   23.020519 C.3        1 MOL1        -0.1760
      11    H7      19.330230   20.694750   22.419364 H          1 MOL1         0.0833
      12    H8      20.203282   21.865426   23.363280 H          1 MOL1         0.0833
      13    C5      21.490717   20.666186   22.129290 C.3        1 MOL1         0.1219
      14    H9      22.334261   21.133910   22.657019 H          1 MOL1         0.0790
      15    C6      21.917373   19.216377   21.782163 C.3        1 MOL1        -0.1760
      16    H10     22.703280   19.287821   21.018239 H          1 MOL1         0.0833
      17    H11     22.414935   18.755292   22.643758 H          1 MOL1         0.0833
      18    C7      20.812488   18.267377   21.245814 C.3        1 MOL1        -0.1684
      19    H12     21.306445   17.558736   20.566861 H          1 MOL1         0.0833
      20    H13     20.091750   18.810552   20.621066 H          1 MOL1         0.0833
      21    C8      20.085650   17.419466   22.325876 C.3        1 MOL1        -0.1684
      22    H14     20.781830   17.093547   23.110283 H          1 MOL1         0.0833
      23    H15     19.750444   16.496377   21.833211 H          1 MOL1         0.0833
      24    O1      21.264101   21.371534   20.917046 O.3        1 MOL1        -0.5508
      25    H16     20.574977   20.867786   20.439038 H          1 MOL1         0.3780
@<TRIPOS>BOND
    1     1     2    1
    2     1     3    1
    3     1     4    1
    4     4     5    1
    5     4     6    1
    6     4     7    1
    7     7     8    1
    8     7     9    1
    9     7    10    1
   10    10    11    1
   11    10    12    1
   12    10    13    1
   13    13    14    1
   14    13    15    1
   15    15    16    1
   16    15    17    1
   17    15    18    1
   18    18    19    1
   19    18    20    1
   20     1    21    1
   21    18    21    1
   22    21    22    1
   23    21    23    1
   24    13    24    1
   25    24    25    1
@<TRIPOS>SUBSTRUCTURE
       1 MOL1            1 RESIDUE      1      MOL     
@<SCITEGIC>MOL_PROPERTY
VConf Rank
SciTegic.value.IntegerValue
950

@<SCITEGIC>MOL_PROPERTY
Conf_Id
SciTegic.value.IntegerValue
115

@<SCITEGIC>MOL_PROPERTY
Delta U+W
SciTegic.value.DoubleValue
0.038

@<SCITEGIC>MOL_PROPERTY
U+W
SciTegic.value.DoubleValue
10.952

@<SCITEGIC>MOL_PROPERTY
Grad RMS
SciTegic.value.DoubleValue
0.000000

@<SCITEGIC>MOL_PROPERTY
U
SciTegic.value.DoubleValue
12.526

@<SCITEGIC>MOL_PROPERTY
W
SciTegic.value.DoubleValue
-1.575

@<SCITEGIC>MOL_PROPERTY
W(PB)
SciTegic.value.DoubleValue
-3.698

@<SCITEGIC>MOL_PROPERTY
W(SA)
SciTegic.value.DoubleValue
2.123

@<SCITEGIC>MOL_PROPERTY
Valence
SciTegic.value.DoubleValue
19.016

@<SCITEGIC>MOL_PROPERTY
Coulomb
SciTegic.value.DoubleValue
-9.226

@<SCITEGIC>MOL_PROPERTY
VdW
SciTegic.value.DoubleValue
2.737

@<SCITEGIC>MOL_PROPERTY
VdW6
SciTegic.value.DoubleValue
-12.612

@<SCITEGIC>MOL_PROPERTY
VdW12
SciTegic.value.DoubleValue
15.349

@<SCITEGIC>MOL_PROPERTY
Bond
SciTegic.value.DoubleValue
0.421

@<SCITEGIC>MOL_PROPERTY
Angle
SciTegic.value.DoubleValue
4.883

@<SCITEGIC>MOL_PROPERTY
Pdih
SciTegic.value.DoubleValue
13.711

@<SCITEGIC>MOL_PROPERTY
Idih
SciTegic.value.DoubleValue
0.000

@<SCITEGIC>MOL_PROPERTY
Tether
SciTegic.value.DoubleValue
0.000

@<TRIPOS>MOLECULE
guest-s17_confgen4.mol2 : confsearch ligand conformer 951
          25          25           1
SMALL
USER_CHARGES
 
@<TRIPOS>ATOM
       1    C1      19.234878   17.455374   23.044683 C.3        1 MOL1        -0.1684
       2    H1      18.837087   16.665111   23.696014 H          1 MOL1         0.0833
       3    H2      18.711866   17.337393   22.086031 H          1 MOL1         0.0833
       4    C2      20.746353   17.184154   22.861871 C.3        1 MOL1        -0.1684
       5    H3      21.249828   17.181484   23.838140 H          1 MOL1         0.0833
       6    H4      20.851862   16.162137   22.472837 H          1 MOL1         0.0833
       7    C3      21.473041   18.141172   21.888765 C.3        1 MOL1        -0.1684
       8    H5      20.851564   18.328464   21.002951 H          1 MOL1         0.0833
       9    H6      22.362740   17.616128   21.514696 H          1 MOL1         0.0833
      10    C4      21.952879   19.467827   22.536595 C.3        1 MOL1        -0.1760
      11    H7      21.910399   19.415052   23.631684 H          1 MOL1         0.0833
      12    H8      23.016927   19.585969   22.290822 H          1 MOL1         0.0833
      13    C5      21.208626   20.727477   22.039280 C.3        1 MOL1         0.1219
      14    H9      20.976283   20.605212   20.971695 H          1 MOL1         0.0790
      15    C6      19.904905   21.049095   22.803025 C.3        1 MOL1        -0.1760
      16    H10     20.127452   21.235378   23.861969 H          1 MOL1         0.0833
      17    H11     19.515379   21.996758   22.408540 H          1 MOL1         0.0833
      18    C7      18.780946   19.992474   22.672880 C.3        1 MOL1        -0.1684
      19    H12     18.716987   19.627135   21.639213 H          1 MOL1         0.0833
      20    H13     17.827252   20.505248   22.859321 H          1 MOL1         0.0833
      21    C8      18.881267   18.819353   23.682695 C.3        1 MOL1        -0.1684
      22    H14     17.897120   18.711325   24.159127 H          1 MOL1         0.0833
      23    H15     19.575746   19.051164   24.501101 H          1 MOL1         0.0833
      24    O1      22.079237   21.842100   22.191924 O.3        1 MOL1        -0.5508
      25    H16     21.611217   22.619772   21.822441 H          1 MOL1         0.3780
@<TRIPOS>BOND
    1     1     2    1
    2     1     3    1
    3     1     4    1
    4     4     5    1
    5     4     6    1
    6     4     7    1
    7     7     8    1
    8     7     9    1
    9     7    10    1
   10    10    11    1
   11    10    12    1
   12    10    13    1
   13    13    14    1
   14    13    15    1
   15    15    16    1
   16    15    17    1
   17    15    18    1
   18    18    19    1
   19    18    20    1
   20     1    21    1
   21    18    21    1
   22    21    22    1
   23    21    23    1
   24    13    24    1
   25    24    25    1
@<TRIPOS>SUBSTRUCTURE
       1 MOL1            1 RESIDUE      1      MOL     
@<SCITEGIC>MOL_PROPERTY
VConf Rank
SciTegic.value.IntegerValue
951

@<SCITEGIC>MOL_PROPERTY
Conf_Id
SciTegic.value.IntegerValue
30

@<SCITEGIC>MOL_PROPERTY
Delta U+W
SciTegic.value.DoubleValue
0.000

@<SCITEGIC>MOL_PROPERTY
U+W
SciTegic.value.DoubleValue
10.913

@<SCITEGIC>MOL_PROPERTY
Grad RMS
SciTegic.value.DoubleValue
0.000000

@<SCITEGIC>MOL_PROPERTY
U
SciTegic.value.DoubleValue
13.140

@<SCITEGIC>MOL_PROPERTY
W
SciTegic.value.DoubleValue
-2.227

@<SCITEGIC>MOL_PROPERTY
W(PB)
SciTegic.value.DoubleValue
-4.367

@<SCITEGIC>MOL_PROPERTY
W(SA)
SciTegic.value.DoubleValue
2.140

@<SCITEGIC>MOL_PROPERTY
Valence
SciTegic.value.DoubleValue
19.155

@<SCITEGIC>MOL_PROPERTY
Coulomb
SciTegic.value.DoubleValue
-8.157

@<SCITEGIC>MOL_PROPERTY
VdW
SciTegic.value.DoubleValue
2.142

@<SCITEGIC>MOL_PROPERTY
VdW6
SciTegic.value.DoubleValue
-11.576

@<SCITEGIC>MOL_PROPERTY
VdW12
SciTegic.value.DoubleValue
13.718

@<SCITEGIC>MOL_PROPERTY
Bond
SciTegic.value.DoubleValue
0.294

@<SCITEGIC>MOL_PROPERTY
Angle
SciTegic.value.DoubleValue
3.547

@<SCITEGIC>MOL_PROPERTY
Pdih
SciTegic.value.DoubleValue
15.314

@<SCITEGIC>MOL_PROPERTY
Idih
SciTegic.value.DoubleValue
0.000

@<SCITEGIC>MOL_PROPERTY
Tether
SciTegic.value.DoubleValue
0.000

@<TRIPOS>MOLECULE
guest-s17_confgen4.mol2 : confsearch ligand conformer 952
          25          25           1
SMALL
USER_CHARGES
 
@<TRIPOS>ATOM
       1    C1      20.736503   20.822359   24.028715 C.3        1 MOL1        -0.1684
       2    H1      20.121378   21.604650   24.494010 H          1 MOL1         0.0833
       3    H2      21.765098   21.016143   24.362200 H          1 MOL1         0.0833
       4    C2      20.682686   21.004516   22.491832 C.3        1 MOL1        -0.1684
       5    H3      20.791699   22.075774   22.274132 H          1 MOL1         0.0833
       6    H4      21.563176   20.538310   22.034729 H          1 MOL1         0.0833
       7    C3      19.375925   20.496042   21.831808 C.3        1 MOL1        -0.1684
       8    H5      18.925753   21.319258   21.260541 H          1 MOL1         0.0833
       9    H6      18.626581   20.238966   22.589456 H          1 MOL1         0.0833
      10    C4      19.578273   19.298211   20.869616 C.3        1 MOL1        -0.1760
      11    H7      18.591570   18.895329   20.605299 H          1 MOL1         0.0833
      12    H8      20.010896   19.674136   19.933302 H          1 MOL1         0.0833
      13    C5      20.478276   18.141481   21.371760 C.3        1 MOL1         0.1219
      14    H9      21.523250   18.478609   21.390764 H          1 MOL1         0.0790
      15    C6      20.113031   17.583317   22.769024 C.3        1 MOL1        -0.1760
      16    H10     19.032676   17.667699   22.942990 H          1 MOL1         0.0833
      17    H11     20.323865   16.505571   22.771793 H          1 MOL1         0.0833
      18    C7      20.914579   18.198647   23.950819 C.3        1 MOL1        -0.1684
      19    H12     21.956600   18.395747   23.664874 H          1 MOL1         0.0833
      20    H13     20.967963   17.430140   24.734263 H          1 MOL1         0.0833
      21    C8      20.274848   19.453293   24.595341 C.3        1 MOL1        -0.1684
      22    H14     20.527089   19.448805   25.664650 H          1 MOL1         0.0833
      23    H15     19.180763   19.372702   24.566844 H          1 MOL1         0.0833
      24    O1      20.372362   17.085350   20.424350 O.3        1 MOL1        -0.5508
      25    H16     21.003792   16.390243   20.704665 H          1 MOL1         0.3780
@<TRIPOS>BOND
    1     1     2    1
    2     1     3    1
    3     1     4    1
    4     4     5    1
    5     4     6    1
    6     4     7    1
    7     7     8    1
    8     7     9    1
    9     7    10    1
   10    10    11    1
   11    10    12    1
   12    10    13    1
   13    13    14    1
   14    13    15    1
   15    15    16    1
   16    15    17    1
   17    15    18    1
   18    18    19    1
   19    18    20    1
   20     1    21    1
   21    18    21    1
   22    21    22    1
   23    21    23    1
   24    13    24    1
   25    24    25    1
@<TRIPOS>SUBSTRUCTURE
       1 MOL1            1 RESIDUE      1      MOL     
@<SCITEGIC>MOL_PROPERTY
VConf Rank
SciTegic.value.IntegerValue
952

@<SCITEGIC>MOL_PROPERTY
Conf_Id
SciTegic.value.IntegerValue
162

@<SCITEGIC>MOL_PROPERTY
Delta U+W
SciTegic.value.DoubleValue
0.219

@<SCITEGIC>MOL_PROPERTY
U+W
SciTegic.value.DoubleValue
11.132

@<SCITEGIC>MOL_PROPERTY
Grad RMS
SciTegic.value.DoubleValue
0.000000

@<SCITEGIC>MOL_PROPERTY
U
SciTegic.value.DoubleValue
13.296

@<SCITEGIC>MOL_PROPERTY
W
SciTegic.value.DoubleValue
-2.164

@<SCITEGIC>MOL_PROPERTY
W(PB)
SciTegic.value.DoubleValue
-4.311

@<SCITEGIC>MOL_PROPERTY
W(SA)
SciTegic.value.DoubleValue
2.148

@<SCITEGIC>MOL_PROPERTY
Valence
SciTegic.value.DoubleValue
18.607

@<SCITEGIC>MOL_PROPERTY
Coulomb
SciTegic.value.DoubleValue
-8.339

@<SCITEGIC>MOL_PROPERTY
VdW
SciTegic.value.DoubleValue
3.028

@<SCITEGIC>MOL_PROPERTY
VdW6
SciTegic.value.DoubleValue
-12.271

@<SCITEGIC>MOL_PROPERTY
VdW12
SciTegic.value.DoubleValue
15.299

@<SCITEGIC>MOL_PROPERTY
Bond
SciTegic.value.DoubleValue
0.423

@<SCITEGIC>MOL_PROPERTY
Angle
SciTegic.value.DoubleValue
4.488

@<SCITEGIC>MOL_PROPERTY
Pdih
SciTegic.value.DoubleValue
13.696

@<SCITEGIC>MOL_PROPERTY
Idih
SciTegic.value.DoubleValue
0.000

@<SCITEGIC>MOL_PROPERTY
Tether
SciTegic.value.DoubleValue
0.000

@<TRIPOS>MOLECULE
guest-s17_confgen4.mol2 : confsearch ligand conformer 953
          25          25           1
SMALL
USER_CHARGES
 
@<TRIPOS>ATOM
       1    C1      19.010904   20.683087   23.001011 C.3        1 MOL1        -0.1684
       2    H1      19.441817   21.212719   22.141943 H          1 MOL1         0.0833
       3    H2      18.177469   21.317957   23.331605 H          1 MOL1         0.0833
       4    C2      18.424564   19.323959   22.544195 C.3        1 MOL1        -0.1684
       5    H3      18.316973   18.639617   23.396445 H          1 MOL1         0.0833
       6    H4      17.400497   19.519389   22.197449 H          1 MOL1         0.0833
       7    C3      19.175567   18.641241   21.367143 C.3        1 MOL1        -0.1684
       8    H5      19.533575   19.383397   20.641056 H          1 MOL1         0.0833
       9    H6      18.434029   18.038749   20.824690 H          1 MOL1         0.0833
      10    C4      20.318803   17.678655   21.781426 C.3        1 MOL1        -0.1760
      11    H7      20.065025   17.180419   22.725170 H          1 MOL1         0.0833
      12    H8      20.363038   16.871378   21.038755 H          1 MOL1         0.0833
      13    C5      21.740889   18.290046   21.853507 C.3        1 MOL1         0.1219
      14    H9      22.069150   18.500689   20.825419 H          1 MOL1         0.0790
      15    C6      21.881962   19.603332   22.659381 C.3        1 MOL1        -0.1760
      16    H10     22.949905   19.808785   22.808667 H          1 MOL1         0.0833
      17    H11     21.527412   20.437562   22.044621 H          1 MOL1         0.0833
      18    C7      21.177723   19.596239   24.041941 C.3        1 MOL1        -0.1684
      19    H12     21.922837   19.814026   24.818944 H          1 MOL1         0.0833
      20    H13     20.804738   18.594567   24.286166 H          1 MOL1         0.0833
      21    C8      20.027042   20.623232   24.172326 C.3        1 MOL1        -0.1684
      22    H14     20.461173   21.624318   24.299195 H          1 MOL1         0.0833
      23    H15     19.483374   20.413399   25.103513 H          1 MOL1         0.0833
      24    O1      22.605215   17.313938   22.422942 O.3        1 MOL1        -0.5508
      25    H16     23.497026   17.716620   22.463413 H          1 MOL1         0.3780
@<TRIPOS>BOND
    1     1     2    1
    2     1     3    1
    3     1     4    1
    4     4     5    1
    5     4     6    1
    6     4     7    1
    7     7     8    1
    8     7     9    1
    9     7    10    1
   10    10    11    1
   11    10    12    1
   12    10    13    1
   13    13    14    1
   14    13    15    1
   15    15    16    1
   16    15    17    1
   17    15    18    1
   18    18    19    1
   19    18    20    1
   20     1    21    1
   21    18    21    1
   22    21    22    1
   23    21    23    1
   24    13    24    1
   25    24    25    1
@<TRIPOS>SUBSTRUCTURE
       1 MOL1            1 RESIDUE      1      MOL     
@<SCITEGIC>MOL_PROPERTY
VConf Rank
SciTegic.value.IntegerValue
953

@<SCITEGIC>MOL_PROPERTY
Conf_Id
SciTegic.value.IntegerValue
155

@<SCITEGIC>MOL_PROPERTY
Delta U+W
SciTegic.value.DoubleValue
0.339

@<SCITEGIC>MOL_PROPERTY
U+W
SciTegic.value.DoubleValue
11.252

@<SCITEGIC>MOL_PROPERTY
Grad RMS
SciTegic.value.DoubleValue
0.000000

@<SCITEGIC>MOL_PROPERTY
U
SciTegic.value.DoubleValue
13.420

@<SCITEGIC>MOL_PROPERTY
W
SciTegic.value.DoubleValue
-2.167

@<SCITEGIC>MOL_PROPERTY
W(PB)
SciTegic.value.DoubleValue
-4.325

@<SCITEGIC>MOL_PROPERTY
W(SA)
SciTegic.value.DoubleValue
2.157

@<SCITEGIC>MOL_PROPERTY
Valence
SciTegic.value.DoubleValue
18.609

@<SCITEGIC>MOL_PROPERTY
Coulomb
SciTegic.value.DoubleValue
-8.052

@<SCITEGIC>MOL_PROPERTY
VdW
SciTegic.value.DoubleValue
2.863

@<SCITEGIC>MOL_PROPERTY
VdW6
SciTegic.value.DoubleValue
-12.524

@<SCITEGIC>MOL_PROPERTY
VdW12
SciTegic.value.DoubleValue
15.387

@<SCITEGIC>MOL_PROPERTY
Bond
SciTegic.value.DoubleValue
0.430

@<SCITEGIC>MOL_PROPERTY
Angle
SciTegic.value.DoubleValue
4.724

@<SCITEGIC>MOL_PROPERTY
Pdih
SciTegic.value.DoubleValue
13.455

@<SCITEGIC>MOL_PROPERTY
Idih
SciTegic.value.DoubleValue
0.000

@<SCITEGIC>MOL_PROPERTY
Tether
SciTegic.value.DoubleValue
0.000

@<TRIPOS>MOLECULE
guest-s17_confgen4.mol2 : confsearch ligand conformer 954
          25          25           1
SMALL
USER_CHARGES
 
@<TRIPOS>ATOM
       1    C1      19.740838   18.059247   21.156732 C.3        1 MOL1        -0.1684
       2    H1      20.552661   17.662738   20.532181 H          1 MOL1         0.0833
       3    H2      18.815635   17.652192   20.726511 H          1 MOL1         0.0833
       4    C2      19.866544   17.476331   22.588942 C.3        1 MOL1        -0.1684
       5    H3      18.994951   17.776446   23.179193 H          1 MOL1         0.0833
       6    H4      19.762288   16.385389   22.513489 H          1 MOL1         0.0833
       7    C3      21.185251   17.756679   23.367164 C.3        1 MOL1        -0.1684
       8    H5      21.906144   16.977699   23.084221 H          1 MOL1         0.0833
       9    H6      21.002733   17.611981   24.440695 H          1 MOL1         0.0833
      10    C4      21.887350   19.124926   23.150693 C.3        1 MOL1        -0.1760
      11    H7      22.857406   19.080400   23.662852 H          1 MOL1         0.0833
      12    H8      22.166754   19.222840   22.098030 H          1 MOL1         0.0833
      13    C5      21.151131   20.408262   23.635808 C.3        1 MOL1         0.1219
      14    H9      21.545011   21.258134   23.060183 H          1 MOL1         0.0790
      15    C6      19.605752   20.435893   23.528190 C.3        1 MOL1        -0.1760
      16    H10     19.190252   19.634641   24.146151 H          1 MOL1         0.0833
      17    H11     19.256987   21.351853   24.023171 H          1 MOL1         0.0833
      18    C7      18.974180   20.421634   22.103684 C.3        1 MOL1        -0.1684
      19    H12     18.924638   21.462409   21.755588 H          1 MOL1         0.0833
      20    H13     17.930257   20.089233   22.181511 H          1 MOL1         0.0833
      21    C8      19.687749   19.606619   20.993162 C.3        1 MOL1        -0.1684
      22    H14     20.689706   20.015509   20.829247 H          1 MOL1         0.0833
      23    H15     19.169488   19.812498   20.046642 H          1 MOL1         0.0833
      24    O1      21.473987   20.603644   25.008315 O.3        1 MOL1        -0.5508
      25    H16     22.451035   20.637674   25.067131 H          1 MOL1         0.3780
@<TRIPOS>BOND
    1     1     2    1
    2     1     3    1
    3     1     4    1
    4     4     5    1
    5     4     6    1
    6     4     7    1
    7     7     8    1
    8     7     9    1
    9     7    10    1
   10    10    11    1
   11    10    12    1
   12    10    13    1
   13    13    14    1
   14    13    15    1
   15    15    16    1
   16    15    17    1
   17    15    18    1
   18    18    19    1
   19    18    20    1
   20     1    21    1
   21    18    21    1
   22    21    22    1
   23    21    23    1
   24    13    24    1
   25    24    25    1
@<TRIPOS>SUBSTRUCTURE
       1 MOL1            1 RESIDUE      1      MOL     
@<SCITEGIC>MOL_PROPERTY
VConf Rank
SciTegic.value.IntegerValue
954

@<SCITEGIC>MOL_PROPERTY
Conf_Id
SciTegic.value.IntegerValue
146

@<SCITEGIC>MOL_PROPERTY
Delta U+W
SciTegic.value.DoubleValue
2.553

@<SCITEGIC>MOL_PROPERTY
U+W
SciTegic.value.DoubleValue
13.466

@<SCITEGIC>MOL_PROPERTY
Grad RMS
SciTegic.value.DoubleValue
0.000000

@<SCITEGIC>MOL_PROPERTY
U
SciTegic.value.DoubleValue
15.643

@<SCITEGIC>MOL_PROPERTY
W
SciTegic.value.DoubleValue
-2.176

@<SCITEGIC>MOL_PROPERTY
W(PB)
SciTegic.value.DoubleValue
-4.307

@<SCITEGIC>MOL_PROPERTY
W(SA)
SciTegic.value.DoubleValue
2.131

@<SCITEGIC>MOL_PROPERTY
Valence
SciTegic.value.DoubleValue
18.916

@<SCITEGIC>MOL_PROPERTY
Coulomb
SciTegic.value.DoubleValue
-7.506

@<SCITEGIC>MOL_PROPERTY
VdW
SciTegic.value.DoubleValue
4.232

@<SCITEGIC>MOL_PROPERTY
VdW6
SciTegic.value.DoubleValue
-13.632

@<SCITEGIC>MOL_PROPERTY
VdW12
SciTegic.value.DoubleValue
17.864

@<SCITEGIC>MOL_PROPERTY
Bond
SciTegic.value.DoubleValue
0.735

@<SCITEGIC>MOL_PROPERTY
Angle
SciTegic.value.DoubleValue
9.140

@<SCITEGIC>MOL_PROPERTY
Pdih
SciTegic.value.DoubleValue
9.042

@<SCITEGIC>MOL_PROPERTY
Idih
SciTegic.value.DoubleValue
0.000

@<SCITEGIC>MOL_PROPERTY
Tether
SciTegic.value.DoubleValue
0.000

@<TRIPOS>MOLECULE
guest-s17_confgen4.mol2 : confsearch ligand conformer 955
          25          25           1
SMALL
USER_CHARGES
 
@<TRIPOS>ATOM
       1    C1      18.588764   19.434238   21.533363 C.3        1 MOL1        -0.1684
       2    H1      18.576859   19.305164   20.442628 H          1 MOL1         0.0833
       3    H2      17.551764   19.661519   21.816003 H          1 MOL1         0.0833
       4    C2      19.447786   20.672518   21.892368 C.3        1 MOL1        -0.1684
       5    H3      18.979070   21.543721   21.414756 H          1 MOL1         0.0833
       6    H4      19.386025   20.880850   22.966580 H          1 MOL1         0.0833
       7    C3      20.925953   20.634865   21.429782 C.3        1 MOL1        -0.1684
       8    H5      21.366287   21.617113   21.649498 H          1 MOL1         0.0833
       9    H6      20.962013   20.530095   20.337003 H          1 MOL1         0.0833
      10    C4      21.835555   19.553663   22.069568 C.3        1 MOL1        -0.1760
      11    H7      21.697950   18.592884   21.563565 H          1 MOL1         0.0833
      12    H8      22.874353   19.833727   21.848212 H          1 MOL1         0.0833
      13    C5      21.673604   19.379744   23.601756 C.3        1 MOL1         0.1219
      14    H9      21.209396   20.279470   24.027489 H          1 MOL1         0.0790
      15    C6      20.850500   18.133245   24.014677 C.3        1 MOL1        -0.1760
      16    H10     21.297841   17.239194   23.560497 H          1 MOL1         0.0833
      17    H11     20.957873   18.000213   25.099165 H          1 MOL1         0.0833
      18    C7      19.329663   18.161154   23.701817 C.3        1 MOL1        -0.1684
      19    H12     18.849560   19.025782   24.177967 H          1 MOL1         0.0833
      20    H13     18.885977   17.282546   24.189846 H          1 MOL1         0.0833
      21    C8      18.973653   18.085470   22.194496 C.3        1 MOL1        -0.1684
      22    H14     18.112158   17.413271   22.080417 H          1 MOL1         0.0833
      23    H15     19.777307   17.595559   21.633292 H          1 MOL1         0.0833
      24    O1      22.970619   19.237508   24.169972 O.3        1 MOL1        -0.5508
      25    H16     22.850569   19.188385   25.141258 H          1 MOL1         0.3780
@<TRIPOS>BOND
    1     1     2    1
    2     1     3    1
    3     1     4    1
    4     4     5    1
    5     4     6    1
    6     4     7    1
    7     7     8    1
    8     7     9    1
    9     7    10    1
   10    10    11    1
   11    10    12    1
   12    10    13    1
   13    13    14    1
   14    13    15    1
   15    15    16    1
   16    15    17    1
   17    15    18    1
   18    18    19    1
   19    18    20    1
   20     1    21    1
   21    18    21    1
   22    21    22    1
   23    21    23    1
   24    13    24    1
   25    24    25    1
@<TRIPOS>SUBSTRUCTURE
       1 MOL1            1 RESIDUE      1      MOL     
@<SCITEGIC>MOL_PROPERTY
VConf Rank
SciTegic.value.IntegerValue
955

@<SCITEGIC>MOL_PROPERTY
Conf_Id
SciTegic.value.IntegerValue
62

@<SCITEGIC>MOL_PROPERTY
Delta U+W
SciTegic.value.DoubleValue
-1.779

@<SCITEGIC>MOL_PROPERTY
U+W
SciTegic.value.DoubleValue
9.134

@<SCITEGIC>MOL_PROPERTY
Grad RMS
SciTegic.value.DoubleValue
0.000000

@<SCITEGIC>MOL_PROPERTY
U
SciTegic.value.DoubleValue
11.364

@<SCITEGIC>MOL_PROPERTY
W
SciTegic.value.DoubleValue
-2.230

@<SCITEGIC>MOL_PROPERTY
W(PB)
SciTegic.value.DoubleValue
-4.359

@<SCITEGIC>MOL_PROPERTY
W(SA)
SciTegic.value.DoubleValue
2.129

@<SCITEGIC>MOL_PROPERTY
Valence
SciTegic.value.DoubleValue
16.582

@<SCITEGIC>MOL_PROPERTY
Coulomb
SciTegic.value.DoubleValue
-8.150

@<SCITEGIC>MOL_PROPERTY
VdW
SciTegic.value.DoubleValue
2.933

@<SCITEGIC>MOL_PROPERTY
VdW6
SciTegic.value.DoubleValue
-12.531

@<SCITEGIC>MOL_PROPERTY
VdW12
SciTegic.value.DoubleValue
15.464

@<SCITEGIC>MOL_PROPERTY
Bond
SciTegic.value.DoubleValue
0.439

@<SCITEGIC>MOL_PROPERTY
Angle
SciTegic.value.DoubleValue
5.099

@<SCITEGIC>MOL_PROPERTY
Pdih
SciTegic.value.DoubleValue
11.044

@<SCITEGIC>MOL_PROPERTY
Idih
SciTegic.value.DoubleValue
0.000

@<SCITEGIC>MOL_PROPERTY
Tether
SciTegic.value.DoubleValue
0.000

@<TRIPOS>MOLECULE
guest-s17_confgen4.mol2 : confsearch ligand conformer 956
          25          25           1
SMALL
USER_CHARGES
 
@<TRIPOS>ATOM
       1    C1      20.452934   18.403057   20.982550 C.3        1 MOL1        -0.1684
       2    H1      19.980247   17.642212   21.614059 H          1 MOL1         0.0833
       3    H2      20.524085   17.934574   19.991540 H          1 MOL1         0.0833
       4    C2      21.898458   18.682781   21.464078 C.3        1 MOL1        -0.1684
       5    H3      22.455169   17.737895   21.399648 H          1 MOL1         0.0833
       6    H4      22.390214   19.365824   20.758299 H          1 MOL1         0.0833
       7    C3      22.069548   19.236327   22.901797 C.3        1 MOL1        -0.1684
       8    H5      21.924203   20.322454   22.915723 H          1 MOL1         0.0833
       9    H6      23.123494   19.096899   23.178892 H          1 MOL1         0.0833
      10    C4      21.189502   18.555031   23.983772 C.3        1 MOL1        -0.1760
      11    H7      20.902247   17.541507   23.677988 H          1 MOL1         0.0833
      12    H8      21.816795   18.421408   24.874834 H          1 MOL1         0.0833
      13    C5      19.941555   19.365995   24.415466 C.3        1 MOL1         0.1219
      14    H9      20.269463   20.374481   24.706005 H          1 MOL1         0.0790
      15    C6      18.815952   19.511122   23.361016 C.3        1 MOL1        -0.1760
      16    H10     18.460286   18.524601   23.039976 H          1 MOL1         0.0833
      17    H11     17.959922   19.974809   23.868971 H          1 MOL1         0.0833
      18    C7      19.170240   20.403903   22.141594 C.3        1 MOL1        -0.1684
      19    H12     19.964040   21.113020   22.402324 H          1 MOL1         0.0833
      20    H13     18.300681   21.036126   21.915521 H          1 MOL1         0.0833
      21    C8      19.528915   19.638459   20.842221 C.3        1 MOL1        -0.1684
      22    H14     19.970584   20.342462   20.124034 H          1 MOL1         0.0833
      23    H15     18.590612   19.296705   20.384320 H          1 MOL1         0.0833
      24    O1      19.381266   18.722593   25.553242 O.3        1 MOL1        -0.5508
      25    H16     20.081782   18.697486   26.237928 H          1 MOL1         0.3780
@<TRIPOS>BOND
    1     1     2    1
    2     1     3    1
    3     1     4    1
    4     4     5    1
    5     4     6    1
    6     4     7    1
    7     7     8    1
    8     7     9    1
    9     7    10    1
   10    10    11    1
   11    10    12    1
   12    10    13    1
   13    13    14    1
   14    13    15    1
   15    15    16    1
   16    15    17    1
   17    15    18    1
   18    18    19    1
   19    18    20    1
   20     1    21    1
   21    18    21    1
   22    21    22    1
   23    21    23    1
   24    13    24    1
   25    24    25    1
@<TRIPOS>SUBSTRUCTURE
       1 MOL1            1 RESIDUE      1      MOL     
@<SCITEGIC>MOL_PROPERTY
VConf Rank
SciTegic.value.IntegerValue
956

@<SCITEGIC>MOL_PROPERTY
Conf_Id
SciTegic.value.IntegerValue
121

@<SCITEGIC>MOL_PROPERTY
Delta U+W
SciTegic.value.DoubleValue
-1.283

@<SCITEGIC>MOL_PROPERTY
U+W
SciTegic.value.DoubleValue
9.630

@<SCITEGIC>MOL_PROPERTY
Grad RMS
SciTegic.value.DoubleValue
0.000000

@<SCITEGIC>MOL_PROPERTY
U
SciTegic.value.DoubleValue
11.876

@<SCITEGIC>MOL_PROPERTY
W
SciTegic.value.DoubleValue
-2.246

@<SCITEGIC>MOL_PROPERTY
W(PB)
SciTegic.value.DoubleValue
-4.376

@<SCITEGIC>MOL_PROPERTY
W(SA)
SciTegic.value.DoubleValue
2.130

@<SCITEGIC>MOL_PROPERTY
Valence
SciTegic.value.DoubleValue
17.153

@<SCITEGIC>MOL_PROPERTY
Coulomb
SciTegic.value.DoubleValue
-7.966

@<SCITEGIC>MOL_PROPERTY
VdW
SciTegic.value.DoubleValue
2.689

@<SCITEGIC>MOL_PROPERTY
VdW6
SciTegic.value.DoubleValue
-12.458

@<SCITEGIC>MOL_PROPERTY
VdW12
SciTegic.value.DoubleValue
15.147

@<SCITEGIC>MOL_PROPERTY
Bond
SciTegic.value.DoubleValue
0.421

@<SCITEGIC>MOL_PROPERTY
Angle
SciTegic.value.DoubleValue
5.258

@<SCITEGIC>MOL_PROPERTY
Pdih
SciTegic.value.DoubleValue
11.475

@<SCITEGIC>MOL_PROPERTY
Idih
SciTegic.value.DoubleValue
0.000

@<SCITEGIC>MOL_PROPERTY
Tether
SciTegic.value.DoubleValue
0.000

@<TRIPOS>MOLECULE
guest-s17_confgen4.mol2 : confsearch ligand conformer 957
          25          25           1
SMALL
USER_CHARGES
 
@<TRIPOS>ATOM
       1    C1      20.024743   18.679042   20.923870 C.3        1 MOL1        -0.1684
       2    H1      20.517454   19.650033   20.799232 H          1 MOL1         0.0833
       3    H2      19.850695   18.323746   19.899120 H          1 MOL1         0.0833
       4    C2      18.637929   18.858828   21.590313 C.3        1 MOL1        -0.1684
       5    H3      18.039246   19.505139   20.934002 H          1 MOL1         0.0833
       6    H4      18.116834   17.892118   21.610622 H          1 MOL1         0.0833
       7    C3      18.611908   19.474503   23.012703 C.3        1 MOL1        -0.1684
       8    H5      18.799164   18.704075   23.769222 H          1 MOL1         0.0833
       9    H6      17.581278   19.803001   23.204633 H          1 MOL1         0.0833
      10    C4      19.555068   20.688573   23.227315 C.3        1 MOL1        -0.1760
      11    H7      19.773832   21.193136   22.278449 H          1 MOL1         0.0833
      12    H8      19.006959   21.427407   23.826907 H          1 MOL1         0.0833
      13    C5      20.866295   20.372587   23.989385 C.3        1 MOL1         0.1219
      14    H9      20.601757   19.866545   24.929024 H          1 MOL1         0.0790
      15    C6      21.903777   19.497342   23.241746 C.3        1 MOL1        -0.1760
      16    H10     22.188532   19.966038   22.291751 H          1 MOL1         0.0833
      17    H11     22.820279   19.488718   23.846141 H          1 MOL1         0.0833
      18    C7      21.480434   18.019053   23.030209 C.3        1 MOL1        -0.1684
      19    H12     20.738950   17.720285   23.779831 H          1 MOL1         0.0833
      20    H13     22.350483   17.380223   23.234986 H          1 MOL1         0.0833
      21    C8      20.983481   17.670144   21.604019 C.3        1 MOL1        -0.1684
      22    H14     20.512062   16.678238   21.623564 H          1 MOL1         0.0833
      23    H15     21.865349   17.567091   20.957043 H          1 MOL1         0.0833
      24    O1      21.490582   21.612384   24.298570 O.3        1 MOL1        -0.5508
      25    H16     22.281473   21.404322   24.838339 H          1 MOL1         0.3780
@<TRIPOS>BOND
    1     1     2    1
    2     1     3    1
    3     1     4    1
    4     4     5    1
    5     4     6    1
    6     4     7    1
    7     7     8    1
    8     7     9    1
    9     7    10    1
   10    10    11    1
   11    10    12    1
   12    10    13    1
   13    13    14    1
   14    13    15    1
   15    15    16    1
   16    15    17    1
   17    15    18    1
   18    18    19    1
   19    18    20    1
   20     1    21    1
   21    18    21    1
   22    21    22    1
   23    21    23    1
   24    13    24    1
   25    24    25    1
@<TRIPOS>SUBSTRUCTURE
       1 MOL1            1 RESIDUE      1      MOL     
@<SCITEGIC>MOL_PROPERTY
VConf Rank
SciTegic.value.IntegerValue
957

@<SCITEGIC>MOL_PROPERTY
Conf_Id
SciTegic.value.IntegerValue
24

@<SCITEGIC>MOL_PROPERTY
Delta U+W
SciTegic.value.DoubleValue
-1.236

@<SCITEGIC>MOL_PROPERTY
U+W
SciTegic.value.DoubleValue
9.678

@<SCITEGIC>MOL_PROPERTY
Grad RMS
SciTegic.value.DoubleValue
0.000000

@<SCITEGIC>MOL_PROPERTY
U
SciTegic.value.DoubleValue
11.876

@<SCITEGIC>MOL_PROPERTY
W
SciTegic.value.DoubleValue
-2.199

@<SCITEGIC>MOL_PROPERTY
W(PB)
SciTegic.value.DoubleValue
-4.335

@<SCITEGIC>MOL_PROPERTY
W(SA)
SciTegic.value.DoubleValue
2.137

@<SCITEGIC>MOL_PROPERTY
Valence
SciTegic.value.DoubleValue
17.153

@<SCITEGIC>MOL_PROPERTY
Coulomb
SciTegic.value.DoubleValue
-7.966

@<SCITEGIC>MOL_PROPERTY
VdW
SciTegic.value.DoubleValue
2.689

@<SCITEGIC>MOL_PROPERTY
VdW6
SciTegic.value.DoubleValue
-12.458

@<SCITEGIC>MOL_PROPERTY
VdW12
SciTegic.value.DoubleValue
15.147

@<SCITEGIC>MOL_PROPERTY
Bond
SciTegic.value.DoubleValue
0.421

@<SCITEGIC>MOL_PROPERTY
Angle
SciTegic.value.DoubleValue
5.258

@<SCITEGIC>MOL_PROPERTY
Pdih
SciTegic.value.DoubleValue
11.475

@<SCITEGIC>MOL_PROPERTY
Idih
SciTegic.value.DoubleValue
0.000

@<SCITEGIC>MOL_PROPERTY
Tether
SciTegic.value.DoubleValue
0.000

@<TRIPOS>MOLECULE
guest-s17_confgen4.mol2 : confsearch ligand conformer 958
          25          25           1
SMALL
USER_CHARGES
 
@<TRIPOS>ATOM
       1    C1      19.242063   21.005954   23.164298 C.3        1 MOL1        -0.1684
       2    H1      19.570717   21.664907   23.979493 H          1 MOL1         0.0833
       3    H2      18.313117   21.449179   22.780285 H          1 MOL1         0.0833
       4    C2      20.297383   21.049569   22.027373 C.3        1 MOL1        -0.1684
       5    H3      19.867600   20.682299   21.086792 H          1 MOL1         0.0833
       6    H4      20.519401   22.108759   21.837921 H          1 MOL1         0.0833
       7    C3      21.636633   20.326843   22.315013 C.3        1 MOL1        -0.1684
       8    H5      21.907162   20.414448   23.375954 H          1 MOL1         0.0833
       9    H6      22.417719   20.874095   21.769466 H          1 MOL1         0.0833
      10    C4      21.705109   18.848421   21.838037 C.3        1 MOL1        -0.1760
      11    H7      21.163053   18.717588   20.892766 H          1 MOL1         0.0833
      12    H8      22.758747   18.643322   21.604092 H          1 MOL1         0.0833
      13    C5      21.239965   17.802472   22.880491 C.3        1 MOL1         0.1219
      14    H9      21.426241   18.204595   23.885117 H          1 MOL1         0.0790
      15    C6      19.756265   17.368727   22.769549 C.3        1 MOL1        -0.1760
      16    H10     19.627206   16.735445   21.882042 H          1 MOL1         0.0833
      17    H11     19.531865   16.728149   23.632640 H          1 MOL1         0.0833
      18    C7      18.699038   18.500022   22.714016 C.3        1 MOL1        -0.1684
      19    H12     17.709835   18.049915   22.874138 H          1 MOL1         0.0833
      20    H13     18.655826   18.916245   21.700812 H          1 MOL1         0.0833
      21    C8      18.912774   19.617728   23.765872 C.3        1 MOL1        -0.1684
      22    H14     19.687235   19.336775   24.489013 H          1 MOL1         0.0833
      23    H15     17.996772   19.716487   24.364252 H          1 MOL1         0.0833
      24    O1      22.033529   16.632926   22.725165 O.3        1 MOL1        -0.5508
      25    H16     21.867610   16.304054   21.817813 H          1 MOL1         0.3780
@<TRIPOS>BOND
    1     1     2    1
    2     1     3    1
    3     1     4    1
    4     4     5    1
    5     4     6    1
    6     4     7    1
    7     7     8    1
    8     7     9    1
    9     7    10    1
   10    10    11    1
   11    10    12    1
   12    10    13    1
   13    13    14    1
   14    13    15    1
   15    15    16    1
   16    15    17    1
   17    15    18    1
   18    18    19    1
   19    18    20    1
   20     1    21    1
   21    18    21    1
   22    21    22    1
   23    21    23    1
   24    13    24    1
   25    24    25    1
@<TRIPOS>SUBSTRUCTURE
       1 MOL1            1 RESIDUE      1      MOL     
@<SCITEGIC>MOL_PROPERTY
VConf Rank
SciTegic.value.IntegerValue
958

@<SCITEGIC>MOL_PROPERTY
Conf_Id
SciTegic.value.IntegerValue
167

@<SCITEGIC>MOL_PROPERTY
Delta U+W
SciTegic.value.DoubleValue
0.388

@<SCITEGIC>MOL_PROPERTY
U+W
SciTegic.value.DoubleValue
11.301

@<SCITEGIC>MOL_PROPERTY
Grad RMS
SciTegic.value.DoubleValue
0.000000

@<SCITEGIC>MOL_PROPERTY
U
SciTegic.value.DoubleValue
13.202

@<SCITEGIC>MOL_PROPERTY
W
SciTegic.value.DoubleValue
-1.901

@<SCITEGIC>MOL_PROPERTY
W(PB)
SciTegic.value.DoubleValue
-4.065

@<SCITEGIC>MOL_PROPERTY
W(SA)
SciTegic.value.DoubleValue
2.163

@<SCITEGIC>MOL_PROPERTY
Valence
SciTegic.value.DoubleValue
18.957

@<SCITEGIC>MOL_PROPERTY
Coulomb
SciTegic.value.DoubleValue
-8.753

@<SCITEGIC>MOL_PROPERTY
VdW
SciTegic.value.DoubleValue
2.998

@<SCITEGIC>MOL_PROPERTY
VdW6
SciTegic.value.DoubleValue
-12.294

@<SCITEGIC>MOL_PROPERTY
VdW12
SciTegic.value.DoubleValue
15.292

@<SCITEGIC>MOL_PROPERTY
Bond
SciTegic.value.DoubleValue
0.419

@<SCITEGIC>MOL_PROPERTY
Angle
SciTegic.value.DoubleValue
4.543

@<SCITEGIC>MOL_PROPERTY
Pdih
SciTegic.value.DoubleValue
13.996

@<SCITEGIC>MOL_PROPERTY
Idih
SciTegic.value.DoubleValue
0.000

@<SCITEGIC>MOL_PROPERTY
Tether
SciTegic.value.DoubleValue
0.000

@<TRIPOS>MOLECULE
guest-s17_confgen4.mol2 : confsearch ligand conformer 959
          25          25           1
SMALL
USER_CHARGES
 
@<TRIPOS>ATOM
       1    C1      18.317364   18.752785   22.404740 C.3        1 MOL1        -0.1684
       2    H1      18.006680   17.734787   22.133339 H          1 MOL1         0.0833
       3    H2      17.387010   19.326599   22.514727 H          1 MOL1         0.0833
       4    C2      19.113153   19.366601   21.223532 C.3        1 MOL1        -0.1684
       5    H3      19.785705   18.622378   20.782385 H          1 MOL1         0.0833
       6    H4      18.388983   19.585517   20.426859 H          1 MOL1         0.0833
       7    C3      19.883694   20.673169   21.546008 C.3        1 MOL1        -0.1684
       8    H5      19.421293   21.206871   22.386316 H          1 MOL1         0.0833
       9    H6      19.771213   21.344207   20.683475 H          1 MOL1         0.0833
      10    C4      21.407936   20.490121   21.781436 C.3        1 MOL1        -0.1760
      11    H7      21.854387   19.991492   20.911209 H          1 MOL1         0.0833
      12    H8      21.859588   21.490512   21.813297 H          1 MOL1         0.0833
      13    C5      21.832004   19.742652   23.070181 C.3        1 MOL1         0.1219
      14    H9      21.357998   20.223143   23.936554 H          1 MOL1         0.0790
      15    C6      21.498950   18.228142   23.062339 C.3        1 MOL1        -0.1760
      16    H10     21.383453   17.873380   22.033224 H          1 MOL1         0.0833
      17    H11     22.356600   17.662488   23.450175 H          1 MOL1         0.0833
      18    C7      20.264547   17.824334   23.909659 C.3        1 MOL1        -0.1684
      19    H12     20.567731   17.816427   24.965576 H          1 MOL1         0.0833
      20    H13     19.991852   16.787518   23.670488 H          1 MOL1         0.0833
      21    C8      19.008485   18.723855   23.791168 C.3        1 MOL1        -0.1684
      22    H14     19.231297   19.743101   24.126788 H          1 MOL1         0.0833
      23    H15     18.271146   18.350202   24.514727 H          1 MOL1         0.0833
      24    O1      23.241415   19.887754   23.199285 O.3        1 MOL1        -0.5508
      25    H16     23.489529   19.471807   24.051309 H          1 MOL1         0.3780
@<TRIPOS>BOND
    1     1     2    1
    2     1     3    1
    3     1     4    1
    4     4     5    1
    5     4     6    1
    6     4     7    1
    7     7     8    1
    8     7     9    1
    9     7    10    1
   10    10    11    1
   11    10    12    1
   12    10    13    1
   13    13    14    1
   14    13    15    1
   15    15    16    1
   16    15    17    1
   17    15    18    1
   18    18    19    1
   19    18    20    1
   20     1    21    1
   21    18    21    1
   22    21    22    1
   23    21    23    1
   24    13    24    1
   25    24    25    1
@<TRIPOS>SUBSTRUCTURE
       1 MOL1            1 RESIDUE      1      MOL     
@<SCITEGIC>MOL_PROPERTY
VConf Rank
SciTegic.value.IntegerValue
959

@<SCITEGIC>MOL_PROPERTY
Conf_Id
SciTegic.value.IntegerValue
60

@<SCITEGIC>MOL_PROPERTY
Delta U+W
SciTegic.value.DoubleValue
-1.838

@<SCITEGIC>MOL_PROPERTY
U+W
SciTegic.value.DoubleValue
9.075

@<SCITEGIC>MOL_PROPERTY
Grad RMS
SciTegic.value.DoubleValue
0.000000

@<SCITEGIC>MOL_PROPERTY
U
SciTegic.value.DoubleValue
11.150

@<SCITEGIC>MOL_PROPERTY
W
SciTegic.value.DoubleValue
-2.074

@<SCITEGIC>MOL_PROPERTY
W(PB)
SciTegic.value.DoubleValue
-4.196

@<SCITEGIC>MOL_PROPERTY
W(SA)
SciTegic.value.DoubleValue
2.121

@<SCITEGIC>MOL_PROPERTY
Valence
SciTegic.value.DoubleValue
16.582

@<SCITEGIC>MOL_PROPERTY
Coulomb
SciTegic.value.DoubleValue
-8.361

@<SCITEGIC>MOL_PROPERTY
VdW
SciTegic.value.DoubleValue
2.928

@<SCITEGIC>MOL_PROPERTY
VdW6
SciTegic.value.DoubleValue
-12.539

@<SCITEGIC>MOL_PROPERTY
VdW12
SciTegic.value.DoubleValue
15.467

@<SCITEGIC>MOL_PROPERTY
Bond
SciTegic.value.DoubleValue
0.441

@<SCITEGIC>MOL_PROPERTY
Angle
SciTegic.value.DoubleValue
5.093

@<SCITEGIC>MOL_PROPERTY
Pdih
SciTegic.value.DoubleValue
11.049

@<SCITEGIC>MOL_PROPERTY
Idih
SciTegic.value.DoubleValue
0.000

@<SCITEGIC>MOL_PROPERTY
Tether
SciTegic.value.DoubleValue
0.000

@<TRIPOS>MOLECULE
guest-s17_confgen4.mol2 : confsearch ligand conformer 960
          25          25           1
SMALL
USER_CHARGES
 
@<TRIPOS>ATOM
       1    C1      22.285636   18.553377   22.700499 C.3        1 MOL1        -0.1684
       2    H1      22.915663   18.707280   23.587000 H          1 MOL1         0.0833
       3    H2      22.932943   18.066213   21.958486 H          1 MOL1         0.0833
       4    C2      21.873750   19.929954   22.120802 C.3        1 MOL1        -0.1684
       5    H3      22.797240   20.454195   21.839449 H          1 MOL1         0.0833
       6    H4      21.333071   19.798991   21.176523 H          1 MOL1         0.0833
       7    C3      21.087318   20.864858   23.073876 C.3        1 MOL1        -0.1684
       8    H5      20.971923   21.832895   22.567385 H          1 MOL1         0.0833
       9    H6      21.694664   21.066540   23.966628 H          1 MOL1         0.0833
      10    C4      19.680178   20.389375   23.519557 C.3        1 MOL1        -0.1760
      11    H7      19.766243   19.675799   24.345194 H          1 MOL1         0.0833
      12    H8      19.170743   21.256090   23.961396 H          1 MOL1         0.0833
      13    C5      18.801386   19.793718   22.389228 C.3        1 MOL1         0.1219
      14    H9      19.181114   20.120207   21.411801 H          1 MOL1         0.0790
      15    C6      18.710909   18.247461   22.406802 C.3        1 MOL1        -0.1760
      16    H10     18.362662   17.917239   23.394182 H          1 MOL1         0.0833
      17    H11     17.923014   17.952373   21.701162 H          1 MOL1         0.0833
      18    C7      19.997046   17.465129   22.024628 C.3        1 MOL1        -0.1684
      19    H12     20.342021   17.749104   21.022071 H          1 MOL1         0.0833
      20    H13     19.715175   16.406561   21.941638 H          1 MOL1         0.0833
      21    C8      21.148856   17.560987   23.058549 C.3        1 MOL1        -0.1684
      22    H14     21.607061   16.566811   23.151796 H          1 MOL1         0.0833
      23    H15     20.752002   17.772079   24.057924 H          1 MOL1         0.0833
      24    O1      17.479300   20.296812   22.541375 O.3        1 MOL1        -0.5508
      25    H16     17.538795   21.271643   22.459643 H          1 MOL1         0.3780
@<TRIPOS>BOND
    1     1     2    1
    2     1     3    1
    3     1     4    1
    4     4     5    1
    5     4     6    1
    6     4     7    1
    7     7     8    1
    8     7     9    1
    9     7    10    1
   10    10    11    1
   11    10    12    1
   12    10    13    1
   13    13    14    1
   14    13    15    1
   15    15    16    1
   16    15    17    1
   17    15    18    1
   18    18    19    1
   19    18    20    1
   20     1    21    1
   21    18    21    1
   22    21    22    1
   23    21    23    1
   24    13    24    1
   25    24    25    1
@<TRIPOS>SUBSTRUCTURE
       1 MOL1            1 RESIDUE      1      MOL     
@<SCITEGIC>MOL_PROPERTY
VConf Rank
SciTegic.value.IntegerValue
960

@<SCITEGIC>MOL_PROPERTY
Conf_Id
SciTegic.value.IntegerValue
129

@<SCITEGIC>MOL_PROPERTY
Delta U+W
SciTegic.value.DoubleValue
-1.846

@<SCITEGIC>MOL_PROPERTY
U+W
SciTegic.value.DoubleValue
9.067

@<SCITEGIC>MOL_PROPERTY
Grad RMS
SciTegic.value.DoubleValue
0.000000

@<SCITEGIC>MOL_PROPERTY
U
SciTegic.value.DoubleValue
11.150

@<SCITEGIC>MOL_PROPERTY
W
SciTegic.value.DoubleValue
-2.083

@<SCITEGIC>MOL_PROPERTY
W(PB)
SciTegic.value.DoubleValue
-4.217

@<SCITEGIC>MOL_PROPERTY
W(SA)
SciTegic.value.DoubleValue
2.134

@<SCITEGIC>MOL_PROPERTY
Valence
SciTegic.value.DoubleValue
16.583

@<SCITEGIC>MOL_PROPERTY
Coulomb
SciTegic.value.DoubleValue
-8.361

@<SCITEGIC>MOL_PROPERTY
VdW
SciTegic.value.DoubleValue
2.928

@<SCITEGIC>MOL_PROPERTY
VdW6
SciTegic.value.DoubleValue
-12.539

@<SCITEGIC>MOL_PROPERTY
VdW12
SciTegic.value.DoubleValue
15.467

@<SCITEGIC>MOL_PROPERTY
Bond
SciTegic.value.DoubleValue
0.441

@<SCITEGIC>MOL_PROPERTY
Angle
SciTegic.value.DoubleValue
5.093

@<SCITEGIC>MOL_PROPERTY
Pdih
SciTegic.value.DoubleValue
11.049

@<SCITEGIC>MOL_PROPERTY
Idih
SciTegic.value.DoubleValue
0.000

@<SCITEGIC>MOL_PROPERTY
Tether
SciTegic.value.DoubleValue
0.000

@<TRIPOS>MOLECULE
guest-s17_confgen4.mol2 : confsearch ligand conformer 961
          25          25           1
SMALL
USER_CHARGES
 
@<TRIPOS>ATOM
       1    C1      20.683809   21.235508   22.651261 C.3        1 MOL1        -0.1684
       2    H1      21.702650   21.600188   22.462907 H          1 MOL1         0.0833
       3    H2      20.071020   22.134501   22.803640 H          1 MOL1         0.0833
       4    C2      20.664560   20.433159   23.976433 C.3        1 MOL1        -0.1684
       5    H3      20.971967   21.119510   24.777201 H          1 MOL1         0.0833
       6    H4      19.638116   20.149686   24.235769 H          1 MOL1         0.0833
       7    C3      21.601944   19.201401   24.042383 C.3        1 MOL1        -0.1684
       8    H5      21.564512   18.812394   25.069186 H          1 MOL1         0.0833
       9    H6      22.639403   19.525879   23.884617 H          1 MOL1         0.0833
      10    C4      21.289351   18.027193   23.078642 C.3        1 MOL1        -0.1760
      11    H7      21.699364   18.234788   22.084996 H          1 MOL1         0.0833
      12    H8      21.858733   17.159055   23.437467 H          1 MOL1         0.0833
      13    C5      19.789877   17.646536   22.972560 C.3        1 MOL1         0.1219
      14    H9      19.248873   18.025571   23.849782 H          1 MOL1         0.0790
      15    C6      19.093658   18.153930   21.684643 C.3        1 MOL1        -0.1760
      16    H10     19.649482   17.802032   20.805756 H          1 MOL1         0.0833
      17    H11     18.108264   17.672420   21.626500 H          1 MOL1         0.0833
      18    C7      18.869230   19.685781   21.565971 C.3        1 MOL1        -0.1684
      19    H12     18.277513   20.059500   22.411547 H          1 MOL1         0.0833
      20    H13     18.239323   19.849916   20.680961 H          1 MOL1         0.0833
      21    C8      20.163071   20.519598   21.378171 C.3        1 MOL1        -0.1684
      22    H14     19.961688   21.298582   20.630054 H          1 MOL1         0.0833
      23    H15     20.953360   19.908126   20.928343 H          1 MOL1         0.0833
      24    O1      19.690373   16.227996   22.975284 O.3        1 MOL1        -0.5508
      25    H16     20.175228   15.915162   22.184087 H          1 MOL1         0.3780
@<TRIPOS>BOND
    1     1     2    1
    2     1     3    1
    3     1     4    1
    4     4     5    1
    5     4     6    1
    6     4     7    1
    7     7     8    1
    8     7     9    1
    9     7    10    1
   10    10    11    1
   11    10    12    1
   12    10    13    1
   13    13    14    1
   14    13    15    1
   15    15    16    1
   16    15    17    1
   17    15    18    1
   18    18    19    1
   19    18    20    1
   20     1    21    1
   21    18    21    1
   22    21    22    1
   23    21    23    1
   24    13    24    1
   25    24    25    1
@<TRIPOS>SUBSTRUCTURE
       1 MOL1            1 RESIDUE      1      MOL     
@<SCITEGIC>MOL_PROPERTY
VConf Rank
SciTegic.value.IntegerValue
961

@<SCITEGIC>MOL_PROPERTY
Conf_Id
SciTegic.value.IntegerValue
140

@<SCITEGIC>MOL_PROPERTY
Delta U+W
SciTegic.value.DoubleValue
-1.702

@<SCITEGIC>MOL_PROPERTY
U+W
SciTegic.value.DoubleValue
9.211

@<SCITEGIC>MOL_PROPERTY
Grad RMS
SciTegic.value.DoubleValue
0.000000

@<SCITEGIC>MOL_PROPERTY
U
SciTegic.value.DoubleValue
11.181

@<SCITEGIC>MOL_PROPERTY
W
SciTegic.value.DoubleValue
-1.969

@<SCITEGIC>MOL_PROPERTY
W(PB)
SciTegic.value.DoubleValue
-4.093

@<SCITEGIC>MOL_PROPERTY
W(SA)
SciTegic.value.DoubleValue
2.124

@<SCITEGIC>MOL_PROPERTY
Valence
SciTegic.value.DoubleValue
16.954

@<SCITEGIC>MOL_PROPERTY
Coulomb
SciTegic.value.DoubleValue
-8.661

@<SCITEGIC>MOL_PROPERTY
VdW
SciTegic.value.DoubleValue
2.887

@<SCITEGIC>MOL_PROPERTY
VdW6
SciTegic.value.DoubleValue
-12.561

@<SCITEGIC>MOL_PROPERTY
VdW12
SciTegic.value.DoubleValue
15.448

@<SCITEGIC>MOL_PROPERTY
Bond
SciTegic.value.DoubleValue
0.433

@<SCITEGIC>MOL_PROPERTY
Angle
SciTegic.value.DoubleValue
5.120

@<SCITEGIC>MOL_PROPERTY
Pdih
SciTegic.value.DoubleValue
11.401

@<SCITEGIC>MOL_PROPERTY
Idih
SciTegic.value.DoubleValue
0.000

@<SCITEGIC>MOL_PROPERTY
Tether
SciTegic.value.DoubleValue
0.000

@<TRIPOS>MOLECULE
guest-s17_confgen4.mol2 : confsearch ligand conformer 962
          25          25           1
SMALL
USER_CHARGES
 
@<TRIPOS>ATOM
       1    C1      20.348107   17.180554   23.156569 C.3        1 MOL1        -0.1684
       2    H1      21.259626   16.736765   23.579290 H          1 MOL1         0.0833
       3    H2      19.620384   16.359862   23.094889 H          1 MOL1         0.0833
       4    C2      20.645168   17.657540   21.711340 C.3        1 MOL1        -0.1684
       5    H3      21.632480   18.129688   21.655714 H          1 MOL1         0.0833
       6    H4      20.737505   16.757781   21.087674 H          1 MOL1         0.0833
       7    C3      19.566396   18.574079   21.078288 C.3        1 MOL1        -0.1684
       8    H5      18.583831   18.402679   21.536528 H          1 MOL1         0.0833
       9    H6      19.449788   18.270562   20.028885 H          1 MOL1         0.0833
      10    C4      19.917230   20.086668   21.076207 C.3        1 MOL1        -0.1760
      11    H7      20.882784   20.231921   20.574389 H          1 MOL1         0.0833
      12    H8      19.174670   20.594909   20.446500 H          1 MOL1         0.0833
      13    C5      19.937228   20.802107   22.450484 C.3        1 MOL1         0.1219
      14    H9      18.981293   20.629185   22.962498 H          1 MOL1         0.0790
      15    C6      21.108714   20.377006   23.373242 C.3        1 MOL1        -0.1760
      16    H10     21.927510   19.958954   22.778815 H          1 MOL1         0.0833
      17    H11     21.538378   21.269835   23.847436 H          1 MOL1         0.0833
      18    C7      20.723905   19.400656   24.515142 C.3        1 MOL1        -0.1684
      19    H12     20.232268   19.984734   25.305203 H          1 MOL1         0.0833
      20    H13     21.641729   19.001348   24.967525 H          1 MOL1         0.0833
      21    C8      19.781310   18.227075   24.148410 C.3        1 MOL1        -0.1684
      22    H14     18.816056   18.605590   23.793147 H          1 MOL1         0.0833
      23    H15     19.543580   17.696856   25.080695 H          1 MOL1         0.0833
      24    O1      20.053686   22.196793   22.198598 O.3        1 MOL1        -0.5508
      25    H16     20.909116   22.324467   21.739379 H          1 MOL1         0.3780
@<TRIPOS>BOND
    1     1     2    1
    2     1     3    1
    3     1     4    1
    4     4     5    1
    5     4     6    1
    6     4     7    1
    7     7     8    1
    8     7     9    1
    9     7    10    1
   10    10    11    1
   11    10    12    1
   12    10    13    1
   13    13    14    1
   14    13    15    1
   15    15    16    1
   16    15    17    1
   17    15    18    1
   18    18    19    1
   19    18    20    1
   20     1    21    1
   21    18    21    1
   22    21    22    1
   23    21    23    1
   24    13    24    1
   25    24    25    1
@<TRIPOS>SUBSTRUCTURE
       1 MOL1            1 RESIDUE      1      MOL     
@<SCITEGIC>MOL_PROPERTY
VConf Rank
SciTegic.value.IntegerValue
962

@<SCITEGIC>MOL_PROPERTY
Conf_Id
SciTegic.value.IntegerValue
68

@<SCITEGIC>MOL_PROPERTY
Delta U+W
SciTegic.value.DoubleValue
-1.765

@<SCITEGIC>MOL_PROPERTY
U+W
SciTegic.value.DoubleValue
9.148

@<SCITEGIC>MOL_PROPERTY
Grad RMS
SciTegic.value.DoubleValue
0.000000

@<SCITEGIC>MOL_PROPERTY
U
SciTegic.value.DoubleValue
11.181

@<SCITEGIC>MOL_PROPERTY
W
SciTegic.value.DoubleValue
-2.032

@<SCITEGIC>MOL_PROPERTY
W(PB)
SciTegic.value.DoubleValue
-4.147

@<SCITEGIC>MOL_PROPERTY
W(SA)
SciTegic.value.DoubleValue
2.114

@<SCITEGIC>MOL_PROPERTY
Valence
SciTegic.value.DoubleValue
16.955

@<SCITEGIC>MOL_PROPERTY
Coulomb
SciTegic.value.DoubleValue
-8.661

@<SCITEGIC>MOL_PROPERTY
VdW
SciTegic.value.DoubleValue
2.887

@<SCITEGIC>MOL_PROPERTY
VdW6
SciTegic.value.DoubleValue
-12.561

@<SCITEGIC>MOL_PROPERTY
VdW12
SciTegic.value.DoubleValue
15.448

@<SCITEGIC>MOL_PROPERTY
Bond
SciTegic.value.DoubleValue
0.433

@<SCITEGIC>MOL_PROPERTY
Angle
SciTegic.value.DoubleValue
5.121

@<SCITEGIC>MOL_PROPERTY
Pdih
SciTegic.value.DoubleValue
11.402

@<SCITEGIC>MOL_PROPERTY
Idih
SciTegic.value.DoubleValue
0.000

@<SCITEGIC>MOL_PROPERTY
Tether
SciTegic.value.DoubleValue
0.000

@<TRIPOS>MOLECULE
guest-s17_confgen4.mol2 : confsearch ligand conformer 963
          25          25           1
SMALL
USER_CHARGES
 
@<TRIPOS>ATOM
       1    C1      20.059556   20.486358   21.327375 C.3        1 MOL1        -0.1684
       2    H1      19.975937   21.329716   20.628210 H          1 MOL1         0.0833
       3    H2      19.596351   19.647005   20.796510 H          1 MOL1         0.0833
       4    C2      19.251129   20.837556   22.603467 C.3        1 MOL1        -0.1684
       5    H3      19.899167   21.272146   23.375343 H          1 MOL1         0.0833
       6    H4      18.546868   21.637939   22.338095 H          1 MOL1         0.0833
       7    C3      18.410758   19.669807   23.183763 C.3        1 MOL1        -0.1684
       8    H5      17.737214   19.284087   22.406183 H          1 MOL1         0.0833
       9    H6      17.755181   20.084902   23.961419 H          1 MOL1         0.0833
      10    C4      19.198625   18.489137   23.811327 C.3        1 MOL1        -0.1760
      11    H7      19.855480   18.851162   24.611350 H          1 MOL1         0.0833
      12    H8      18.460857   17.847695   24.312187 H          1 MOL1         0.0833
      13    C5      19.989529   17.629648   22.791210 C.3        1 MOL1         0.1219
      14    H9      19.576972   17.794616   21.789149 H          1 MOL1         0.0790
      15    C6      21.514683   17.896360   22.762715 C.3        1 MOL1        -0.1760
      16    H10     21.971128   17.402046   23.630405 H          1 MOL1         0.0833
      17    H11     21.936473   17.401048   21.878496 H          1 MOL1         0.0833
      18    C7      21.975083   19.376847   22.778636 C.3        1 MOL1        -0.1684
      19    H12     23.072299   19.377449   22.831919 H          1 MOL1         0.0833
      20    H13     21.653236   19.868552   23.703812 H          1 MOL1         0.0833
      21    C8      21.572680   20.228270   21.548478 C.3        1 MOL1        -0.1684
      22    H14     21.993648   19.776231   20.640165 H          1 MOL1         0.0833
      23    H15     22.066982   21.204180   21.649779 H          1 MOL1         0.0833
      24    O1      19.801618   16.257209   23.113366 O.3        1 MOL1        -0.5508
      25    H16     20.159144   16.133170   24.016515 H          1 MOL1         0.3780
@<TRIPOS>BOND
    1     1     2    1
    2     1     3    1
    3     1     4    1
    4     4     5    1
    5     4     6    1
    6     4     7    1
    7     7     8    1
    8     7     9    1
    9     7    10    1
   10    10    11    1
   11    10    12    1
   12    10    13    1
   13    13    14    1
   14    13    15    1
   15    15    16    1
   16    15    17    1
   17    15    18    1
   18    18    19    1
   19    18    20    1
   20     1    21    1
   21    18    21    1
   22    21    22    1
   23    21    23    1
   24    13    24    1
   25    24    25    1
@<TRIPOS>SUBSTRUCTURE
       1 MOL1            1 RESIDUE      1      MOL     
@<SCITEGIC>MOL_PROPERTY
VConf Rank
SciTegic.value.IntegerValue
963

@<SCITEGIC>MOL_PROPERTY
Conf_Id
SciTegic.value.IntegerValue
165

@<SCITEGIC>MOL_PROPERTY
Delta U+W
SciTegic.value.DoubleValue
-1.999

@<SCITEGIC>MOL_PROPERTY
U+W
SciTegic.value.DoubleValue
8.915

@<SCITEGIC>MOL_PROPERTY
Grad RMS
SciTegic.value.DoubleValue
0.000000

@<SCITEGIC>MOL_PROPERTY
U
SciTegic.value.DoubleValue
10.935

@<SCITEGIC>MOL_PROPERTY
W
SciTegic.value.DoubleValue
-2.020

@<SCITEGIC>MOL_PROPERTY
W(PB)
SciTegic.value.DoubleValue
-4.135

@<SCITEGIC>MOL_PROPERTY
W(SA)
SciTegic.value.DoubleValue
2.115

@<SCITEGIC>MOL_PROPERTY
Valence
SciTegic.value.DoubleValue
16.757

@<SCITEGIC>MOL_PROPERTY
Coulomb
SciTegic.value.DoubleValue
-8.731

@<SCITEGIC>MOL_PROPERTY
VdW
SciTegic.value.DoubleValue
2.908

@<SCITEGIC>MOL_PROPERTY
VdW6
SciTegic.value.DoubleValue
-12.597

@<SCITEGIC>MOL_PROPERTY
VdW12
SciTegic.value.DoubleValue
15.506

@<SCITEGIC>MOL_PROPERTY
Bond
SciTegic.value.DoubleValue
0.434

@<SCITEGIC>MOL_PROPERTY
Angle
SciTegic.value.DoubleValue
5.069

@<SCITEGIC>MOL_PROPERTY
Pdih
SciTegic.value.DoubleValue
11.254

@<SCITEGIC>MOL_PROPERTY
Idih
SciTegic.value.DoubleValue
0.000

@<SCITEGIC>MOL_PROPERTY
Tether
SciTegic.value.DoubleValue
0.000

@<TRIPOS>MOLECULE
guest-s17_confgen4.mol2 : confsearch ligand conformer 964
          25          25           1
SMALL
USER_CHARGES
 
@<TRIPOS>ATOM
       1    C1      18.971858   18.421116   21.655276 C.3        1 MOL1        -0.1684
       2    H1      18.128109   18.047020   21.059270 H          1 MOL1         0.0833
       3    H2      19.720986   17.623645   21.594862 H          1 MOL1         0.0833
       4    C2      18.461425   18.586520   23.110457 C.3        1 MOL1        -0.1684
       5    H3      17.455373   19.025469   23.063667 H          1 MOL1         0.0833
       6    H4      18.329589   17.591840   23.557445 H          1 MOL1         0.0833
       7    C3      19.306095   19.469230   24.063187 C.3        1 MOL1        -0.1684
       8    H5      18.752400   19.553742   25.008164 H          1 MOL1         0.0833
       9    H6      19.361246   20.495620   23.682695 H          1 MOL1         0.0833
      10    C4      20.723297   18.940886   24.404394 C.3        1 MOL1        -0.1760
      11    H7      21.149056   19.609445   25.164837 H          1 MOL1         0.0833
      12    H8      20.629285   17.958036   24.883856 H          1 MOL1         0.0833
      13    C5      21.735564   18.828566   23.238007 C.3        1 MOL1         0.1219
      14    H9      21.511833   17.930696   22.650102 H          1 MOL1         0.0790
      15    C6      21.768486   20.055450   22.290455 C.3        1 MOL1        -0.1760
      16    H10     21.383640   20.949247   22.795567 H          1 MOL1         0.0833
      17    H11     22.817038   20.287183   22.059431 H          1 MOL1         0.0833
      18    C7      21.043792   19.842805   20.934508 C.3        1 MOL1        -0.1684
      19    H12     21.466009   18.961904   20.431782 H          1 MOL1         0.0833
      20    H13     21.288473   20.696280   20.287604 H          1 MOL1         0.0833
      21    C8      19.498343   19.716012   20.983285 C.3        1 MOL1        -0.1684
      22    H14     19.144108   19.715689   19.943320 H          1 MOL1         0.0833
      23    H15     19.048737   20.608289   21.437492 H          1 MOL1         0.0833
      24    O1      23.028313   18.664732   23.810259 O.3        1 MOL1        -0.5508
      25    H16     22.990484   17.859165   24.367099 H          1 MOL1         0.3780
@<TRIPOS>BOND
    1     1     2    1
    2     1     3    1
    3     1     4    1
    4     4     5    1
    5     4     6    1
    6     4     7    1
    7     7     8    1
    8     7     9    1
    9     7    10    1
   10    10    11    1
   11    10    12    1
   12    10    13    1
   13    13    14    1
   14    13    15    1
   15    15    16    1
   16    15    17    1
   17    15    18    1
   18    18    19    1
   19    18    20    1
   20     1    21    1
   21    18    21    1
   22    21    22    1
   23    21    23    1
   24    13    24    1
   25    24    25    1
@<TRIPOS>SUBSTRUCTURE
       1 MOL1            1 RESIDUE      1      MOL     
@<SCITEGIC>MOL_PROPERTY
VConf Rank
SciTegic.value.IntegerValue
964

@<SCITEGIC>MOL_PROPERTY
Conf_Id
SciTegic.value.IntegerValue
133

@<SCITEGIC>MOL_PROPERTY
Delta U+W
SciTegic.value.DoubleValue
-2.139

@<SCITEGIC>MOL_PROPERTY
U+W
SciTegic.value.DoubleValue
8.774

@<SCITEGIC>MOL_PROPERTY
Grad RMS
SciTegic.value.DoubleValue
0.000000

@<SCITEGIC>MOL_PROPERTY
U
SciTegic.value.DoubleValue
10.905

@<SCITEGIC>MOL_PROPERTY
W
SciTegic.value.DoubleValue
-2.131

@<SCITEGIC>MOL_PROPERTY
W(PB)
SciTegic.value.DoubleValue
-4.281

@<SCITEGIC>MOL_PROPERTY
W(SA)
SciTegic.value.DoubleValue
2.150

@<SCITEGIC>MOL_PROPERTY
Valence
SciTegic.value.DoubleValue
16.378

@<SCITEGIC>MOL_PROPERTY
Coulomb
SciTegic.value.DoubleValue
-8.448

@<SCITEGIC>MOL_PROPERTY
VdW
SciTegic.value.DoubleValue
2.976

@<SCITEGIC>MOL_PROPERTY
VdW6
SciTegic.value.DoubleValue
-12.570

@<SCITEGIC>MOL_PROPERTY
VdW12
SciTegic.value.DoubleValue
15.545

@<SCITEGIC>MOL_PROPERTY
Bond
SciTegic.value.DoubleValue
0.439

@<SCITEGIC>MOL_PROPERTY
Angle
SciTegic.value.DoubleValue
5.049

@<SCITEGIC>MOL_PROPERTY
Pdih
SciTegic.value.DoubleValue
10.889

@<SCITEGIC>MOL_PROPERTY
Idih
SciTegic.value.DoubleValue
0.000

@<SCITEGIC>MOL_PROPERTY
Tether
SciTegic.value.DoubleValue
0.000

@<TRIPOS>MOLECULE
guest-s17_confgen4.mol2 : confsearch ligand conformer 965
          25          25           1
SMALL
USER_CHARGES
 
@<TRIPOS>ATOM
       1    C1      20.818502   18.209744   21.233288 C.3        1 MOL1        -0.1684
       2    H1      21.220805   17.612534   20.403482 H          1 MOL1         0.0833
       3    H2      19.741362   18.255315   21.037082 H          1 MOL1         0.0833
       4    C2      21.447347   19.625395   21.155763 C.3        1 MOL1        -0.1684
       5    H3      22.331774   19.701227   21.801245 H          1 MOL1         0.0833
       6    H4      21.827017   19.762403   20.133955 H          1 MOL1         0.0833
       7    C3      20.462623   20.791860   21.432437 C.3        1 MOL1        -0.1684
       8    H5      19.611525   20.721972   20.741253 H          1 MOL1         0.0833
       9    H6      20.974575   21.729101   21.175027 H          1 MOL1         0.0833
      10    C4      19.933241   20.926953   22.885191 C.3        1 MOL1        -0.1760
      11    H7      20.766991   21.029857   23.589741 H          1 MOL1         0.0833
      12    H8      19.392840   21.881626   22.940851 H          1 MOL1         0.0833
      13    C5      18.972260   19.793847   23.328778 C.3        1 MOL1         0.1219
      14    H9      18.571568   19.297562   22.437148 H          1 MOL1         0.0790
      15    C6      19.610438   18.734033   24.260052 C.3        1 MOL1        -0.1760
      16    H10     19.686670   19.164342   25.267792 H          1 MOL1         0.0833
      17    H11     18.923434   17.882330   24.345737 H          1 MOL1         0.0833
      18    C7      21.016195   18.206552   23.873221 C.3        1 MOL1        -0.1684
      19    H12     21.342463   17.528278   24.673341 H          1 MOL1         0.0833
      20    H13     21.748420   19.022000   23.886774 H          1 MOL1         0.0833
      21    C8      21.106473   17.424025   22.539112 C.3        1 MOL1        -0.1684
      22    H14     20.441642   16.550778   22.583942 H          1 MOL1         0.0833
      23    H15     22.124479   17.017318   22.466610 H          1 MOL1         0.0833
      24    O1      17.880563   20.376524   24.031769 O.3        1 MOL1        -0.5508
      25    H16     17.269166   19.645341   24.259811 H          1 MOL1         0.3780
@<TRIPOS>BOND
    1     1     2    1
    2     1     3    1
    3     1     4    1
    4     4     5    1
    5     4     6    1
    6     4     7    1
    7     7     8    1
    8     7     9    1
    9     7    10    1
   10    10    11    1
   11    10    12    1
   12    10    13    1
   13    13    14    1
   14    13    15    1
   15    15    16    1
   16    15    17    1
   17    15    18    1
   18    18    19    1
   19    18    20    1
   20     1    21    1
   21    18    21    1
   22    21    22    1
   23    21    23    1
   24    13    24    1
   25    24    25    1
@<TRIPOS>SUBSTRUCTURE
       1 MOL1            1 RESIDUE      1      MOL     
@<SCITEGIC>MOL_PROPERTY
VConf Rank
SciTegic.value.IntegerValue
965

@<SCITEGIC>MOL_PROPERTY
Conf_Id
SciTegic.value.IntegerValue
95

@<SCITEGIC>MOL_PROPERTY
Delta U+W
SciTegic.value.DoubleValue
-2.190

@<SCITEGIC>MOL_PROPERTY
U+W
SciTegic.value.DoubleValue
8.723

@<SCITEGIC>MOL_PROPERTY
Grad RMS
SciTegic.value.DoubleValue
0.000000

@<SCITEGIC>MOL_PROPERTY
U
SciTegic.value.DoubleValue
10.905

@<SCITEGIC>MOL_PROPERTY
W
SciTegic.value.DoubleValue
-2.182

@<SCITEGIC>MOL_PROPERTY
W(PB)
SciTegic.value.DoubleValue
-4.296

@<SCITEGIC>MOL_PROPERTY
W(SA)
SciTegic.value.DoubleValue
2.114

@<SCITEGIC>MOL_PROPERTY
Valence
SciTegic.value.DoubleValue
16.377

@<SCITEGIC>MOL_PROPERTY
Coulomb
SciTegic.value.DoubleValue
-8.448

@<SCITEGIC>MOL_PROPERTY
VdW
SciTegic.value.DoubleValue
2.976

@<SCITEGIC>MOL_PROPERTY
VdW6
SciTegic.value.DoubleValue
-12.570

@<SCITEGIC>MOL_PROPERTY
VdW12
SciTegic.value.DoubleValue
15.546

@<SCITEGIC>MOL_PROPERTY
Bond
SciTegic.value.DoubleValue
0.439

@<SCITEGIC>MOL_PROPERTY
Angle
SciTegic.value.DoubleValue
5.049

@<SCITEGIC>MOL_PROPERTY
Pdih
SciTegic.value.DoubleValue
10.889

@<SCITEGIC>MOL_PROPERTY
Idih
SciTegic.value.DoubleValue
0.000

@<SCITEGIC>MOL_PROPERTY
Tether
SciTegic.value.DoubleValue
0.000

@<TRIPOS>MOLECULE
guest-s17_confgen4.mol2 : confsearch ligand conformer 966
          25          25           1
SMALL
USER_CHARGES
 
@<TRIPOS>ATOM
       1    C1      18.995427   20.411900   23.000210 C.3        1 MOL1        -0.1684
       2    H1      18.263591   21.168595   23.314423 H          1 MOL1         0.0833
       3    H2      18.509849   19.928080   22.146765 H          1 MOL1         0.0833
       4    C2      19.158841   19.416560   24.186302 C.3        1 MOL1        -0.1684
       5    H3      19.064369   19.995397   25.115260 H          1 MOL1         0.0833
       6    H4      18.308411   18.721407   24.187954 H          1 MOL1         0.0833
       7    C3      20.479988   18.610158   24.290124 C.3        1 MOL1        -0.1684
       8    H5      20.460192   18.060690   25.241182 H          1 MOL1         0.0833
       9    H6      21.317970   19.303536   24.412762 H          1 MOL1         0.0833
      10    C4      20.777880   17.572863   23.166824 C.3        1 MOL1        -0.1760
      11    H7      21.854789   17.359433   23.157550 H          1 MOL1         0.0833
      12    H8      20.291549   16.633345   23.460169 H          1 MOL1         0.0833
      13    C5      20.313863   17.899465   21.724704 C.3        1 MOL1         0.1219
      14    H9      19.231607   18.064080   21.745683 H          1 MOL1         0.0790
      15    C6      21.008545   19.097085   21.014975 C.3        1 MOL1        -0.1760
      16    H10     21.927346   18.723508   20.543212 H          1 MOL1         0.0833
      17    H11     20.366214   19.427572   20.188852 H          1 MOL1         0.0833
      18    C7      21.409387   20.331878   21.866814 C.3        1 MOL1        -0.1684
      19    H12     21.975486   21.013276   21.217244 H          1 MOL1         0.0833
      20    H13     22.143081   20.028573   22.620319 H          1 MOL1         0.0833
      21    C8      20.262742   21.163007   22.513294 C.3        1 MOL1        -0.1684
      22    H14     19.931666   21.900379   21.769291 H          1 MOL1         0.0833
      23    H15     20.675404   21.751249   23.344032 H          1 MOL1         0.0833
      24    O1      20.549552   16.742821   20.930198 O.3        1 MOL1        -0.5508
      25    H16     20.055332   16.007090   21.347934 H          1 MOL1         0.3780
@<TRIPOS>BOND
    1     1     2    1
    2     1     3    1
    3     1     4    1
    4     4     5    1
    5     4     6    1
    6     4     7    1
    7     7     8    1
    8     7     9    1
    9     7    10    1
   10    10    11    1
   11    10    12    1
   12    10    13    1
   13    13    14    1
   14    13    15    1
   15    15    16    1
   16    15    17    1
   17    15    18    1
   18    18    19    1
   19    18    20    1
   20     1    21    1
   21    18    21    1
   22    21    22    1
   23    21    23    1
   24    13    24    1
   25    24    25    1
@<TRIPOS>SUBSTRUCTURE
       1 MOL1            1 RESIDUE      1      MOL     
@<SCITEGIC>MOL_PROPERTY
VConf Rank
SciTegic.value.IntegerValue
966

@<SCITEGIC>MOL_PROPERTY
Conf_Id
SciTegic.value.IntegerValue
161

@<SCITEGIC>MOL_PROPERTY
Delta U+W
SciTegic.value.DoubleValue
2.120

@<SCITEGIC>MOL_PROPERTY
U+W
SciTegic.value.DoubleValue
13.033

@<SCITEGIC>MOL_PROPERTY
Grad RMS
SciTegic.value.DoubleValue
0.000000

@<SCITEGIC>MOL_PROPERTY
U
SciTegic.value.DoubleValue
15.076

@<SCITEGIC>MOL_PROPERTY
W
SciTegic.value.DoubleValue
-2.043

@<SCITEGIC>MOL_PROPERTY
W(PB)
SciTegic.value.DoubleValue
-4.186

@<SCITEGIC>MOL_PROPERTY
W(SA)
SciTegic.value.DoubleValue
2.143

@<SCITEGIC>MOL_PROPERTY
Valence
SciTegic.value.DoubleValue
18.884

@<SCITEGIC>MOL_PROPERTY
Coulomb
SciTegic.value.DoubleValue
-8.074

@<SCITEGIC>MOL_PROPERTY
VdW
SciTegic.value.DoubleValue
4.266

@<SCITEGIC>MOL_PROPERTY
VdW6
SciTegic.value.DoubleValue
-13.486

@<SCITEGIC>MOL_PROPERTY
VdW12
SciTegic.value.DoubleValue
17.752

@<SCITEGIC>MOL_PROPERTY
Bond
SciTegic.value.DoubleValue
0.713

@<SCITEGIC>MOL_PROPERTY
Angle
SciTegic.value.DoubleValue
8.955

@<SCITEGIC>MOL_PROPERTY
Pdih
SciTegic.value.DoubleValue
9.215

@<SCITEGIC>MOL_PROPERTY
Idih
SciTegic.value.DoubleValue
0.000

@<SCITEGIC>MOL_PROPERTY
Tether
SciTegic.value.DoubleValue
0.000

@<TRIPOS>MOLECULE
guest-s17_confgen4.mol2 : confsearch ligand conformer 967
          25          25           1
SMALL
USER_CHARGES
 
@<TRIPOS>ATOM
       1    C1      19.815327   20.863542   21.681991 C.3        1 MOL1        -0.1684
       2    H1      19.427278   21.848366   21.387837 H          1 MOL1         0.0833
       3    H2      20.111111   20.386692   20.738932 H          1 MOL1         0.0833
       4    C2      18.657367   20.068829   22.335626 C.3        1 MOL1        -0.1684
       5    H3      18.586274   20.293741   23.408262 H          1 MOL1         0.0833
       6    H4      17.723998   20.447961   21.897160 H          1 MOL1         0.0833
       7    C3      18.682348   18.535552   22.083105 C.3        1 MOL1        -0.1684
       8    H5      19.029370   18.306850   21.066464 H          1 MOL1         0.0833
       9    H6      17.639489   18.191416   22.117956 H          1 MOL1         0.0833
      10    C4      19.464385   17.703895   23.132505 C.3        1 MOL1        -0.1760
      11    H7      19.360508   18.162559   24.123366 H          1 MOL1         0.0833
      12    H8      18.970004   16.727360   23.219683 H          1 MOL1         0.0833
      13    C5      20.952298   17.416380   22.808038 C.3        1 MOL1         0.1219
      14    H9      20.983620   16.705722   21.969732 H          1 MOL1         0.0790
      15    C6      21.818826   18.635084   22.414625 C.3        1 MOL1        -0.1760
      16    H10     22.873494   18.329919   22.439810 H          1 MOL1         0.0833
      17    H11     21.631155   18.880802   21.363833 H          1 MOL1         0.0833
      18    C7      21.637640   19.884958   23.316964 C.3        1 MOL1        -0.1684
      19    H12     22.615109   20.165486   23.732400 H          1 MOL1         0.0833
      20    H13     21.015340   19.657872   24.190048 H          1 MOL1         0.0833
      21    C8      21.055488   21.114885   22.580038 C.3        1 MOL1        -0.1684
      22    H14     21.844120   21.558900   21.957367 H          1 MOL1         0.0833
      23    H15     20.802367   21.876963   23.329669 H          1 MOL1         0.0833
      24    O1      21.539279   16.804921   23.948186 O.3        1 MOL1        -0.5508
      25    H16     21.616747   17.511403   24.621010 H          1 MOL1         0.3780
@<TRIPOS>BOND
    1     1     2    1
    2     1     3    1
    3     1     4    1
    4     4     5    1
    5     4     6    1
    6     4     7    1
    7     7     8    1
    8     7     9    1
    9     7    10    1
   10    10    11    1
   11    10    12    1
   12    10    13    1
   13    13    14    1
   14    13    15    1
   15    15    16    1
   16    15    17    1
   17    15    18    1
   18    18    19    1
   19    18    20    1
   20     1    21    1
   21    18    21    1
   22    21    22    1
   23    21    23    1
   24    13    24    1
   25    24    25    1
@<TRIPOS>SUBSTRUCTURE
       1 MOL1            1 RESIDUE      1      MOL     
@<SCITEGIC>MOL_PROPERTY
VConf Rank
SciTegic.value.IntegerValue
967

@<SCITEGIC>MOL_PROPERTY
Conf_Id
SciTegic.value.IntegerValue
164

@<SCITEGIC>MOL_PROPERTY
Delta U+W
SciTegic.value.DoubleValue
0.008

@<SCITEGIC>MOL_PROPERTY
U+W
SciTegic.value.DoubleValue
10.922

@<SCITEGIC>MOL_PROPERTY
Grad RMS
SciTegic.value.DoubleValue
0.000000

@<SCITEGIC>MOL_PROPERTY
U
SciTegic.value.DoubleValue
12.433

@<SCITEGIC>MOL_PROPERTY
W
SciTegic.value.DoubleValue
-1.511

@<SCITEGIC>MOL_PROPERTY
W(PB)
SciTegic.value.DoubleValue
-3.669

@<SCITEGIC>MOL_PROPERTY
W(SA)
SciTegic.value.DoubleValue
2.157

@<SCITEGIC>MOL_PROPERTY
Valence
SciTegic.value.DoubleValue
19.007

@<SCITEGIC>MOL_PROPERTY
Coulomb
SciTegic.value.DoubleValue
-9.373

@<SCITEGIC>MOL_PROPERTY
VdW
SciTegic.value.DoubleValue
2.799

@<SCITEGIC>MOL_PROPERTY
VdW6
SciTegic.value.DoubleValue
-12.597

@<SCITEGIC>MOL_PROPERTY
VdW12
SciTegic.value.DoubleValue
15.396

@<SCITEGIC>MOL_PROPERTY
Bond
SciTegic.value.DoubleValue
0.425

@<SCITEGIC>MOL_PROPERTY
Angle
SciTegic.value.DoubleValue
4.784

@<SCITEGIC>MOL_PROPERTY
Pdih
SciTegic.value.DoubleValue
13.799

@<SCITEGIC>MOL_PROPERTY
Idih
SciTegic.value.DoubleValue
0.000

@<SCITEGIC>MOL_PROPERTY
Tether
SciTegic.value.DoubleValue
0.000

@<TRIPOS>MOLECULE
guest-s17_confgen4.mol2 : confsearch ligand conformer 968
          25          25           1
SMALL
USER_CHARGES
 
@<TRIPOS>ATOM
       1    C1      18.726717   18.415443   23.038200 C.3        1 MOL1        -0.1684
       2    H1      19.011183   18.959592   23.945891 H          1 MOL1         0.0833
       3    H2      17.769666   17.938827   23.290318 H          1 MOL1         0.0833
       4    C2      19.741908   17.282253   22.746675 C.3        1 MOL1        -0.1684
       5    H3      19.735564   16.604623   23.611360 H          1 MOL1         0.0833
       6    H4      19.383893   16.683800   21.898037 H          1 MOL1         0.0833
       7    C3      21.211172   17.700080   22.483151 C.3        1 MOL1        -0.1684
       8    H5      21.344978   17.998038   21.437024 H          1 MOL1         0.0833
       9    H6      21.829017   16.798299   22.592984 H          1 MOL1         0.0833
      10    C4      21.771150   18.790122   23.435521 C.3        1 MOL1        -0.1760
      11    H7      21.227005   18.796737   24.387699 H          1 MOL1         0.0833
      12    H8      22.799882   18.502686   23.691121 H          1 MOL1         0.0833
      13    C5      21.837002   20.214328   22.829077 C.3        1 MOL1         0.1219
      14    H9      22.384621   20.156397   21.877575 H          1 MOL1         0.0790
      15    C6      20.482121   20.917584   22.564114 C.3        1 MOL1        -0.1760
      16    H10     19.895585   20.994183   23.487633 H          1 MOL1         0.0833
      17    H11     20.709165   21.953287   22.277743 H          1 MOL1         0.0833
      18    C7      19.637385   20.297490   21.419261 C.3        1 MOL1        -0.1684
      19    H12     20.280716   19.754527   20.717563 H          1 MOL1         0.0833
      20    H13     19.212172   21.117168   20.824008 H          1 MOL1         0.0833
      21    C8      18.455882   19.404739   21.877312 C.3        1 MOL1        -0.1684
      22    H14     18.071076   18.850499   21.010566 H          1 MOL1         0.0833
      23    H15     17.637955   20.066559   22.193367 H          1 MOL1         0.0833
      24    O1      22.577854   21.030515   23.725836 O.3        1 MOL1        -0.5508
      25    H16     22.064971   21.061033   24.559387 H          1 MOL1         0.3780
@<TRIPOS>BOND
    1     1     2    1
    2     1     3    1
    3     1     4    1
    4     4     5    1
    5     4     6    1
    6     4     7    1
    7     7     8    1
    8     7     9    1
    9     7    10    1
   10    10    11    1
   11    10    12    1
   12    10    13    1
   13    13    14    1
   14    13    15    1
   15    15    16    1
   16    15    17    1
   17    15    18    1
   18    18    19    1
   19    18    20    1
   20     1    21    1
   21    18    21    1
   22    21    22    1
   23    21    23    1
   24    13    24    1
   25    24    25    1
@<TRIPOS>SUBSTRUCTURE
       1 MOL1            1 RESIDUE      1      MOL     
@<SCITEGIC>MOL_PROPERTY
VConf Rank
SciTegic.value.IntegerValue
968

@<SCITEGIC>MOL_PROPERTY
Conf_Id
SciTegic.value.IntegerValue
15

@<SCITEGIC>MOL_PROPERTY
Delta U+W
SciTegic.value.DoubleValue
-1.271

@<SCITEGIC>MOL_PROPERTY
U+W
SciTegic.value.DoubleValue
9.643

@<SCITEGIC>MOL_PROPERTY
Grad RMS
SciTegic.value.DoubleValue
0.000000

@<SCITEGIC>MOL_PROPERTY
U
SciTegic.value.DoubleValue
11.413

@<SCITEGIC>MOL_PROPERTY
W
SciTegic.value.DoubleValue
-1.770

@<SCITEGIC>MOL_PROPERTY
W(PB)
SciTegic.value.DoubleValue
-3.908

@<SCITEGIC>MOL_PROPERTY
W(SA)
SciTegic.value.DoubleValue
2.138

@<SCITEGIC>MOL_PROPERTY
Valence
SciTegic.value.DoubleValue
17.496

@<SCITEGIC>MOL_PROPERTY
Coulomb
SciTegic.value.DoubleValue
-8.736

@<SCITEGIC>MOL_PROPERTY
VdW
SciTegic.value.DoubleValue
2.653

@<SCITEGIC>MOL_PROPERTY
VdW6
SciTegic.value.DoubleValue
-12.485

@<SCITEGIC>MOL_PROPERTY
VdW12
SciTegic.value.DoubleValue
15.138

@<SCITEGIC>MOL_PROPERTY
Bond
SciTegic.value.DoubleValue
0.414

@<SCITEGIC>MOL_PROPERTY
Angle
SciTegic.value.DoubleValue
5.295

@<SCITEGIC>MOL_PROPERTY
Pdih
SciTegic.value.DoubleValue
11.787

@<SCITEGIC>MOL_PROPERTY
Idih
SciTegic.value.DoubleValue
0.000

@<SCITEGIC>MOL_PROPERTY
Tether
SciTegic.value.DoubleValue
0.000

@<TRIPOS>MOLECULE
guest-s17_confgen4.mol2 : confsearch ligand conformer 969
          25          25           1
SMALL
USER_CHARGES
 
@<TRIPOS>ATOM
       1    C1      21.254147   20.062326   24.105480 C.3        1 MOL1        -0.1684
       2    H1      21.933765   20.424665   24.888942 H          1 MOL1         0.0833
       3    H2      20.249054   20.185464   24.528316 H          1 MOL1         0.0833
       4    C2      21.447073   20.987377   22.875080 C.3        1 MOL1        -0.1684
       5    H3      21.083155   21.989109   23.141389 H          1 MOL1         0.0833
       6    H4      22.522373   21.102130   22.681856 H          1 MOL1         0.0833
       7    C3      20.762282   20.544769   21.559598 C.3        1 MOL1        -0.1684
       8    H5      21.357805   19.757394   21.082981 H          1 MOL1         0.0833
       9    H6      20.798026   21.387923   20.856320 H          1 MOL1         0.0833
      10    C4      19.286019   20.101362   21.731335 C.3        1 MOL1        -0.1760
      11    H7      18.924286   20.328529   22.740262 H          1 MOL1         0.0833
      12    H8      18.661287   20.709425   21.064128 H          1 MOL1         0.0833
      13    C5      19.019294   18.616277   21.394218 C.3        1 MOL1         0.1219
      14    H9      19.060790   18.511159   20.300574 H          1 MOL1         0.0790
      15    C6      20.009081   17.581755   21.989674 C.3        1 MOL1        -0.1760
      16    H10     19.584388   16.586561   21.801104 H          1 MOL1         0.0833
      17    H11     20.947321   17.590458   21.422099 H          1 MOL1         0.0833
      18    C7      20.314106   17.692950   23.507448 C.3        1 MOL1        -0.1684
      19    H12     20.525345   16.675057   23.862995 H          1 MOL1         0.0833
      20    H13     19.427250   18.015835   24.067843 H          1 MOL1         0.0833
      21    C8      21.550323   18.560046   23.873086 C.3        1 MOL1        -0.1684
      22    H14     22.357823   18.430077   23.140121 H          1 MOL1         0.0833
      23    H15     21.948662   18.163946   24.817335 H          1 MOL1         0.0833
      24    O1      17.708275   18.290223   21.833906 O.3        1 MOL1        -0.5508
      25    H16     17.742707   18.303728   22.811544 H          1 MOL1         0.3780
@<TRIPOS>BOND
    1     1     2    1
    2     1     3    1
    3     1     4    1
    4     4     5    1
    5     4     6    1
    6     4     7    1
    7     7     8    1
    8     7     9    1
    9     7    10    1
   10    10    11    1
   11    10    12    1
   12    10    13    1
   13    13    14    1
   14    13    15    1
   15    15    16    1
   16    15    17    1
   17    15    18    1
   18    18    19    1
   19    18    20    1
   20     1    21    1
   21    18    21    1
   22    21    22    1
   23    21    23    1
   24    13    24    1
   25    24    25    1
@<TRIPOS>SUBSTRUCTURE
       1 MOL1            1 RESIDUE      1      MOL     
@<SCITEGIC>MOL_PROPERTY
VConf Rank
SciTegic.value.IntegerValue
969

@<SCITEGIC>MOL_PROPERTY
Conf_Id
SciTegic.value.IntegerValue
115

@<SCITEGIC>MOL_PROPERTY
Delta U+W
SciTegic.value.DoubleValue
0.038

@<SCITEGIC>MOL_PROPERTY
U+W
SciTegic.value.DoubleValue
10.952

@<SCITEGIC>MOL_PROPERTY
Grad RMS
SciTegic.value.DoubleValue
0.000000

@<SCITEGIC>MOL_PROPERTY
U
SciTegic.value.DoubleValue
12.526

@<SCITEGIC>MOL_PROPERTY
W
SciTegic.value.DoubleValue
-1.575

@<SCITEGIC>MOL_PROPERTY
W(PB)
SciTegic.value.DoubleValue
-3.698

@<SCITEGIC>MOL_PROPERTY
W(SA)
SciTegic.value.DoubleValue
2.123

@<SCITEGIC>MOL_PROPERTY
Valence
SciTegic.value.DoubleValue
19.016

@<SCITEGIC>MOL_PROPERTY
Coulomb
SciTegic.value.DoubleValue
-9.226

@<SCITEGIC>MOL_PROPERTY
VdW
SciTegic.value.DoubleValue
2.737

@<SCITEGIC>MOL_PROPERTY
VdW6
SciTegic.value.DoubleValue
-12.612

@<SCITEGIC>MOL_PROPERTY
VdW12
SciTegic.value.DoubleValue
15.349

@<SCITEGIC>MOL_PROPERTY
Bond
SciTegic.value.DoubleValue
0.421

@<SCITEGIC>MOL_PROPERTY
Angle
SciTegic.value.DoubleValue
4.883

@<SCITEGIC>MOL_PROPERTY
Pdih
SciTegic.value.DoubleValue
13.711

@<SCITEGIC>MOL_PROPERTY
Idih
SciTegic.value.DoubleValue
0.000

@<SCITEGIC>MOL_PROPERTY
Tether
SciTegic.value.DoubleValue
0.000

@<TRIPOS>MOLECULE
guest-s17_confgen4.mol2 : confsearch ligand conformer 970
          25          25           1
SMALL
USER_CHARGES
 
@<TRIPOS>ATOM
       1    C1      21.250213   20.164824   24.364727 C.3        1 MOL1        -0.1684
       2    H1      21.400705   20.307049   25.443667 H          1 MOL1         0.0833
       3    H2      22.086828   20.685857   23.879880 H          1 MOL1         0.0833
       4    C2      19.912863   20.846328   23.992461 C.3        1 MOL1        -0.1684
       5    H3      19.090433   20.404334   24.571119 H          1 MOL1         0.0833
       6    H4      19.975171   21.892954   24.320625 H          1 MOL1         0.0833
       7    C3      19.568996   20.839921   22.484943 C.3        1 MOL1        -0.1684
       8    H5      20.465088   21.057306   21.888503 H          1 MOL1         0.0833
       9    H6      18.885311   21.679948   22.300301 H          1 MOL1         0.0833
      10    C4      18.861551   19.547302   21.996478 C.3        1 MOL1        -0.1760
      11    H7      18.505965   18.943874   22.841015 H          1 MOL1         0.0833
      12    H8      17.956425   19.854197   21.455070 H          1 MOL1         0.0833
      13    C5      19.710642   18.675007   21.044586 C.3        1 MOL1         0.1219
      14    H9      20.315833   19.332551   20.404234 H          1 MOL1         0.0790
      15    C6      20.643192   17.667867   21.753426 C.3        1 MOL1        -0.1760
      16    H10     20.049011   16.963115   22.349970 H          1 MOL1         0.0833
      17    H11     21.130528   17.064486   20.976350 H          1 MOL1         0.0833
      18    C7      21.758434   18.295065   22.624934 C.3        1 MOL1        -0.1684
      19    H12     22.199142   19.162845   22.116245 H          1 MOL1         0.0833
      20    H13     22.569889   17.557839   22.697518 H          1 MOL1         0.0833
      21    C8      21.322412   18.647883   24.071104 C.3        1 MOL1        -0.1684
      22    H14     22.069415   18.218776   24.753054 H          1 MOL1         0.0833
      23    H15     20.374507   18.160782   24.335747 H          1 MOL1         0.0833
      24    O1      18.822264   17.928530   20.221662 O.3        1 MOL1        -0.5508
      25    H16     19.377025   17.424115   19.590678 H          1 MOL1         0.3780
@<TRIPOS>BOND
    1     1     2    1
    2     1     3    1
    3     1     4    1
    4     4     5    1
    5     4     6    1
    6     4     7    1
    7     7     8    1
    8     7     9    1
    9     7    10    1
   10    10    11    1
   11    10    12    1
   12    10    13    1
   13    13    14    1
   14    13    15    1
   15    15    16    1
   16    15    17    1
   17    15    18    1
   18    18    19    1
   19    18    20    1
   20     1    21    1
   21    18    21    1
   22    21    22    1
   23    21    23    1
   24    13    24    1
   25    24    25    1
@<TRIPOS>SUBSTRUCTURE
       1 MOL1            1 RESIDUE      1      MOL     
@<SCITEGIC>MOL_PROPERTY
VConf Rank
SciTegic.value.IntegerValue
970

@<SCITEGIC>MOL_PROPERTY
Conf_Id
SciTegic.value.IntegerValue
30

@<SCITEGIC>MOL_PROPERTY
Delta U+W
SciTegic.value.DoubleValue
0.000

@<SCITEGIC>MOL_PROPERTY
U+W
SciTegic.value.DoubleValue
10.913

@<SCITEGIC>MOL_PROPERTY
Grad RMS
SciTegic.value.DoubleValue
0.000000

@<SCITEGIC>MOL_PROPERTY
U
SciTegic.value.DoubleValue
13.140

@<SCITEGIC>MOL_PROPERTY
W
SciTegic.value.DoubleValue
-2.227

@<SCITEGIC>MOL_PROPERTY
W(PB)
SciTegic.value.DoubleValue
-4.367

@<SCITEGIC>MOL_PROPERTY
W(SA)
SciTegic.value.DoubleValue
2.140

@<SCITEGIC>MOL_PROPERTY
Valence
SciTegic.value.DoubleValue
19.155

@<SCITEGIC>MOL_PROPERTY
Coulomb
SciTegic.value.DoubleValue
-8.157

@<SCITEGIC>MOL_PROPERTY
VdW
SciTegic.value.DoubleValue
2.142

@<SCITEGIC>MOL_PROPERTY
VdW6
SciTegic.value.DoubleValue
-11.576

@<SCITEGIC>MOL_PROPERTY
VdW12
SciTegic.value.DoubleValue
13.718

@<SCITEGIC>MOL_PROPERTY
Bond
SciTegic.value.DoubleValue
0.294

@<SCITEGIC>MOL_PROPERTY
Angle
SciTegic.value.DoubleValue
3.547

@<SCITEGIC>MOL_PROPERTY
Pdih
SciTegic.value.DoubleValue
15.314

@<SCITEGIC>MOL_PROPERTY
Idih
SciTegic.value.DoubleValue
0.000

@<SCITEGIC>MOL_PROPERTY
Tether
SciTegic.value.DoubleValue
0.000

@<TRIPOS>MOLECULE
guest-s17_confgen4.mol2 : confsearch ligand conformer 971
          25          25           1
SMALL
USER_CHARGES
 
@<TRIPOS>ATOM
       1    C1      21.213941   20.715069   21.399293 C.3        1 MOL1        -0.1684
       2    H1      21.212414   20.880697   20.313281 H          1 MOL1         0.0833
       3    H2      21.890322   21.474693   21.814327 H          1 MOL1         0.0833
       4    C2      21.820985   19.318821   21.682269 C.3        1 MOL1        -0.1684
       5    H3      22.709019   19.200852   21.046385 H          1 MOL1         0.0833
       6    H4      22.208353   19.286572   22.707189 H          1 MOL1         0.0833
       7    C3      20.858153   18.134893   21.411957 C.3        1 MOL1        -0.1684
       8    H5      21.336773   17.445734   20.702966 H          1 MOL1         0.0833
       9    H6      19.949811   18.475087   20.901254 H          1 MOL1         0.0833
      10    C4      20.474554   17.329957   22.679429 C.3        1 MOL1        -0.1760
      11    H7      19.656018   16.645242   22.420732 H          1 MOL1         0.0833
      12    H8      21.324366   16.692577   22.956436 H          1 MOL1         0.0833
      13    C5      20.072425   18.147408   23.932523 C.3        1 MOL1         0.1219
      14    H9      20.964272   18.636315   24.346727 H          1 MOL1         0.0790
      15    C6      18.984218   19.222812   23.694601 C.3        1 MOL1        -0.1760
      16    H10     18.298838   18.902522   22.899478 H          1 MOL1         0.0833
      17    H11     18.366669   19.289644   24.600229 H          1 MOL1         0.0833
      18    C7      19.526071   20.653469   23.416455 C.3        1 MOL1        -0.1684
      19    H12     20.420598   20.864010   24.018050 H          1 MOL1         0.0833
      20    H13     18.762615   21.358520   23.773213 H          1 MOL1         0.0833
      21    C8      19.777859   20.981540   21.923882 C.3        1 MOL1        -0.1684
      22    H14     19.577001   22.051421   21.775298 H          1 MOL1         0.0833
      23    H15     19.036645   20.469283   21.297364 H          1 MOL1         0.0833
      24    O1      19.586835   17.223012   24.898914 O.3        1 MOL1        -0.5508
      25    H16     19.409880   17.735152   25.715525 H          1 MOL1         0.3780
@<TRIPOS>BOND
    1     1     2    1
    2     1     3    1
    3     1     4    1
    4     4     5    1
    5     4     6    1
    6     4     7    1
    7     7     8    1
    8     7     9    1
    9     7    10    1
   10    10    11    1
   11    10    12    1
   12    10    13    1
   13    13    14    1
   14    13    15    1
   15    15    16    1
   16    15    17    1
   17    15    18    1
   18    18    19    1
   19    18    20    1
   20     1    21    1
   21    18    21    1
   22    21    22    1
   23    21    23    1
   24    13    24    1
   25    24    25    1
@<TRIPOS>SUBSTRUCTURE
       1 MOL1            1 RESIDUE      1      MOL     
@<SCITEGIC>MOL_PROPERTY
VConf Rank
SciTegic.value.IntegerValue
971

@<SCITEGIC>MOL_PROPERTY
Conf_Id
SciTegic.value.IntegerValue
162

@<SCITEGIC>MOL_PROPERTY
Delta U+W
SciTegic.value.DoubleValue
0.219

@<SCITEGIC>MOL_PROPERTY
U+W
SciTegic.value.DoubleValue
11.132

@<SCITEGIC>MOL_PROPERTY
Grad RMS
SciTegic.value.DoubleValue
0.000000

@<SCITEGIC>MOL_PROPERTY
U
SciTegic.value.DoubleValue
13.296

@<SCITEGIC>MOL_PROPERTY
W
SciTegic.value.DoubleValue
-2.164

@<SCITEGIC>MOL_PROPERTY
W(PB)
SciTegic.value.DoubleValue
-4.311

@<SCITEGIC>MOL_PROPERTY
W(SA)
SciTegic.value.DoubleValue
2.148

@<SCITEGIC>MOL_PROPERTY
Valence
SciTegic.value.DoubleValue
18.607

@<SCITEGIC>MOL_PROPERTY
Coulomb
SciTegic.value.DoubleValue
-8.339

@<SCITEGIC>MOL_PROPERTY
VdW
SciTegic.value.DoubleValue
3.028

@<SCITEGIC>MOL_PROPERTY
VdW6
SciTegic.value.DoubleValue
-12.271

@<SCITEGIC>MOL_PROPERTY
VdW12
SciTegic.value.DoubleValue
15.299

@<SCITEGIC>MOL_PROPERTY
Bond
SciTegic.value.DoubleValue
0.423

@<SCITEGIC>MOL_PROPERTY
Angle
SciTegic.value.DoubleValue
4.488

@<SCITEGIC>MOL_PROPERTY
Pdih
SciTegic.value.DoubleValue
13.696

@<SCITEGIC>MOL_PROPERTY
Idih
SciTegic.value.DoubleValue
0.000

@<SCITEGIC>MOL_PROPERTY
Tether
SciTegic.value.DoubleValue
0.000

@<TRIPOS>MOLECULE
guest-s17_confgen4.mol2 : confsearch ligand conformer 972
          25          25           1
SMALL
USER_CHARGES
 
@<TRIPOS>ATOM
       1    C1      21.899315   18.054406   22.193624 C.3        1 MOL1        -0.1684
       2    H1      22.124539   18.758017   21.382206 H          1 MOL1         0.0833
       3    H2      22.698721   17.302588   22.141802 H          1 MOL1         0.0833
       4    C2      22.006971   18.773171   23.561648 C.3        1 MOL1        -0.1684
       5    H3      21.458718   18.220670   24.336498 H          1 MOL1         0.0833
       6    H4      23.062365   18.726765   23.863524 H          1 MOL1         0.0833
       7    C3      21.606919   20.274988   23.553511 C.3        1 MOL1        -0.1684
       8    H5      21.923249   20.764927   22.622887 H          1 MOL1         0.0833
       9    H6      22.186829   20.761999   24.349536 H          1 MOL1         0.0833
      10    C4      20.111714   20.562873   23.847911 C.3        1 MOL1        -0.1760
      11    H7      19.720435   19.822413   24.556370 H          1 MOL1         0.0833
      12    H8      20.053265   21.521361   24.379981 H          1 MOL1         0.0833
      13    C5      19.178951   20.684438   22.616448 C.3        1 MOL1         0.1219
      14    H9      19.426785   21.621806   22.097785 H          1 MOL1         0.0790
      15    C6      19.268542   19.544582   21.573973 C.3        1 MOL1        -0.1760
      16    H10     18.424310   19.639568   20.878812 H          1 MOL1         0.0833
      17    H11     20.154520   19.702490   20.949725 H          1 MOL1         0.0833
      18    C7      19.261896   18.113536   22.173588 C.3        1 MOL1        -0.1684
      19    H12     18.423537   17.552483   21.739153 H          1 MOL1         0.0833
      20    H13     19.051600   18.140773   23.249295 H          1 MOL1         0.0833
      21    C8      20.563014   17.314286   21.920460 C.3        1 MOL1        -0.1684
      22    H14     20.569084   16.972817   20.876382 H          1 MOL1         0.0833
      23    H15     20.530598   16.402669   22.532520 H          1 MOL1         0.0833
      24    O1      17.839951   20.759985   23.091286 O.3        1 MOL1        -0.5508
      25    H16     17.264883   20.833708   22.301996 H          1 MOL1         0.3780
@<TRIPOS>BOND
    1     1     2    1
    2     1     3    1
    3     1     4    1
    4     4     5    1
    5     4     6    1
    6     4     7    1
    7     7     8    1
    8     7     9    1
    9     7    10    1
   10    10    11    1
   11    10    12    1
   12    10    13    1
   13    13    14    1
   14    13    15    1
   15    15    16    1
   16    15    17    1
   17    15    18    1
   18    18    19    1
   19    18    20    1
   20     1    21    1
   21    18    21    1
   22    21    22    1
   23    21    23    1
   24    13    24    1
   25    24    25    1
@<TRIPOS>SUBSTRUCTURE
       1 MOL1            1 RESIDUE      1      MOL     
@<SCITEGIC>MOL_PROPERTY
VConf Rank
SciTegic.value.IntegerValue
972

@<SCITEGIC>MOL_PROPERTY
Conf_Id
SciTegic.value.IntegerValue
155

@<SCITEGIC>MOL_PROPERTY
Delta U+W
SciTegic.value.DoubleValue
0.339

@<SCITEGIC>MOL_PROPERTY
U+W
SciTegic.value.DoubleValue
11.252

@<SCITEGIC>MOL_PROPERTY
Grad RMS
SciTegic.value.DoubleValue
0.000000

@<SCITEGIC>MOL_PROPERTY
U
SciTegic.value.DoubleValue
13.420

@<SCITEGIC>MOL_PROPERTY
W
SciTegic.value.DoubleValue
-2.167

@<SCITEGIC>MOL_PROPERTY
W(PB)
SciTegic.value.DoubleValue
-4.325

@<SCITEGIC>MOL_PROPERTY
W(SA)
SciTegic.value.DoubleValue
2.157

@<SCITEGIC>MOL_PROPERTY
Valence
SciTegic.value.DoubleValue
18.609

@<SCITEGIC>MOL_PROPERTY
Coulomb
SciTegic.value.DoubleValue
-8.052

@<SCITEGIC>MOL_PROPERTY
VdW
SciTegic.value.DoubleValue
2.863

@<SCITEGIC>MOL_PROPERTY
VdW6
SciTegic.value.DoubleValue
-12.524

@<SCITEGIC>MOL_PROPERTY
VdW12
SciTegic.value.DoubleValue
15.387

@<SCITEGIC>MOL_PROPERTY
Bond
SciTegic.value.DoubleValue
0.430

@<SCITEGIC>MOL_PROPERTY
Angle
SciTegic.value.DoubleValue
4.724

@<SCITEGIC>MOL_PROPERTY
Pdih
SciTegic.value.DoubleValue
13.455

@<SCITEGIC>MOL_PROPERTY
Idih
SciTegic.value.DoubleValue
0.000

@<SCITEGIC>MOL_PROPERTY
Tether
SciTegic.value.DoubleValue
0.000

@<TRIPOS>MOLECULE
guest-s17_confgen4.mol2 : confsearch ligand conformer 973
          25          25           1
SMALL
USER_CHARGES
 
@<TRIPOS>ATOM
       1    C1      19.667577   18.051784   24.156206 C.3        1 MOL1        -0.1684
       2    H1      18.671595   18.325955   24.529285 H          1 MOL1         0.0833
       3    H2      19.966301   17.170877   24.740629 H          1 MOL1         0.0833
       4    C2      19.551604   17.594158   22.678387 C.3        1 MOL1        -0.1684
       5    H3      20.519932   17.210645   22.341640 H          1 MOL1         0.0833
       6    H4      18.902457   16.708273   22.655332 H          1 MOL1         0.0833
       7    C3      18.972379   18.612001   21.652859 C.3        1 MOL1        -0.1684
       8    H5      17.878502   18.514442   21.674539 H          1 MOL1         0.0833
       9    H6      19.274283   18.308870   20.641086 H          1 MOL1         0.0833
      10    C4      19.297697   20.117612   21.850862 C.3        1 MOL1        -0.1760
      11    H7      18.694551   20.681362   21.127191 H          1 MOL1         0.0833
      12    H8      18.900719   20.447217   22.814979 H          1 MOL1         0.0833
      13    C5      20.778640   20.571607   21.692743 C.3        1 MOL1         0.1219
      14    H9      20.902781   21.510007   22.251996 H          1 MOL1         0.0790
      15    C6      21.885523   19.591453   22.156045 C.3        1 MOL1        -0.1760
      16    H10     21.818849   18.672677   21.566194 H          1 MOL1         0.0833
      17    H11     22.851529   20.020427   21.858657 H          1 MOL1         0.0833
      18    C7      21.982139   19.267852   23.677312 C.3        1 MOL1        -0.1684
      19    H12     22.605766   20.045049   24.139797 H          1 MOL1         0.0833
      20    H13     22.539692   18.330374   23.806119 H          1 MOL1         0.0833
      21    C8      20.666883   19.196025   24.496844 C.3        1 MOL1        -0.1684
      22    H14     20.167957   20.169829   24.469359 H          1 MOL1         0.0833
      23    H15     20.941593   19.079138   25.554081 H          1 MOL1         0.0833
      24    O1      21.009268   20.834024   20.312840 O.3        1 MOL1        -0.5508
      25    H16     20.340508   21.493214   20.034507 H          1 MOL1         0.3780
@<TRIPOS>BOND
    1     1     2    1
    2     1     3    1
    3     1     4    1
    4     4     5    1
    5     4     6    1
    6     4     7    1
    7     7     8    1
    8     7     9    1
    9     7    10    1
   10    10    11    1
   11    10    12    1
   12    10    13    1
   13    13    14    1
   14    13    15    1
   15    15    16    1
   16    15    17    1
   17    15    18    1
   18    18    19    1
   19    18    20    1
   20     1    21    1
   21    18    21    1
   22    21    22    1
   23    21    23    1
   24    13    24    1
   25    24    25    1
@<TRIPOS>SUBSTRUCTURE
       1 MOL1            1 RESIDUE      1      MOL     
@<SCITEGIC>MOL_PROPERTY
VConf Rank
SciTegic.value.IntegerValue
973

@<SCITEGIC>MOL_PROPERTY
Conf_Id
SciTegic.value.IntegerValue
146

@<SCITEGIC>MOL_PROPERTY
Delta U+W
SciTegic.value.DoubleValue
2.553

@<SCITEGIC>MOL_PROPERTY
U+W
SciTegic.value.DoubleValue
13.466

@<SCITEGIC>MOL_PROPERTY
Grad RMS
SciTegic.value.DoubleValue
0.000000

@<SCITEGIC>MOL_PROPERTY
U
SciTegic.value.DoubleValue
15.643

@<SCITEGIC>MOL_PROPERTY
W
SciTegic.value.DoubleValue
-2.176

@<SCITEGIC>MOL_PROPERTY
W(PB)
SciTegic.value.DoubleValue
-4.307

@<SCITEGIC>MOL_PROPERTY
W(SA)
SciTegic.value.DoubleValue
2.131

@<SCITEGIC>MOL_PROPERTY
Valence
SciTegic.value.DoubleValue
18.916

@<SCITEGIC>MOL_PROPERTY
Coulomb
SciTegic.value.DoubleValue
-7.506

@<SCITEGIC>MOL_PROPERTY
VdW
SciTegic.value.DoubleValue
4.232

@<SCITEGIC>MOL_PROPERTY
VdW6
SciTegic.value.DoubleValue
-13.632

@<SCITEGIC>MOL_PROPERTY
VdW12
SciTegic.value.DoubleValue
17.864

@<SCITEGIC>MOL_PROPERTY
Bond
SciTegic.value.DoubleValue
0.735

@<SCITEGIC>MOL_PROPERTY
Angle
SciTegic.value.DoubleValue
9.140

@<SCITEGIC>MOL_PROPERTY
Pdih
SciTegic.value.DoubleValue
9.042

@<SCITEGIC>MOL_PROPERTY
Idih
SciTegic.value.DoubleValue
0.000

@<SCITEGIC>MOL_PROPERTY
Tether
SciTegic.value.DoubleValue
0.000

@<TRIPOS>MOLECULE
guest-s17_confgen4.mol2 : confsearch ligand conformer 974
          25          25           1
SMALL
USER_CHARGES
 
@<TRIPOS>ATOM
       1    C1      19.925046   20.901525   23.853178 C.3        1 MOL1        -0.1684
       2    H1      19.073764   21.572318   23.674681 H          1 MOL1         0.0833
       3    H2      20.443294   21.308247   24.732330 H          1 MOL1         0.0833
       4    C2      20.905293   20.989884   22.656745 C.3        1 MOL1        -0.1684
       5    H3      21.251736   22.030576   22.595616 H          1 MOL1         0.0833
       6    H4      21.811780   20.409452   22.862966 H          1 MOL1         0.0833
       7    C3      20.324408   20.616816   21.269743 C.3        1 MOL1        -0.1684
       8    H5      21.094123   20.839551   20.518139 H          1 MOL1         0.0833
       9    H6      19.481145   21.281515   21.038387 H          1 MOL1         0.0833
      10    C4      19.876135   19.145772   21.067793 C.3        1 MOL1        -0.1760
      11    H7      18.873777   18.993583   21.480329 H          1 MOL1         0.0833
      12    H8      19.754190   18.991072   19.987176 H          1 MOL1         0.0833
      13    C5      20.852219   18.077746   21.625158 C.3        1 MOL1         0.1219
      14    H9      21.849888   18.519813   21.749556 H          1 MOL1         0.0790
      15    C6      20.400724   17.444507   22.965652 C.3        1 MOL1        -0.1760
      16    H10     19.389743   17.032630   22.847351 H          1 MOL1         0.0833
      17    H11     21.049986   16.582885   23.169143 H          1 MOL1         0.0833
      18    C7      20.438925   18.357459   24.221305 C.3        1 MOL1        -0.1684
      19    H12     21.449885   18.752091   24.385698 H          1 MOL1         0.0833
      20    H13     20.237177   17.715993   25.090098 H          1 MOL1         0.0833
      21    C8      19.387162   19.496847   24.229965 C.3        1 MOL1        -0.1684
      22    H14     18.973324   19.571870   25.244927 H          1 MOL1         0.0833
      23    H15     18.527376   19.231800   23.604393 H          1 MOL1         0.0833
      24    O1      20.947951   17.025846   20.671380 O.3        1 MOL1        -0.5508
      25    H16     21.612043   16.392100   21.014262 H          1 MOL1         0.3780
@<TRIPOS>BOND
    1     1     2    1
    2     1     3    1
    3     1     4    1
    4     4     5    1
    5     4     6    1
    6     4     7    1
    7     7     8    1
    8     7     9    1
    9     7    10    1
   10    10    11    1
   11    10    12    1
   12    10    13    1
   13    13    14    1
   14    13    15    1
   15    15    16    1
   16    15    17    1
   17    15    18    1
   18    18    19    1
   19    18    20    1
   20     1    21    1
   21    18    21    1
   22    21    22    1
   23    21    23    1
   24    13    24    1
   25    24    25    1
@<TRIPOS>SUBSTRUCTURE
       1 MOL1            1 RESIDUE      1      MOL     
@<SCITEGIC>MOL_PROPERTY
VConf Rank
SciTegic.value.IntegerValue
974

@<SCITEGIC>MOL_PROPERTY
Conf_Id
SciTegic.value.IntegerValue
62

@<SCITEGIC>MOL_PROPERTY
Delta U+W
SciTegic.value.DoubleValue
-1.779

@<SCITEGIC>MOL_PROPERTY
U+W
SciTegic.value.DoubleValue
9.134

@<SCITEGIC>MOL_PROPERTY
Grad RMS
SciTegic.value.DoubleValue
0.000000

@<SCITEGIC>MOL_PROPERTY
U
SciTegic.value.DoubleValue
11.364

@<SCITEGIC>MOL_PROPERTY
W
SciTegic.value.DoubleValue
-2.230

@<SCITEGIC>MOL_PROPERTY
W(PB)
SciTegic.value.DoubleValue
-4.359

@<SCITEGIC>MOL_PROPERTY
W(SA)
SciTegic.value.DoubleValue
2.129

@<SCITEGIC>MOL_PROPERTY
Valence
SciTegic.value.DoubleValue
16.582

@<SCITEGIC>MOL_PROPERTY
Coulomb
SciTegic.value.DoubleValue
-8.150

@<SCITEGIC>MOL_PROPERTY
VdW
SciTegic.value.DoubleValue
2.933

@<SCITEGIC>MOL_PROPERTY
VdW6
SciTegic.value.DoubleValue
-12.531

@<SCITEGIC>MOL_PROPERTY
VdW12
SciTegic.value.DoubleValue
15.464

@<SCITEGIC>MOL_PROPERTY
Bond
SciTegic.value.DoubleValue
0.439

@<SCITEGIC>MOL_PROPERTY
Angle
SciTegic.value.DoubleValue
5.099

@<SCITEGIC>MOL_PROPERTY
Pdih
SciTegic.value.DoubleValue
11.044

@<SCITEGIC>MOL_PROPERTY
Idih
SciTegic.value.DoubleValue
0.000

@<SCITEGIC>MOL_PROPERTY
Tether
SciTegic.value.DoubleValue
0.000

@<TRIPOS>MOLECULE
guest-s17_confgen4.mol2 : confsearch ligand conformer 975
          25          25           1
SMALL
USER_CHARGES
 
@<TRIPOS>ATOM
       1    C1      21.333809   20.137303   23.960103 C.3        1 MOL1        -0.1684
       2    H1      22.087088   19.522301   23.454666 H          1 MOL1         0.0833
       3    H2      21.893642   20.679550   24.734180 H          1 MOL1         0.0833
       4    C2      20.300183   19.238903   24.684084 C.3        1 MOL1        -0.1684
       5    H3      20.848455   18.632445   25.417906 H          1 MOL1         0.0833
       6    H4      19.618593   19.869931   25.270372 H          1 MOL1         0.0833
       7    C3      19.462566   18.275696   23.804681 C.3        1 MOL1        -0.1684
       8    H5      18.604512   18.800245   23.369268 H          1 MOL1         0.0833
       9    H6      19.016170   17.529801   24.476542 H          1 MOL1         0.0833
      10    C4      20.256794   17.522972   22.703808 C.3        1 MOL1        -0.1760
      11    H7      21.320021   17.450899   22.963819 H          1 MOL1         0.0833
      12    H8      19.891381   16.487765   22.691006 H          1 MOL1         0.0833
      13    C5      20.085351   18.090495   21.272054 C.3        1 MOL1         0.1219
      14    H9      19.009720   18.154277   21.053126 H          1 MOL1         0.0790
      15    C6      20.714576   19.480154   21.002177 C.3        1 MOL1        -0.1760
      16    H10     21.790938   19.462140   21.211720 H          1 MOL1         0.0833
      17    H11     20.634212   19.663220   19.922437 H          1 MOL1         0.0833
      18    C7      20.021903   20.665889   21.725921 C.3        1 MOL1        -0.1684
      19    H12     18.981543   20.416283   21.963183 H          1 MOL1         0.0833
      20    H13     19.948884   21.503526   21.018828 H          1 MOL1         0.0833
      21    C8      20.756199   21.193421   22.985064 C.3        1 MOL1        -0.1684
      22    H14     20.083455   21.865515   23.534782 H          1 MOL1         0.0833
      23    H15     21.592262   21.821079   22.647537 H          1 MOL1         0.0833
      24    O1      20.681358   17.168404   20.368201 O.3        1 MOL1        -0.5508
      25    H16     20.228580   16.309521   20.500334 H          1 MOL1         0.3780
@<TRIPOS>BOND
    1     1     2    1
    2     1     3    1
    3     1     4    1
    4     4     5    1
    5     4     6    1
    6     4     7    1
    7     7     8    1
    8     7     9    1
    9     7    10    1
   10    10    11    1
   11    10    12    1
   12    10    13    1
   13    13    14    1
   14    13    15    1
   15    15    16    1
   16    15    17    1
   17    15    18    1
   18    18    19    1
   19    18    20    1
   20     1    21    1
   21    18    21    1
   22    21    22    1
   23    21    23    1
   24    13    24    1
   25    24    25    1
@<TRIPOS>SUBSTRUCTURE
       1 MOL1            1 RESIDUE      1      MOL     
@<SCITEGIC>MOL_PROPERTY
VConf Rank
SciTegic.value.IntegerValue
975

@<SCITEGIC>MOL_PROPERTY
Conf_Id
SciTegic.value.IntegerValue
121

@<SCITEGIC>MOL_PROPERTY
Delta U+W
SciTegic.value.DoubleValue
-1.283

@<SCITEGIC>MOL_PROPERTY
U+W
SciTegic.value.DoubleValue
9.630

@<SCITEGIC>MOL_PROPERTY
Grad RMS
SciTegic.value.DoubleValue
0.000000

@<SCITEGIC>MOL_PROPERTY
U
SciTegic.value.DoubleValue
11.876

@<SCITEGIC>MOL_PROPERTY
W
SciTegic.value.DoubleValue
-2.246

@<SCITEGIC>MOL_PROPERTY
W(PB)
SciTegic.value.DoubleValue
-4.376

@<SCITEGIC>MOL_PROPERTY
W(SA)
SciTegic.value.DoubleValue
2.130

@<SCITEGIC>MOL_PROPERTY
Valence
SciTegic.value.DoubleValue
17.153

@<SCITEGIC>MOL_PROPERTY
Coulomb
SciTegic.value.DoubleValue
-7.966

@<SCITEGIC>MOL_PROPERTY
VdW
SciTegic.value.DoubleValue
2.689

@<SCITEGIC>MOL_PROPERTY
VdW6
SciTegic.value.DoubleValue
-12.458

@<SCITEGIC>MOL_PROPERTY
VdW12
SciTegic.value.DoubleValue
15.147

@<SCITEGIC>MOL_PROPERTY
Bond
SciTegic.value.DoubleValue
0.421

@<SCITEGIC>MOL_PROPERTY
Angle
SciTegic.value.DoubleValue
5.258

@<SCITEGIC>MOL_PROPERTY
Pdih
SciTegic.value.DoubleValue
11.475

@<SCITEGIC>MOL_PROPERTY
Idih
SciTegic.value.DoubleValue
0.000

@<SCITEGIC>MOL_PROPERTY
Tether
SciTegic.value.DoubleValue
0.000

@<TRIPOS>MOLECULE
guest-s17_confgen4.mol2 : confsearch ligand conformer 976
          25          25           1
SMALL
USER_CHARGES
 
@<TRIPOS>ATOM
       1    C1      20.371704   18.322296   24.284784 C.3        1 MOL1        -0.1684
       2    H1      20.650549   19.345310   24.561933 H          1 MOL1         0.0833
       3    H2      20.367781   17.769933   25.234268 H          1 MOL1         0.0833
       4    C2      21.464765   17.688726   23.388387 C.3        1 MOL1        -0.1684
       5    H3      22.399852   17.682705   23.964979 H          1 MOL1         0.0833
       6    H4      21.220015   16.633138   23.208629 H          1 MOL1         0.0833
       7    C3      21.751014   18.377397   22.029446 C.3        1 MOL1        -0.1684
       8    H5      21.033315   18.045323   21.270775 H          1 MOL1         0.0833
       9    H6      22.720141   18.001643   21.673710 H          1 MOL1         0.0833
      10    C4      21.818960   19.927584   22.072734 C.3        1 MOL1        -0.1760
      11    H7      22.076685   20.285143   23.076984 H          1 MOL1         0.0833
      12    H8      22.656156   20.236920   21.433029 H          1 MOL1         0.0833
      13    C5      20.556138   20.653469   21.545203 C.3        1 MOL1         0.1219
      14    H9      20.332633   20.264110   20.541497 H          1 MOL1         0.0790
      15    C6      19.277057   20.527602   22.410937 C.3        1 MOL1        -0.1760
      16    H10     19.461939   20.899953   23.426035 H          1 MOL1         0.0833
      17    H11     18.526541   21.206900   21.985938 H          1 MOL1         0.0833
      18    C7      18.646170   19.109755   22.442578 C.3        1 MOL1        -0.1684
      19    H12     18.934125   18.540681   21.551381 H          1 MOL1         0.0833
      20    H13     17.555983   19.217255   22.359164 H          1 MOL1         0.0833
      21    C8      18.926966   18.288527   23.726889 C.3        1 MOL1        -0.1684
      22    H14     18.628556   17.245448   23.555334 H          1 MOL1         0.0833
      23    H15     18.260712   18.661945   24.516543 H          1 MOL1         0.0833
      24    O1      20.870820   22.036254   21.438879 O.3        1 MOL1        -0.5508
      25    H16     20.089988   22.474559   21.040960 H          1 MOL1         0.3780
@<TRIPOS>BOND
    1     1     2    1
    2     1     3    1
    3     1     4    1
    4     4     5    1
    5     4     6    1
    6     4     7    1
    7     7     8    1
    8     7     9    1
    9     7    10    1
   10    10    11    1
   11    10    12    1
   12    10    13    1
   13    13    14    1
   14    13    15    1
   15    15    16    1
   16    15    17    1
   17    15    18    1
   18    18    19    1
   19    18    20    1
   20     1    21    1
   21    18    21    1
   22    21    22    1
   23    21    23    1
   24    13    24    1
   25    24    25    1
@<TRIPOS>SUBSTRUCTURE
       1 MOL1            1 RESIDUE      1      MOL     
@<SCITEGIC>MOL_PROPERTY
VConf Rank
SciTegic.value.IntegerValue
976

@<SCITEGIC>MOL_PROPERTY
Conf_Id
SciTegic.value.IntegerValue
24

@<SCITEGIC>MOL_PROPERTY
Delta U+W
SciTegic.value.DoubleValue
-1.236

@<SCITEGIC>MOL_PROPERTY
U+W
SciTegic.value.DoubleValue
9.678

@<SCITEGIC>MOL_PROPERTY
Grad RMS
SciTegic.value.DoubleValue
0.000000

@<SCITEGIC>MOL_PROPERTY
U
SciTegic.value.DoubleValue
11.876

@<SCITEGIC>MOL_PROPERTY
W
SciTegic.value.DoubleValue
-2.199

@<SCITEGIC>MOL_PROPERTY
W(PB)
SciTegic.value.DoubleValue
-4.335

@<SCITEGIC>MOL_PROPERTY
W(SA)
SciTegic.value.DoubleValue
2.137

@<SCITEGIC>MOL_PROPERTY
Valence
SciTegic.value.DoubleValue
17.153

@<SCITEGIC>MOL_PROPERTY
Coulomb
SciTegic.value.DoubleValue
-7.966

@<SCITEGIC>MOL_PROPERTY
VdW
SciTegic.value.DoubleValue
2.689

@<SCITEGIC>MOL_PROPERTY
VdW6
SciTegic.value.DoubleValue
-12.458

@<SCITEGIC>MOL_PROPERTY
VdW12
SciTegic.value.DoubleValue
15.147

@<SCITEGIC>MOL_PROPERTY
Bond
SciTegic.value.DoubleValue
0.421

@<SCITEGIC>MOL_PROPERTY
Angle
SciTegic.value.DoubleValue
5.258

@<SCITEGIC>MOL_PROPERTY
Pdih
SciTegic.value.DoubleValue
11.475

@<SCITEGIC>MOL_PROPERTY
Idih
SciTegic.value.DoubleValue
0.000

@<SCITEGIC>MOL_PROPERTY
Tether
SciTegic.value.DoubleValue
0.000

@<TRIPOS>MOLECULE
guest-s17_confgen4.mol2 : confsearch ligand conformer 977
          25          25           1
SMALL
USER_CHARGES
 
@<TRIPOS>ATOM
       1    C1      19.608062   21.101682   23.370018 C.3        1 MOL1        -0.1684
       2    H1      19.541002   21.346168   24.438899 H          1 MOL1         0.0833
       3    H2      19.223529   21.983169   22.839012 H          1 MOL1         0.0833
       4    C2      21.102031   20.928185   22.987714 C.3        1 MOL1        -0.1684
       5    H3      21.235023   21.009855   21.901465 H          1 MOL1         0.0833
       6    H4      21.639978   21.792648   23.400489 H          1 MOL1         0.0833
       7    C3      21.792694   19.644239   23.510330 C.3        1 MOL1        -0.1684
       8    H5      21.398602   19.363010   24.496260 H          1 MOL1         0.0833
       9    H6      22.848404   19.896829   23.680260 H          1 MOL1         0.0833
      10    C4      21.770032   18.436647   22.530975 C.3        1 MOL1        -0.1760
      11    H7      21.876053   18.774355   21.492133 H          1 MOL1         0.0833
      12    H8      22.671666   17.845440   22.741876 H          1 MOL1         0.0833
      13    C5      20.545841   17.499895   22.675641 C.3        1 MOL1         0.1219
      14    H9      20.195581   17.541722   23.715470 H          1 MOL1         0.0790
      15    C6      19.361186   17.803463   21.723670 C.3        1 MOL1        -0.1760
      16    H10     19.631054   17.509305   20.700922 H          1 MOL1         0.0833
      17    H11     18.525990   17.152689   22.014466 H          1 MOL1         0.0833
      18    C7      18.850130   19.265697   21.687155 C.3        1 MOL1        -0.1684
      19    H12     17.883854   19.275831   21.164692 H          1 MOL1         0.0833
      20    H13     19.512985   19.873458   21.060305 H          1 MOL1         0.0833
      21    C8      18.665640   19.906409   23.086013 C.3        1 MOL1        -0.1684
      22    H14     18.770517   19.158115   23.880187 H          1 MOL1         0.0833
      23    H15     17.630290   20.262748   23.175148 H          1 MOL1         0.0833
      24    O1      20.968159   16.168180   22.411270 O.3        1 MOL1        -0.5508
      25    H16     21.294560   16.159186   21.488040 H          1 MOL1         0.3780
@<TRIPOS>BOND
    1     1     2    1
    2     1     3    1
    3     1     4    1
    4     4     5    1
    5     4     6    1
    6     4     7    1
    7     7     8    1
    8     7     9    1
    9     7    10    1
   10    10    11    1
   11    10    12    1
   12    10    13    1
   13    13    14    1
   14    13    15    1
   15    15    16    1
   16    15    17    1
   17    15    18    1
   18    18    19    1
   19    18    20    1
   20     1    21    1
   21    18    21    1
   22    21    22    1
   23    21    23    1
   24    13    24    1
   25    24    25    1
@<TRIPOS>SUBSTRUCTURE
       1 MOL1            1 RESIDUE      1      MOL     
@<SCITEGIC>MOL_PROPERTY
VConf Rank
SciTegic.value.IntegerValue
977

@<SCITEGIC>MOL_PROPERTY
Conf_Id
SciTegic.value.IntegerValue
167

@<SCITEGIC>MOL_PROPERTY
Delta U+W
SciTegic.value.DoubleValue
0.388

@<SCITEGIC>MOL_PROPERTY
U+W
SciTegic.value.DoubleValue
11.301

@<SCITEGIC>MOL_PROPERTY
Grad RMS
SciTegic.value.DoubleValue
0.000000

@<SCITEGIC>MOL_PROPERTY
U
SciTegic.value.DoubleValue
13.202

@<SCITEGIC>MOL_PROPERTY
W
SciTegic.value.DoubleValue
-1.901

@<SCITEGIC>MOL_PROPERTY
W(PB)
SciTegic.value.DoubleValue
-4.065

@<SCITEGIC>MOL_PROPERTY
W(SA)
SciTegic.value.DoubleValue
2.163

@<SCITEGIC>MOL_PROPERTY
Valence
SciTegic.value.DoubleValue
18.957

@<SCITEGIC>MOL_PROPERTY
Coulomb
SciTegic.value.DoubleValue
-8.753

@<SCITEGIC>MOL_PROPERTY
VdW
SciTegic.value.DoubleValue
2.998

@<SCITEGIC>MOL_PROPERTY
VdW6
SciTegic.value.DoubleValue
-12.294

@<SCITEGIC>MOL_PROPERTY
VdW12
SciTegic.value.DoubleValue
15.292

@<SCITEGIC>MOL_PROPERTY
Bond
SciTegic.value.DoubleValue
0.419

@<SCITEGIC>MOL_PROPERTY
Angle
SciTegic.value.DoubleValue
4.543

@<SCITEGIC>MOL_PROPERTY
Pdih
SciTegic.value.DoubleValue
13.996

@<SCITEGIC>MOL_PROPERTY
Idih
SciTegic.value.DoubleValue
0.000

@<SCITEGIC>MOL_PROPERTY
Tether
SciTegic.value.DoubleValue
0.000

@<TRIPOS>MOLECULE
guest-s17_confgen4.mol2 : confsearch ligand conformer 978
          25          25           1
SMALL
USER_CHARGES
 
@<TRIPOS>ATOM
       1    C1      19.948646   20.976837   21.605849 C.3        1 MOL1        -0.1684
       2    H1      19.778007   20.964740   20.520843 H          1 MOL1         0.0833
       3    H2      19.850625   22.028213   21.909031 H          1 MOL1         0.0833
       4    C2      21.409044   20.538481   21.889372 C.3        1 MOL1        -0.1684
       5    H3      21.696147   19.705770   21.237475 H          1 MOL1         0.0833
       6    H4      22.060047   21.366341   21.576516 H          1 MOL1         0.0833
       7    C3      21.730213   20.206517   23.369741 C.3        1 MOL1        -0.1684
       8    H5      21.049717   20.735447   24.049395 H          1 MOL1         0.0833
       9    H6      22.727393   20.611496   23.590035 H          1 MOL1         0.0833
      10    C4      21.773531   18.690265   23.703436 C.3        1 MOL1        -0.1760
      11    H7      22.490162   18.190549   23.038630 H          1 MOL1         0.0833
      12    H8      22.186741   18.586598   24.715511 H          1 MOL1         0.0833
      13    C5      20.426162   17.926963   23.666333 C.3        1 MOL1         0.1219
      14    H9      19.700943   18.447097   24.306390 H          1 MOL1         0.0790
      15    C6      19.837757   17.749995   22.242539 C.3        1 MOL1        -0.1760
      16    H10     20.630788   17.840863   21.493461 H          1 MOL1         0.0833
      17    H11     19.468316   16.722669   22.123969 H          1 MOL1         0.0833
      18    C7      18.662670   18.700834   21.896358 C.3        1 MOL1        -0.1684
      19    H12     17.759016   18.313158   22.386319 H          1 MOL1         0.0833
      20    H13     18.464076   18.643833   20.817533 H          1 MOL1         0.0833
      21    C8      18.817603   20.185988   22.310098 C.3        1 MOL1        -0.1684
      22    H14     18.911428   20.275130   23.398399 H          1 MOL1         0.0833
      23    H15     17.871061   20.690451   22.072617 H          1 MOL1         0.0833
      24    O1      20.656191   16.635262   24.216566 O.3        1 MOL1        -0.5508
      25    H16     19.785727   16.186346   24.252380 H          1 MOL1         0.3780
@<TRIPOS>BOND
    1     1     2    1
    2     1     3    1
    3     1     4    1
    4     4     5    1
    5     4     6    1
    6     4     7    1
    7     7     8    1
    8     7     9    1
    9     7    10    1
   10    10    11    1
   11    10    12    1
   12    10    13    1
   13    13    14    1
   14    13    15    1
   15    15    16    1
   16    15    17    1
   17    15    18    1
   18    18    19    1
   19    18    20    1
   20     1    21    1
   21    18    21    1
   22    21    22    1
   23    21    23    1
   24    13    24    1
   25    24    25    1
@<TRIPOS>SUBSTRUCTURE
       1 MOL1            1 RESIDUE      1      MOL     
@<SCITEGIC>MOL_PROPERTY
VConf Rank
SciTegic.value.IntegerValue
978

@<SCITEGIC>MOL_PROPERTY
Conf_Id
SciTegic.value.IntegerValue
60

@<SCITEGIC>MOL_PROPERTY
Delta U+W
SciTegic.value.DoubleValue
-1.838

@<SCITEGIC>MOL_PROPERTY
U+W
SciTegic.value.DoubleValue
9.075

@<SCITEGIC>MOL_PROPERTY
Grad RMS
SciTegic.value.DoubleValue
0.000000

@<SCITEGIC>MOL_PROPERTY
U
SciTegic.value.DoubleValue
11.150

@<SCITEGIC>MOL_PROPERTY
W
SciTegic.value.DoubleValue
-2.074

@<SCITEGIC>MOL_PROPERTY
W(PB)
SciTegic.value.DoubleValue
-4.196

@<SCITEGIC>MOL_PROPERTY
W(SA)
SciTegic.value.DoubleValue
2.121

@<SCITEGIC>MOL_PROPERTY
Valence
SciTegic.value.DoubleValue
16.582

@<SCITEGIC>MOL_PROPERTY
Coulomb
SciTegic.value.DoubleValue
-8.361

@<SCITEGIC>MOL_PROPERTY
VdW
SciTegic.value.DoubleValue
2.928

@<SCITEGIC>MOL_PROPERTY
VdW6
SciTegic.value.DoubleValue
-12.539

@<SCITEGIC>MOL_PROPERTY
VdW12
SciTegic.value.DoubleValue
15.467

@<SCITEGIC>MOL_PROPERTY
Bond
SciTegic.value.DoubleValue
0.441

@<SCITEGIC>MOL_PROPERTY
Angle
SciTegic.value.DoubleValue
5.093

@<SCITEGIC>MOL_PROPERTY
Pdih
SciTegic.value.DoubleValue
11.049

@<SCITEGIC>MOL_PROPERTY
Idih
SciTegic.value.DoubleValue
0.000

@<SCITEGIC>MOL_PROPERTY
Tether
SciTegic.value.DoubleValue
0.000

@<TRIPOS>MOLECULE
guest-s17_confgen4.mol2 : confsearch ligand conformer 979
          25          25           1
SMALL
USER_CHARGES
 
@<TRIPOS>ATOM
       1    C1      20.707579   21.001378   23.563055 C.3        1 MOL1        -0.1684
       2    H1      20.047748   21.866725   23.413720 H          1 MOL1         0.0833
       3    H2      21.519107   21.356767   24.212700 H          1 MOL1         0.0833
       4    C2      21.342690   20.602747   22.207182 C.3        1 MOL1        -0.1684
       5    H3      21.926276   21.464360   21.855226 H          1 MOL1         0.0833
       6    H4      22.084335   19.809101   22.352909 H          1 MOL1         0.0833
       7    C3      20.354765   20.224163   21.075127 C.3        1 MOL1        -0.1684
       8    H5      20.941558   20.082471   20.157226 H          1 MOL1         0.0833
       9    H6      19.689591   21.075029   20.874822 H          1 MOL1         0.0833
      10    C4      19.493895   18.952620   21.291553 C.3        1 MOL1        -0.1760
      11    H7      18.629694   19.184085   21.922310 H          1 MOL1         0.0833
      12    H8      19.057564   18.687996   20.319168 H          1 MOL1         0.0833
      13    C5      20.260322   17.732087   21.863927 C.3        1 MOL1         0.1219
      14    H9      21.338509   17.858737   21.697715 H          1 MOL1         0.0790
      15    C6      20.006639   17.475748   23.370360 C.3        1 MOL1        -0.1760
      16    H10     18.926705   17.381473   23.543843 H          1 MOL1         0.0833
      17    H11     20.432814   16.494279   23.617096 H          1 MOL1         0.0833
      18    C7      20.601698   18.507277   24.367406 C.3        1 MOL1        -0.1684
      19    H12     21.688891   18.588969   24.240493 H          1 MOL1         0.0833
      20    H13     20.460982   18.095558   25.376163 H          1 MOL1         0.0833
      21    C8      19.930181   19.904762   24.336614 C.3        1 MOL1        -0.1684
      22    H14     19.824492   20.255249   25.372482 H          1 MOL1         0.0833
      23    H15     18.900633   19.828722   23.969121 H          1 MOL1         0.0833
      24    O1      19.836998   16.570565   21.159777 O.3        1 MOL1        -0.5508
      25    H16     20.065048   16.714821   20.217599 H          1 MOL1         0.3780
@<TRIPOS>BOND
    1     1     2    1
    2     1     3    1
    3     1     4    1
    4     4     5    1
    5     4     6    1
    6     4     7    1
    7     7     8    1
    8     7     9    1
    9     7    10    1
   10    10    11    1
   11    10    12    1
   12    10    13    1
   13    13    14    1
   14    13    15    1
   15    15    16    1
   16    15    17    1
   17    15    18    1
   18    18    19    1
   19    18    20    1
   20     1    21    1
   21    18    21    1
   22    21    22    1
   23    21    23    1
   24    13    24    1
   25    24    25    1
@<TRIPOS>SUBSTRUCTURE
       1 MOL1            1 RESIDUE      1      MOL     
@<SCITEGIC>MOL_PROPERTY
VConf Rank
SciTegic.value.IntegerValue
979

@<SCITEGIC>MOL_PROPERTY
Conf_Id
SciTegic.value.IntegerValue
129

@<SCITEGIC>MOL_PROPERTY
Delta U+W
SciTegic.value.DoubleValue
-1.846

@<SCITEGIC>MOL_PROPERTY
U+W
SciTegic.value.DoubleValue
9.067

@<SCITEGIC>MOL_PROPERTY
Grad RMS
SciTegic.value.DoubleValue
0.000000

@<SCITEGIC>MOL_PROPERTY
U
SciTegic.value.DoubleValue
11.150

@<SCITEGIC>MOL_PROPERTY
W
SciTegic.value.DoubleValue
-2.083

@<SCITEGIC>MOL_PROPERTY
W(PB)
SciTegic.value.DoubleValue
-4.217

@<SCITEGIC>MOL_PROPERTY
W(SA)
SciTegic.value.DoubleValue
2.134

@<SCITEGIC>MOL_PROPERTY
Valence
SciTegic.value.DoubleValue
16.583

@<SCITEGIC>MOL_PROPERTY
Coulomb
SciTegic.value.DoubleValue
-8.361

@<SCITEGIC>MOL_PROPERTY
VdW
SciTegic.value.DoubleValue
2.928

@<SCITEGIC>MOL_PROPERTY
VdW6
SciTegic.value.DoubleValue
-12.539

@<SCITEGIC>MOL_PROPERTY
VdW12
SciTegic.value.DoubleValue
15.467

@<SCITEGIC>MOL_PROPERTY
Bond
SciTegic.value.DoubleValue
0.441

@<SCITEGIC>MOL_PROPERTY
Angle
SciTegic.value.DoubleValue
5.093

@<SCITEGIC>MOL_PROPERTY
Pdih
SciTegic.value.DoubleValue
11.049

@<SCITEGIC>MOL_PROPERTY
Idih
SciTegic.value.DoubleValue
0.000

@<SCITEGIC>MOL_PROPERTY
Tether
SciTegic.value.DoubleValue
0.000

@<TRIPOS>MOLECULE
guest-s17_confgen4.mol2 : confsearch ligand conformer 980
          25          25           1
SMALL
USER_CHARGES
 
@<TRIPOS>ATOM
       1    C1      21.818793   20.571014   22.690270 C.3        1 MOL1        -0.1684
       2    H1      21.844740   21.421479   21.995617 H          1 MOL1         0.0833
       3    H2      22.721411   20.666631   23.309185 H          1 MOL1         0.0833
       4    C2      21.946074   19.251553   21.888374 C.3        1 MOL1        -0.1684
       5    H3      22.911724   19.280153   21.365395 H          1 MOL1         0.0833
       6    H4      22.027409   18.397263   22.570117 H          1 MOL1         0.0833
       7    C3      20.853257   18.993251   20.820995 C.3        1 MOL1        -0.1684
       8    H5      21.141698   18.090902   20.264560 H          1 MOL1         0.0833
       9    H6      20.861840   19.810777   20.087459 H          1 MOL1         0.0833
      10    C4      19.403401   18.791380   21.333285 C.3        1 MOL1        -0.1760
      11    H7      18.931415   19.760841   21.522795 H          1 MOL1         0.0833
      12    H8      18.828015   18.360776   20.502546 H          1 MOL1         0.0833
      13    C5      19.268384   17.875514   22.577284 C.3        1 MOL1         0.1219
      14    H9      20.162991   17.245780   22.672073 H          1 MOL1         0.0790
      15    C6      19.036775   18.637138   23.906640 C.3        1 MOL1        -0.1760
      16    H10     18.160652   19.290895   23.805518 H          1 MOL1         0.0833
      17    H11     18.769462   17.896969   24.672753 H          1 MOL1         0.0833
      18    C7      20.229471   19.464883   24.457397 C.3        1 MOL1        -0.1684
      19    H12     21.109327   18.826569   24.609721 H          1 MOL1         0.0833
      20    H13     19.945900   19.806194   25.462414 H          1 MOL1         0.0833
      21    C8      20.589038   20.721330   23.622772 C.3        1 MOL1        -0.1684
      22    H14     20.811001   21.541709   24.319019 H          1 MOL1         0.0833
      23    H15     19.717176   21.071455   23.058796 H          1 MOL1         0.0833
      24    O1      18.149284   17.020574   22.380165 O.3        1 MOL1        -0.5508
      25    H16     17.366133   17.603382   22.303012 H          1 MOL1         0.3780
@<TRIPOS>BOND
    1     1     2    1
    2     1     3    1
    3     1     4    1
    4     4     5    1
    5     4     6    1
    6     4     7    1
    7     7     8    1
    8     7     9    1
    9     7    10    1
   10    10    11    1
   11    10    12    1
   12    10    13    1
   13    13    14    1
   14    13    15    1
   15    15    16    1
   16    15    17    1
   17    15    18    1
   18    18    19    1
   19    18    20    1
   20     1    21    1
   21    18    21    1
   22    21    22    1
   23    21    23    1
   24    13    24    1
   25    24    25    1
@<TRIPOS>SUBSTRUCTURE
       1 MOL1            1 RESIDUE      1      MOL     
@<SCITEGIC>MOL_PROPERTY
VConf Rank
SciTegic.value.IntegerValue
980

@<SCITEGIC>MOL_PROPERTY
Conf_Id
SciTegic.value.IntegerValue
140

@<SCITEGIC>MOL_PROPERTY
Delta U+W
SciTegic.value.DoubleValue
-1.702

@<SCITEGIC>MOL_PROPERTY
U+W
SciTegic.value.DoubleValue
9.211

@<SCITEGIC>MOL_PROPERTY
Grad RMS
SciTegic.value.DoubleValue
0.000000

@<SCITEGIC>MOL_PROPERTY
U
SciTegic.value.DoubleValue
11.181

@<SCITEGIC>MOL_PROPERTY
W
SciTegic.value.DoubleValue
-1.969

@<SCITEGIC>MOL_PROPERTY
W(PB)
SciTegic.value.DoubleValue
-4.093

@<SCITEGIC>MOL_PROPERTY
W(SA)
SciTegic.value.DoubleValue
2.124

@<SCITEGIC>MOL_PROPERTY
Valence
SciTegic.value.DoubleValue
16.954

@<SCITEGIC>MOL_PROPERTY
Coulomb
SciTegic.value.DoubleValue
-8.661

@<SCITEGIC>MOL_PROPERTY
VdW
SciTegic.value.DoubleValue
2.887

@<SCITEGIC>MOL_PROPERTY
VdW6
SciTegic.value.DoubleValue
-12.561

@<SCITEGIC>MOL_PROPERTY
VdW12
SciTegic.value.DoubleValue
15.448

@<SCITEGIC>MOL_PROPERTY
Bond
SciTegic.value.DoubleValue
0.433

@<SCITEGIC>MOL_PROPERTY
Angle
SciTegic.value.DoubleValue
5.120

@<SCITEGIC>MOL_PROPERTY
Pdih
SciTegic.value.DoubleValue
11.401

@<SCITEGIC>MOL_PROPERTY
Idih
SciTegic.value.DoubleValue
0.000

@<SCITEGIC>MOL_PROPERTY
Tether
SciTegic.value.DoubleValue
0.000

@<TRIPOS>MOLECULE
guest-s17_confgen4.mol2 : confsearch ligand conformer 981
          25          25           1
SMALL
USER_CHARGES
 
@<TRIPOS>ATOM
       1    C1      21.245432   17.356196   22.587470 C.3        1 MOL1        -0.1684
       2    H1      22.342326   17.298516   22.589417 H          1 MOL1         0.0833
       3    H2      20.894362   16.316246   22.540850 H          1 MOL1         0.0833
       4    C2      20.782147   18.069297   21.290819 C.3        1 MOL1        -0.1684
       5    H3      21.435239   18.919228   21.063022 H          1 MOL1         0.0833
       6    H4      20.947175   17.368349   20.461067 H          1 MOL1         0.0833
       7    C3      19.293791   18.503722   21.265911 C.3        1 MOL1        -0.1684
       8    H5      18.689332   17.881960   21.938842 H          1 MOL1         0.0833
       9    H6      18.906153   18.296353   20.259084 H          1 MOL1         0.0833
      10    C4      19.051390   20.012191   21.542996 C.3        1 MOL1        -0.1760
      11    H7      19.634206   20.608002   20.828468 H          1 MOL1         0.0833
      12    H8      17.997467   20.222256   21.316377 H          1 MOL1         0.0833
      13    C5      19.331952   20.513063   22.982198 C.3        1 MOL1         0.1219
      14    H9      18.771102   19.895362   23.696176 H          1 MOL1         0.0790
      15    C6      20.833149   20.527900   23.370474 C.3        1 MOL1        -0.1760
      16    H10     21.457191   20.565321   22.471747 H          1 MOL1         0.0833
      17    H11     21.059829   21.460829   23.904212 H          1 MOL1         0.0833
      18    C7      21.285520   19.362017   24.287726 C.3        1 MOL1        -0.1684
      19    H12     20.955379   19.591393   25.310196 H          1 MOL1         0.0833
      20    H13     22.383095   19.343737   24.326353 H          1 MOL1         0.0833
      21    C8      20.761928   17.947064   23.935546 C.3        1 MOL1        -0.1684
      22    H14     19.668002   17.915869   23.995171 H          1 MOL1         0.0833
      23    H15     21.101035   17.267515   24.729286 H          1 MOL1         0.0833
      24    O1      18.837182   21.843340   23.070091 O.3        1 MOL1        -0.5508
      25    H16     19.348358   22.371889   22.423347 H          1 MOL1         0.3780
@<TRIPOS>BOND
    1     1     2    1
    2     1     3    1
    3     1     4    1
    4     4     5    1
    5     4     6    1
    6     4     7    1
    7     7     8    1
    8     7     9    1
    9     7    10    1
   10    10    11    1
   11    10    12    1
   12    10    13    1
   13    13    14    1
   14    13    15    1
   15    15    16    1
   16    15    17    1
   17    15    18    1
   18    18    19    1
   19    18    20    1
   20     1    21    1
   21    18    21    1
   22    21    22    1
   23    21    23    1
   24    13    24    1
   25    24    25    1
@<TRIPOS>SUBSTRUCTURE
       1 MOL1            1 RESIDUE      1      MOL     
@<SCITEGIC>MOL_PROPERTY
VConf Rank
SciTegic.value.IntegerValue
981

@<SCITEGIC>MOL_PROPERTY
Conf_Id
SciTegic.value.IntegerValue
68

@<SCITEGIC>MOL_PROPERTY
Delta U+W
SciTegic.value.DoubleValue
-1.765

@<SCITEGIC>MOL_PROPERTY
U+W
SciTegic.value.DoubleValue
9.148

@<SCITEGIC>MOL_PROPERTY
Grad RMS
SciTegic.value.DoubleValue
0.000000

@<SCITEGIC>MOL_PROPERTY
U
SciTegic.value.DoubleValue
11.181

@<SCITEGIC>MOL_PROPERTY
W
SciTegic.value.DoubleValue
-2.032

@<SCITEGIC>MOL_PROPERTY
W(PB)
SciTegic.value.DoubleValue
-4.147

@<SCITEGIC>MOL_PROPERTY
W(SA)
SciTegic.value.DoubleValue
2.114

@<SCITEGIC>MOL_PROPERTY
Valence
SciTegic.value.DoubleValue
16.955

@<SCITEGIC>MOL_PROPERTY
Coulomb
SciTegic.value.DoubleValue
-8.661

@<SCITEGIC>MOL_PROPERTY
VdW
SciTegic.value.DoubleValue
2.887

@<SCITEGIC>MOL_PROPERTY
VdW6
SciTegic.value.DoubleValue
-12.561

@<SCITEGIC>MOL_PROPERTY
VdW12
SciTegic.value.DoubleValue
15.448

@<SCITEGIC>MOL_PROPERTY
Bond
SciTegic.value.DoubleValue
0.433

@<SCITEGIC>MOL_PROPERTY
Angle
SciTegic.value.DoubleValue
5.121

@<SCITEGIC>MOL_PROPERTY
Pdih
SciTegic.value.DoubleValue
11.402

@<SCITEGIC>MOL_PROPERTY
Idih
SciTegic.value.DoubleValue
0.000

@<SCITEGIC>MOL_PROPERTY
Tether
SciTegic.value.DoubleValue
0.000

@<TRIPOS>MOLECULE
guest-s17_confgen4.mol2 : confsearch ligand conformer 982
          25          25           1
SMALL
USER_CHARGES
 
@<TRIPOS>ATOM
       1    C1      18.780412   19.581649   21.564790 C.3        1 MOL1        -0.1684
       2    H1      17.977572   19.750948   20.834131 H          1 MOL1         0.0833
       3    H2      18.579807   20.307219   22.361156 H          1 MOL1         0.0833
       4    C2      20.133498   19.891243   20.872972 C.3        1 MOL1        -0.1684
       5    H3      20.590293   18.977985   20.470589 H          1 MOL1         0.0833
       6    H4      19.919683   20.514718   19.994006 H          1 MOL1         0.0833
       7    C3      21.147529   20.674770   21.747288 C.3        1 MOL1        -0.1684
       8    H5      20.682661   21.606414   22.098017 H          1 MOL1         0.0833
       9    H6      21.977091   20.986205   21.097927 H          1 MOL1         0.0833
      10    C4      21.754631   19.917291   22.958158 C.3        1 MOL1        -0.1760
      11    H7      22.249992   18.997891   22.623677 H          1 MOL1         0.0833
      12    H8      22.559631   20.550290   23.355522 H          1 MOL1         0.0833
      13    C5      20.749018   19.620811   24.100843 C.3        1 MOL1         0.1219
      14    H9      19.889854   20.294684   24.004527 H          1 MOL1         0.0790
      15    C6      20.243448   18.158176   24.156880 C.3        1 MOL1        -0.1760
      16    H10     21.030421   17.534244   24.600680 H          1 MOL1         0.0833
      17    H11     19.395122   18.111313   24.852028 H          1 MOL1         0.0833
      18    C7      19.832345   17.499128   22.814974 C.3        1 MOL1        -0.1684
      19    H12     19.576381   16.452639   23.029606 H          1 MOL1         0.0833
      20    H13     20.691996   17.439998   22.137617 H          1 MOL1         0.0833
      21    C8      18.618115   18.131429   22.089729 C.3        1 MOL1        -0.1684
      22    H14     17.738690   18.086337   22.746360 H          1 MOL1         0.0833
      23    H15     18.379202   17.489681   21.230614 H          1 MOL1         0.0833
      24    O1      21.379908   19.902847   25.343871 O.3        1 MOL1        -0.5508
      25    H16     22.153298   19.305226   25.403914 H          1 MOL1         0.3780
@<TRIPOS>BOND
    1     1     2    1
    2     1     3    1
    3     1     4    1
    4     4     5    1
    5     4     6    1
    6     4     7    1
    7     7     8    1
    8     7     9    1
    9     7    10    1
   10    10    11    1
   11    10    12    1
   12    10    13    1
   13    13    14    1
   14    13    15    1
   15    15    16    1
   16    15    17    1
   17    15    18    1
   18    18    19    1
   19    18    20    1
   20     1    21    1
   21    18    21    1
   22    21    22    1
   23    21    23    1
   24    13    24    1
   25    24    25    1
@<TRIPOS>SUBSTRUCTURE
       1 MOL1            1 RESIDUE      1      MOL     
@<SCITEGIC>MOL_PROPERTY
VConf Rank
SciTegic.value.IntegerValue
982

@<SCITEGIC>MOL_PROPERTY
Conf_Id
SciTegic.value.IntegerValue
165

@<SCITEGIC>MOL_PROPERTY
Delta U+W
SciTegic.value.DoubleValue
-1.999

@<SCITEGIC>MOL_PROPERTY
U+W
SciTegic.value.DoubleValue
8.915

@<SCITEGIC>MOL_PROPERTY
Grad RMS
SciTegic.value.DoubleValue
0.000000

@<SCITEGIC>MOL_PROPERTY
U
SciTegic.value.DoubleValue
10.935

@<SCITEGIC>MOL_PROPERTY
W
SciTegic.value.DoubleValue
-2.020

@<SCITEGIC>MOL_PROPERTY
W(PB)
SciTegic.value.DoubleValue
-4.135

@<SCITEGIC>MOL_PROPERTY
W(SA)
SciTegic.value.DoubleValue
2.115

@<SCITEGIC>MOL_PROPERTY
Valence
SciTegic.value.DoubleValue
16.757

@<SCITEGIC>MOL_PROPERTY
Coulomb
SciTegic.value.DoubleValue
-8.731

@<SCITEGIC>MOL_PROPERTY
VdW
SciTegic.value.DoubleValue
2.908

@<SCITEGIC>MOL_PROPERTY
VdW6
SciTegic.value.DoubleValue
-12.597

@<SCITEGIC>MOL_PROPERTY
VdW12
SciTegic.value.DoubleValue
15.506

@<SCITEGIC>MOL_PROPERTY
Bond
SciTegic.value.DoubleValue
0.434

@<SCITEGIC>MOL_PROPERTY
Angle
SciTegic.value.DoubleValue
5.069

@<SCITEGIC>MOL_PROPERTY
Pdih
SciTegic.value.DoubleValue
11.254

@<SCITEGIC>MOL_PROPERTY
Idih
SciTegic.value.DoubleValue
0.000

@<SCITEGIC>MOL_PROPERTY
Tether
SciTegic.value.DoubleValue
0.000

@<TRIPOS>MOLECULE
guest-s17_confgen4.mol2 : confsearch ligand conformer 983
          25          25           1
SMALL
USER_CHARGES
 
@<TRIPOS>ATOM
       1    C1      19.151609   18.500479   23.911926 C.3        1 MOL1        -0.1684
       2    H1      18.450299   18.178875   24.694115 H          1 MOL1         0.0833
       3    H2      19.282346   17.612434   23.283368 H          1 MOL1         0.0833
       4    C2      20.480443   18.873470   24.619407 C.3        1 MOL1        -0.1684
       5    H3      20.227977   19.429584   25.532645 H          1 MOL1         0.0833
       6    H4      20.973541   17.953077   24.960434 H          1 MOL1         0.0833
       7    C3      21.493035   19.732464   23.821205 C.3        1 MOL1        -0.1684
       8    H5      22.319592   19.980260   24.500986 H          1 MOL1         0.0833
       9    H6      21.049639   20.700503   23.561218 H          1 MOL1         0.0833
      10    C4      22.112116   19.065331   22.565935 C.3        1 MOL1        -0.1760
      11    H7      22.880479   19.746935   22.176642 H          1 MOL1         0.0833
      12    H8      22.642686   18.155053   22.873516 H          1 MOL1         0.0833
      13    C5      21.148946   18.709875   21.406747 C.3        1 MOL1         0.1219
      14    H9      20.602397   17.793539   21.658681 H          1 MOL1         0.0790
      15    C6      20.129339   19.822088   21.049580 C.3        1 MOL1        -0.1760
      16    H10     20.490446   20.803324   21.379571 H          1 MOL1         0.0833
      17    H11     20.064518   19.894799   19.955485 H          1 MOL1         0.0833
      18    C7      18.689641   19.568987   21.571307 C.3        1 MOL1        -0.1684
      19    H12     18.336297   18.595976   21.203360 H          1 MOL1         0.0833
      20    H13     18.030455   20.315790   21.108131 H          1 MOL1         0.0833
      21    C8      18.482100   19.644689   23.106906 C.3        1 MOL1        -0.1684
      22    H14     17.399940   19.585645   23.287061 H          1 MOL1         0.0833
      23    H15     18.782214   20.627565   23.492257 H          1 MOL1         0.0833
      24    O1      21.945473   18.441287   20.258305 O.3        1 MOL1        -0.5508
      25    H16     22.548008   17.706559   20.498234 H          1 MOL1         0.3780
@<TRIPOS>BOND
    1     1     2    1
    2     1     3    1
    3     1     4    1
    4     4     5    1
    5     4     6    1
    6     4     7    1
    7     7     8    1
    8     7     9    1
    9     7    10    1
   10    10    11    1
   11    10    12    1
   12    10    13    1
   13    13    14    1
   14    13    15    1
   15    15    16    1
   16    15    17    1
   17    15    18    1
   18    18    19    1
   19    18    20    1
   20     1    21    1
   21    18    21    1
   22    21    22    1
   23    21    23    1
   24    13    24    1
   25    24    25    1
@<TRIPOS>SUBSTRUCTURE
       1 MOL1            1 RESIDUE      1      MOL     
@<SCITEGIC>MOL_PROPERTY
VConf Rank
SciTegic.value.IntegerValue
983

@<SCITEGIC>MOL_PROPERTY
Conf_Id
SciTegic.value.IntegerValue
133

@<SCITEGIC>MOL_PROPERTY
Delta U+W
SciTegic.value.DoubleValue
-2.139

@<SCITEGIC>MOL_PROPERTY
U+W
SciTegic.value.DoubleValue
8.774

@<SCITEGIC>MOL_PROPERTY
Grad RMS
SciTegic.value.DoubleValue
0.000000

@<SCITEGIC>MOL_PROPERTY
U
SciTegic.value.DoubleValue
10.905

@<SCITEGIC>MOL_PROPERTY
W
SciTegic.value.DoubleValue
-2.131

@<SCITEGIC>MOL_PROPERTY
W(PB)
SciTegic.value.DoubleValue
-4.281

@<SCITEGIC>MOL_PROPERTY
W(SA)
SciTegic.value.DoubleValue
2.150

@<SCITEGIC>MOL_PROPERTY
Valence
SciTegic.value.DoubleValue
16.378

@<SCITEGIC>MOL_PROPERTY
Coulomb
SciTegic.value.DoubleValue
-8.448

@<SCITEGIC>MOL_PROPERTY
VdW
SciTegic.value.DoubleValue
2.976

@<SCITEGIC>MOL_PROPERTY
VdW6
SciTegic.value.DoubleValue
-12.570

@<SCITEGIC>MOL_PROPERTY
VdW12
SciTegic.value.DoubleValue
15.545

@<SCITEGIC>MOL_PROPERTY
Bond
SciTegic.value.DoubleValue
0.439

@<SCITEGIC>MOL_PROPERTY
Angle
SciTegic.value.DoubleValue
5.049

@<SCITEGIC>MOL_PROPERTY
Pdih
SciTegic.value.DoubleValue
10.889

@<SCITEGIC>MOL_PROPERTY
Idih
SciTegic.value.DoubleValue
0.000

@<SCITEGIC>MOL_PROPERTY
Tether
SciTegic.value.DoubleValue
0.000

@<TRIPOS>MOLECULE
guest-s17_confgen4.mol2 : confsearch ligand conformer 984
          25          25           1
SMALL
USER_CHARGES
 
@<TRIPOS>ATOM
       1    C1      21.121677   20.864758   22.797136 C.3        1 MOL1        -0.1684
       2    H1      21.562606   21.859997   22.946022 H          1 MOL1         0.0833
       3    H2      21.608899   20.485148   21.891976 H          1 MOL1         0.0833
       4    C2      19.599011   21.043779   22.562699 C.3        1 MOL1        -0.1684
       5    H3      19.038153   20.926046   23.498748 H          1 MOL1         0.0833
       6    H4      19.432134   22.086353   22.259053 H          1 MOL1         0.0833
       7    C3      19.001631   20.146683   21.446801 C.3        1 MOL1        -0.1684
       8    H5      19.547565   20.319275   20.509168 H          1 MOL1         0.0833
       9    H6      17.975196   20.488989   21.256982 H          1 MOL1         0.0833
      10    C4      18.945225   18.622406   21.733836 C.3        1 MOL1        -0.1760
      11    H7      18.376772   18.424981   22.650353 H          1 MOL1         0.0833
      12    H8      18.354264   18.167114   20.927606 H          1 MOL1         0.0833
      13    C5      20.328768   17.924008   21.781088 C.3        1 MOL1         0.1219
      14    H9      21.063549   18.554629   21.267016 H          1 MOL1         0.0790
      15    C6      20.840567   17.601477   23.206495 C.3        1 MOL1        -0.1760
      16    H10     20.300024   16.718448   23.573358 H          1 MOL1         0.0833
      17    H11     21.895582   17.305587   23.142388 H          1 MOL1         0.0833
      18    C7      20.696271   18.712336   24.278502 C.3        1 MOL1        -0.1684
      19    H12     21.036140   18.290569   25.234170 H          1 MOL1         0.0833
      20    H13     19.639285   18.951447   24.442508 H          1 MOL1         0.0833
      21    C8      21.509095   20.007750   24.030385 C.3        1 MOL1        -0.1684
      22    H14     22.577834   19.760923   23.971706 H          1 MOL1         0.0833
      23    H15     21.399814   20.638615   24.923175 H          1 MOL1         0.0833
      24    O1      20.238088   16.693122   21.072422 O.3        1 MOL1        -0.5508
      25    H16     21.134221   16.296475   21.079813 H          1 MOL1         0.3780
@<TRIPOS>BOND
    1     1     2    1
    2     1     3    1
    3     1     4    1
    4     4     5    1
    5     4     6    1
    6     4     7    1
    7     7     8    1
    8     7     9    1
    9     7    10    1
   10    10    11    1
   11    10    12    1
   12    10    13    1
   13    13    14    1
   14    13    15    1
   15    15    16    1
   16    15    17    1
   17    15    18    1
   18    18    19    1
   19    18    20    1
   20     1    21    1
   21    18    21    1
   22    21    22    1
   23    21    23    1
   24    13    24    1
   25    24    25    1
@<TRIPOS>SUBSTRUCTURE
       1 MOL1            1 RESIDUE      1      MOL     
@<SCITEGIC>MOL_PROPERTY
VConf Rank
SciTegic.value.IntegerValue
984

@<SCITEGIC>MOL_PROPERTY
Conf_Id
SciTegic.value.IntegerValue
95

@<SCITEGIC>MOL_PROPERTY
Delta U+W
SciTegic.value.DoubleValue
-2.190

@<SCITEGIC>MOL_PROPERTY
U+W
SciTegic.value.DoubleValue
8.723

@<SCITEGIC>MOL_PROPERTY
Grad RMS
SciTegic.value.DoubleValue
0.000000

@<SCITEGIC>MOL_PROPERTY
U
SciTegic.value.DoubleValue
10.905

@<SCITEGIC>MOL_PROPERTY
W
SciTegic.value.DoubleValue
-2.182

@<SCITEGIC>MOL_PROPERTY
W(PB)
SciTegic.value.DoubleValue
-4.296

@<SCITEGIC>MOL_PROPERTY
W(SA)
SciTegic.value.DoubleValue
2.114

@<SCITEGIC>MOL_PROPERTY
Valence
SciTegic.value.DoubleValue
16.377

@<SCITEGIC>MOL_PROPERTY
Coulomb
SciTegic.value.DoubleValue
-8.448

@<SCITEGIC>MOL_PROPERTY
VdW
SciTegic.value.DoubleValue
2.976

@<SCITEGIC>MOL_PROPERTY
VdW6
SciTegic.value.DoubleValue
-12.570

@<SCITEGIC>MOL_PROPERTY
VdW12
SciTegic.value.DoubleValue
15.546

@<SCITEGIC>MOL_PROPERTY
Bond
SciTegic.value.DoubleValue
0.439

@<SCITEGIC>MOL_PROPERTY
Angle
SciTegic.value.DoubleValue
5.049

@<SCITEGIC>MOL_PROPERTY
Pdih
SciTegic.value.DoubleValue
10.889

@<SCITEGIC>MOL_PROPERTY
Idih
SciTegic.value.DoubleValue
0.000

@<SCITEGIC>MOL_PROPERTY
Tether
SciTegic.value.DoubleValue
0.000

@<TRIPOS>MOLECULE
guest-s17_confgen4.mol2 : confsearch ligand conformer 985
          25          25           1
SMALL
USER_CHARGES
 
@<TRIPOS>ATOM
       1    C1      21.862265   19.505676   23.533302 C.3        1 MOL1        -0.1684
       2    H1      22.757333   19.649846   24.153760 H          1 MOL1         0.0833
       3    H2      21.981772   20.248989   22.738671 H          1 MOL1         0.0833
       4    C2      20.630932   19.837766   24.426473 C.3        1 MOL1        -0.1684
       5    H3      20.868685   19.509497   25.447577 H          1 MOL1         0.0833
       6    H4      20.519986   20.928744   24.489157 H          1 MOL1         0.0833
       7    C3      19.264216   19.204194   24.056109 C.3        1 MOL1        -0.1684
       8    H5      18.554555   19.452997   24.856918 H          1 MOL1         0.0833
       9    H6      19.343554   18.114079   24.114282 H          1 MOL1         0.0833
      10    C4      18.610953   19.642056   22.711473 C.3        1 MOL1        -0.1760
      11    H7      17.879414   18.881601   22.408270 H          1 MOL1         0.0833
      12    H8      18.027975   20.549089   22.918090 H          1 MOL1         0.0833
      13    C5      19.540751   19.956929   21.512297 C.3        1 MOL1         0.1219
      14    H9      20.232616   20.748482   21.818206 H          1 MOL1         0.0790
      15    C6      20.343922   18.767416   20.911824 C.3        1 MOL1        -0.1760
      16    H10     19.703724   18.265831   20.173668 H          1 MOL1         0.0833
      17    H11     21.188248   19.174924   20.341438 H          1 MOL1         0.0833
      18    C7      20.869459   17.667631   21.873748 C.3        1 MOL1        -0.1684
      19    H12     21.309578   16.871315   21.258209 H          1 MOL1         0.0833
      20    H13     20.020481   17.175891   22.359030 H          1 MOL1         0.0833
      21    C8      21.943023   18.081778   22.922294 C.3        1 MOL1        -0.1684
      22    H14     22.925380   17.996617   22.437949 H          1 MOL1         0.0833
      23    H15     21.951847   17.340855   23.733096 H          1 MOL1         0.0833
      24    O1      18.727559   20.486103   20.471476 O.3        1 MOL1        -0.5508
      25    H16     18.274854   21.273642   20.838761 H          1 MOL1         0.3780
@<TRIPOS>BOND
    1     1     2    1
    2     1     3    1
    3     1     4    1
    4     4     5    1
    5     4     6    1
    6     4     7    1
    7     7     8    1
    8     7     9    1
    9     7    10    1
   10    10    11    1
   11    10    12    1
   12    10    13    1
   13    13    14    1
   14    13    15    1
   15    15    16    1
   16    15    17    1
   17    15    18    1
   18    18    19    1
   19    18    20    1
   20     1    21    1
   21    18    21    1
   22    21    22    1
   23    21    23    1
   24    13    24    1
   25    24    25    1
@<TRIPOS>SUBSTRUCTURE
       1 MOL1            1 RESIDUE      1      MOL     
@<SCITEGIC>MOL_PROPERTY
VConf Rank
SciTegic.value.IntegerValue
985

@<SCITEGIC>MOL_PROPERTY
Conf_Id
SciTegic.value.IntegerValue
161

@<SCITEGIC>MOL_PROPERTY
Delta U+W
SciTegic.value.DoubleValue
2.120

@<SCITEGIC>MOL_PROPERTY
U+W
SciTegic.value.DoubleValue
13.033

@<SCITEGIC>MOL_PROPERTY
Grad RMS
SciTegic.value.DoubleValue
0.000000

@<SCITEGIC>MOL_PROPERTY
U
SciTegic.value.DoubleValue
15.076

@<SCITEGIC>MOL_PROPERTY
W
SciTegic.value.DoubleValue
-2.043

@<SCITEGIC>MOL_PROPERTY
W(PB)
SciTegic.value.DoubleValue
-4.186

@<SCITEGIC>MOL_PROPERTY
W(SA)
SciTegic.value.DoubleValue
2.143

@<SCITEGIC>MOL_PROPERTY
Valence
SciTegic.value.DoubleValue
18.884

@<SCITEGIC>MOL_PROPERTY
Coulomb
SciTegic.value.DoubleValue
-8.074

@<SCITEGIC>MOL_PROPERTY
VdW
SciTegic.value.DoubleValue
4.266

@<SCITEGIC>MOL_PROPERTY
VdW6
SciTegic.value.DoubleValue
-13.486

@<SCITEGIC>MOL_PROPERTY
VdW12
SciTegic.value.DoubleValue
17.752

@<SCITEGIC>MOL_PROPERTY
Bond
SciTegic.value.DoubleValue
0.713

@<SCITEGIC>MOL_PROPERTY
Angle
SciTegic.value.DoubleValue
8.955

@<SCITEGIC>MOL_PROPERTY
Pdih
SciTegic.value.DoubleValue
9.215

@<SCITEGIC>MOL_PROPERTY
Idih
SciTegic.value.DoubleValue
0.000

@<SCITEGIC>MOL_PROPERTY
Tether
SciTegic.value.DoubleValue
0.000

@<TRIPOS>MOLECULE
guest-s17_confgen4.mol2 : confsearch ligand conformer 986
          25          25           1
SMALL
USER_CHARGES
 
@<TRIPOS>ATOM
       1    C1      21.642113   20.307867   21.670686 C.3        1 MOL1        -0.1684
       2    H1      22.444317   21.000859   21.382212 H          1 MOL1         0.0833
       3    H2      21.128931   20.067724   20.730893 H          1 MOL1         0.0833
       4    C2      20.678496   21.060773   22.621609 C.3        1 MOL1        -0.1684
       5    H3      21.026017   20.995452   23.661392 H          1 MOL1         0.0833
       6    H4      20.742054   22.126189   22.360803 H          1 MOL1         0.0833
       7    C3      19.182397   20.657266   22.502427 C.3        1 MOL1        -0.1684
       8    H5      18.909375   20.451070   21.458767 H          1 MOL1         0.0833
       9    H6      18.592426   21.539129   22.787827 H          1 MOL1         0.0833
      10    C4      18.733001   19.497958   23.428991 C.3        1 MOL1        -0.1760
      11    H7      19.284360   19.543333   24.376046 H          1 MOL1         0.0833
      12    H8      17.684970   19.677291   23.703040 H          1 MOL1         0.0833
      13    C5      18.791333   18.073452   22.821364 C.3        1 MOL1         0.1219
      14    H9      18.001783   17.998825   22.059908 H          1 MOL1         0.0790
      15    C6      20.122901   17.665942   22.149243 C.3        1 MOL1        -0.1760
      16    H10     20.103046   16.581716   21.975628 H          1 MOL1         0.0833
      17    H11     20.162843   18.102096   21.145282 H          1 MOL1         0.0833
      18    C7      21.399189   18.020057   22.958515 C.3        1 MOL1        -0.1684
      19    H12     21.974797   17.100419   23.130769 H          1 MOL1         0.0833
      20    H13     21.145874   18.385431   23.960230 H          1 MOL1         0.0833
      21    C8      22.324380   19.044652   22.259294 C.3        1 MOL1        -0.1684
      22    H14     22.862733   18.537127   21.447257 H          1 MOL1         0.0833
      23    H15     23.094207   19.358897   22.977205 H          1 MOL1         0.0833
      24    O1      18.515674   17.142814   23.858807 O.3        1 MOL1        -0.5508
      25    H16     19.305727   17.143716   24.436411 H          1 MOL1         0.3780
@<TRIPOS>BOND
    1     1     2    1
    2     1     3    1
    3     1     4    1
    4     4     5    1
    5     4     6    1
    6     4     7    1
    7     7     8    1
    8     7     9    1
    9     7    10    1
   10    10    11    1
   11    10    12    1
   12    10    13    1
   13    13    14    1
   14    13    15    1
   15    15    16    1
   16    15    17    1
   17    15    18    1
   18    18    19    1
   19    18    20    1
   20     1    21    1
   21    18    21    1
   22    21    22    1
   23    21    23    1
   24    13    24    1
   25    24    25    1
@<TRIPOS>SUBSTRUCTURE
       1 MOL1            1 RESIDUE      1      MOL     
@<SCITEGIC>MOL_PROPERTY
VConf Rank
SciTegic.value.IntegerValue
986

@<SCITEGIC>MOL_PROPERTY
Conf_Id
SciTegic.value.IntegerValue
164

@<SCITEGIC>MOL_PROPERTY
Delta U+W
SciTegic.value.DoubleValue
0.008

@<SCITEGIC>MOL_PROPERTY
U+W
SciTegic.value.DoubleValue
10.922

@<SCITEGIC>MOL_PROPERTY
Grad RMS
SciTegic.value.DoubleValue
0.000000

@<SCITEGIC>MOL_PROPERTY
U
SciTegic.value.DoubleValue
12.433

@<SCITEGIC>MOL_PROPERTY
W
SciTegic.value.DoubleValue
-1.511

@<SCITEGIC>MOL_PROPERTY
W(PB)
SciTegic.value.DoubleValue
-3.669

@<SCITEGIC>MOL_PROPERTY
W(SA)
SciTegic.value.DoubleValue
2.157

@<SCITEGIC>MOL_PROPERTY
Valence
SciTegic.value.DoubleValue
19.007

@<SCITEGIC>MOL_PROPERTY
Coulomb
SciTegic.value.DoubleValue
-9.373

@<SCITEGIC>MOL_PROPERTY
VdW
SciTegic.value.DoubleValue
2.799

@<SCITEGIC>MOL_PROPERTY
VdW6
SciTegic.value.DoubleValue
-12.597

@<SCITEGIC>MOL_PROPERTY
VdW12
SciTegic.value.DoubleValue
15.396

@<SCITEGIC>MOL_PROPERTY
Bond
SciTegic.value.DoubleValue
0.425

@<SCITEGIC>MOL_PROPERTY
Angle
SciTegic.value.DoubleValue
4.784

@<SCITEGIC>MOL_PROPERTY
Pdih
SciTegic.value.DoubleValue
13.799

@<SCITEGIC>MOL_PROPERTY
Idih
SciTegic.value.DoubleValue
0.000

@<SCITEGIC>MOL_PROPERTY
Tether
SciTegic.value.DoubleValue
0.000

@<TRIPOS>MOLECULE
guest-s17_confgen4.mol2 : confsearch ligand conformer 987
          25          25           1
SMALL
USER_CHARGES
 
@<TRIPOS>ATOM
       1    C1      19.703228   17.501624   22.520999 C.3        1 MOL1        -0.1684
       2    H1      20.231532   17.552610   23.479756 H          1 MOL1         0.0833
       3    H2      19.339924   16.466725   22.460447 H          1 MOL1         0.0833
       4    C2      20.692014   17.711156   21.347067 C.3        1 MOL1        -0.1684
       5    H3      21.446066   16.914397   21.406085 H          1 MOL1         0.0833
       6    H4      20.165545   17.551645   20.396334 H          1 MOL1         0.0833
       7    C3      21.439918   19.067520   21.286407 C.3        1 MOL1        -0.1684
       8    H5      20.815150   19.830624   20.808495 H          1 MOL1         0.0833
       9    H6      22.288819   18.938917   20.600963 H          1 MOL1         0.0833
      10    C4      21.987082   19.583865   22.643896 C.3        1 MOL1        -0.1760
      11    H7      22.146729   18.754739   23.343783 H          1 MOL1         0.0833
      12    H8      22.985438   20.001106   22.455659 H          1 MOL1         0.0833
      13    C5      21.144938   20.705542   23.302007 C.3        1 MOL1         0.1219
      14    H9      21.007521   21.508520   22.563805 H          1 MOL1         0.0790
      15    C6      19.749446   20.299488   23.838849 C.3        1 MOL1        -0.1760
      16    H10     19.835498   19.493908   24.578048 H          1 MOL1         0.0833
      17    H11     19.356137   21.161807   24.393784 H          1 MOL1         0.0833
      18    C7      18.707991   19.941207   22.745328 C.3        1 MOL1        -0.1684
      19    H12     18.967692   20.421460   21.795077 H          1 MOL1         0.0833
      20    H13     17.746279   20.391630   23.026811 H          1 MOL1         0.0833
      21    C8      18.459608   18.425094   22.539231 C.3        1 MOL1        -0.1684
      22    H14     17.886636   18.280453   21.613332 H          1 MOL1         0.0833
      23    H15     17.804841   18.078880   23.350598 H          1 MOL1         0.0833
      24    O1      21.893245   21.221487   24.394268 O.3        1 MOL1        -0.5508
      25    H16     21.997364   20.484404   25.030393 H          1 MOL1         0.3780
@<TRIPOS>BOND
    1     1     2    1
    2     1     3    1
    3     1     4    1
    4     4     5    1
    5     4     6    1
    6     4     7    1
    7     7     8    1
    8     7     9    1
    9     7    10    1
   10    10    11    1
   11    10    12    1
   12    10    13    1
   13    13    14    1
   14    13    15    1
   15    15    16    1
   16    15    17    1
   17    15    18    1
   18    18    19    1
   19    18    20    1
   20     1    21    1
   21    18    21    1
   22    21    22    1
   23    21    23    1
   24    13    24    1
   25    24    25    1
@<TRIPOS>SUBSTRUCTURE
       1 MOL1            1 RESIDUE      1      MOL     
@<SCITEGIC>MOL_PROPERTY
VConf Rank
SciTegic.value.IntegerValue
987

@<SCITEGIC>MOL_PROPERTY
Conf_Id
SciTegic.value.IntegerValue
15

@<SCITEGIC>MOL_PROPERTY
Delta U+W
SciTegic.value.DoubleValue
-1.271

@<SCITEGIC>MOL_PROPERTY
U+W
SciTegic.value.DoubleValue
9.643

@<SCITEGIC>MOL_PROPERTY
Grad RMS
SciTegic.value.DoubleValue
0.000000

@<SCITEGIC>MOL_PROPERTY
U
SciTegic.value.DoubleValue
11.413

@<SCITEGIC>MOL_PROPERTY
W
SciTegic.value.DoubleValue
-1.770

@<SCITEGIC>MOL_PROPERTY
W(PB)
SciTegic.value.DoubleValue
-3.908

@<SCITEGIC>MOL_PROPERTY
W(SA)
SciTegic.value.DoubleValue
2.138

@<SCITEGIC>MOL_PROPERTY
Valence
SciTegic.value.DoubleValue
17.496

@<SCITEGIC>MOL_PROPERTY
Coulomb
SciTegic.value.DoubleValue
-8.736

@<SCITEGIC>MOL_PROPERTY
VdW
SciTegic.value.DoubleValue
2.653

@<SCITEGIC>MOL_PROPERTY
VdW6
SciTegic.value.DoubleValue
-12.485

@<SCITEGIC>MOL_PROPERTY
VdW12
SciTegic.value.DoubleValue
15.138

@<SCITEGIC>MOL_PROPERTY
Bond
SciTegic.value.DoubleValue
0.414

@<SCITEGIC>MOL_PROPERTY
Angle
SciTegic.value.DoubleValue
5.295

@<SCITEGIC>MOL_PROPERTY
Pdih
SciTegic.value.DoubleValue
11.787

@<SCITEGIC>MOL_PROPERTY
Idih
SciTegic.value.DoubleValue
0.000

@<SCITEGIC>MOL_PROPERTY
Tether
SciTegic.value.DoubleValue
0.000

@<TRIPOS>MOLECULE
guest-s17_confgen4.mol2 : confsearch ligand conformer 988
          25          25           1
SMALL
USER_CHARGES
 
@<TRIPOS>ATOM
       1    C1      19.637789   19.919770   20.998996 C.3        1 MOL1        -0.1684
       2    H1      19.366348   20.190572   19.969448 H          1 MOL1         0.0833
       3    H2      19.434150   20.822623   21.588532 H          1 MOL1         0.0833
       4    C2      18.696083   18.763373   21.426502 C.3        1 MOL1        -0.1684
       5    H3      17.673577   19.160631   21.485600 H          1 MOL1         0.0833
       6    H4      18.676978   18.007531   20.629563 H          1 MOL1         0.0833
       7    C3      19.029868   18.053407   22.760620 C.3        1 MOL1        -0.1684
       8    H5      19.854154   17.347778   22.604384 H          1 MOL1         0.0833
       9    H6      18.171734   17.425512   23.036556 H          1 MOL1         0.0833
      10    C4      19.337546   19.020229   23.933668 C.3        1 MOL1        -0.1760
      11    H7      19.109758   20.055618   23.657128 H          1 MOL1         0.0833
      12    H8      18.652292   18.791791   24.760372 H          1 MOL1         0.0833
      13    C5      20.779348   18.923069   24.483246 C.3        1 MOL1         0.1219
      14    H9      20.852821   17.990108   25.060320 H          1 MOL1         0.0790
      15    C6      21.921027   18.901504   23.434159 C.3        1 MOL1        -0.1760
      16    H10     22.865249   19.002895   23.985973 H          1 MOL1         0.0833
      17    H11     21.982547   17.911311   22.966992 H          1 MOL1         0.0833
      18    C7      21.887727   19.997628   22.335776 C.3        1 MOL1        -0.1684
      19    H12     22.931855   20.203803   22.062953 H          1 MOL1         0.0833
      20    H13     21.500873   20.945195   22.732350 H          1 MOL1         0.0833
      21    C8      21.153067   19.600713   21.025619 C.3        1 MOL1        -0.1684
      22    H14     21.334960   18.547917   20.771215 H          1 MOL1         0.0833
      23    H15     21.614963   20.179604   20.214008 H          1 MOL1         0.0833
      24    O1      20.994402   20.019646   25.360559 O.3        1 MOL1        -0.5508
      25    H16     21.015522   20.816318   24.793097 H          1 MOL1         0.3780
@<TRIPOS>BOND
    1     1     2    1
    2     1     3    1
    3     1     4    1
    4     4     5    1
    5     4     6    1
    6     4     7    1
    7     7     8    1
    8     7     9    1
    9     7    10    1
   10    10    11    1
   11    10    12    1
   12    10    13    1
   13    13    14    1
   14    13    15    1
   15    15    16    1
   16    15    17    1
   17    15    18    1
   18    18    19    1
   19    18    20    1
   20     1    21    1
   21    18    21    1
   22    21    22    1
   23    21    23    1
   24    13    24    1
   25    24    25    1
@<TRIPOS>SUBSTRUCTURE
       1 MOL1            1 RESIDUE      1      MOL     
@<SCITEGIC>MOL_PROPERTY
VConf Rank
SciTegic.value.IntegerValue
988

@<SCITEGIC>MOL_PROPERTY
Conf_Id
SciTegic.value.IntegerValue
115

@<SCITEGIC>MOL_PROPERTY
Delta U+W
SciTegic.value.DoubleValue
0.038

@<SCITEGIC>MOL_PROPERTY
U+W
SciTegic.value.DoubleValue
10.952

@<SCITEGIC>MOL_PROPERTY
Grad RMS
SciTegic.value.DoubleValue
0.000000

@<SCITEGIC>MOL_PROPERTY
U
SciTegic.value.DoubleValue
12.526

@<SCITEGIC>MOL_PROPERTY
W
SciTegic.value.DoubleValue
-1.575

@<SCITEGIC>MOL_PROPERTY
W(PB)
SciTegic.value.DoubleValue
-3.698

@<SCITEGIC>MOL_PROPERTY
W(SA)
SciTegic.value.DoubleValue
2.123

@<SCITEGIC>MOL_PROPERTY
Valence
SciTegic.value.DoubleValue
19.016

@<SCITEGIC>MOL_PROPERTY
Coulomb
SciTegic.value.DoubleValue
-9.226

@<SCITEGIC>MOL_PROPERTY
VdW
SciTegic.value.DoubleValue
2.737

@<SCITEGIC>MOL_PROPERTY
VdW6
SciTegic.value.DoubleValue
-12.612

@<SCITEGIC>MOL_PROPERTY
VdW12
SciTegic.value.DoubleValue
15.349

@<SCITEGIC>MOL_PROPERTY
Bond
SciTegic.value.DoubleValue
0.421

@<SCITEGIC>MOL_PROPERTY
Angle
SciTegic.value.DoubleValue
4.883

@<SCITEGIC>MOL_PROPERTY
Pdih
SciTegic.value.DoubleValue
13.711

@<SCITEGIC>MOL_PROPERTY
Idih
SciTegic.value.DoubleValue
0.000

@<SCITEGIC>MOL_PROPERTY
Tether
SciTegic.value.DoubleValue
0.000

